MODEL 1
REMARK VINA RESULT:      -6.8      0.000      0.000
REMARK  Name = 
REMARK  10 active torsions:
REMARK  status: ('A' for Active; 'I' for Inactive)
REMARK    1  A    between atoms: C_1  and  O_2
REMARK    2  A    between atoms: O_2  and  P_3
REMARK    3  A    between atoms: P_3  and  O_5
REMARK    4  A    between atoms: P_3  and  C_7
REMARK    5  A    between atoms: O_5  and  C_6
REMARK    6  A    between atoms: C_10  and  N_11
REMARK    7  A    between atoms: N_11  and  C_12
REMARK    8  A    between atoms: C_12  and  C_13
REMARK    9  A    between atoms: C_15  and  O_16
REMARK   10  A    between atoms: C_19  and  O_20
REMARK                            x       y       z     vdW  Elec       q    Type
REMARK                         _______ _______ _______ _____ _____    ______ ____
ROOT
ATOM      1  N   UNL     1       2.793   4.596  17.607  0.00  0.00    +0.000 N 
ATOM      2  H   UNL     1       2.813   4.959  16.658  0.00  0.00    +0.000 HD
ENDROOT
BRANCH   1   6
ATOM      3  C   UNL     1       1.805   7.779  20.227  0.00  0.00    +0.000 A 
ATOM      4  C   UNL     1       2.236   8.029  18.923  0.00  0.00    +0.000 A 
ATOM      5  C   UNL     1       2.592   6.961  18.088  0.00  0.00    +0.000 A 
ATOM      6  C   UNL     1       2.552   5.627  18.531  0.00  0.00    +0.000 A 
ATOM      7  C   UNL     1       2.114   5.391  19.834  0.00  0.00    +0.000 A 
ATOM      8  C   UNL     1       1.778   6.449  20.679  0.00  0.00    +0.000 A 
BRANCH   3   9
ATOM      9  P   UNL     1       1.025   9.094  21.233  0.00  0.00    +0.000 P 
ATOM     10  O   UNL     1      -0.218   8.210  21.431  0.00  0.00    +0.000 OA
BRANCH   9  12
ATOM     11  C   UNL     1      -0.496   9.826  23.245  0.00  0.00    +0.000 C 
ATOM     12  O   UNL     1       0.287  10.338  22.183  0.00  0.00    +0.000 OA
ENDBRANCH   9  12
BRANCH   9  13
ATOM     13  O   UNL     1       0.791  10.056  19.904  0.00  0.00    +0.000 OA
ATOM     14  C   UNL     1      -0.541  10.414  19.591  0.00  0.00    +0.000 C 
ENDBRANCH   9  13
ENDBRANCH   3   9
ENDBRANCH   1   6
BRANCH   1  15
ATOM     15  C   UNL     1       3.961   3.742  17.853  0.00  0.00    +0.000 C 
BRANCH  15  16
ATOM     16  C   UNL     1       5.234   4.554  17.942  0.00  0.00    +0.000 A 
ATOM     17  C   UNL     1       5.932   4.696  19.154  0.00  0.00    +0.000 A 
ATOM     18  C   UNL     1       7.064   5.504  19.222  0.00  0.00    +0.000 A 
ATOM     19  C   UNL     1       7.517   6.192  18.104  0.00  0.00    +0.000 A 
ATOM     20  C   UNL     1       6.825   6.085  16.900  0.00  0.00    +0.000 A 
ATOM     21  C   UNL     1       5.690   5.278  16.829  0.00  0.00    +0.000 A 
BRANCH  18  22
ATOM     22  O   UNL     1       7.758   5.660  20.384  0.00  0.00    +0.000 OA
ATOM     23  H   UNL     1       7.236   6.222  20.980  0.00  0.00    +0.000 HD
ENDBRANCH  18  22
BRANCH  21  24
ATOM     24  O   UNL     1       4.987   5.194  15.660  0.00  0.00    +0.000 OA
ATOM     25  H   UNL     1       4.211   5.781  15.715  0.00  0.00    +0.000 HD
ENDBRANCH  21  24
ENDBRANCH  15  16
ENDBRANCH   1  15
TORSDOF 8
ENDMDL
MODEL 2
REMARK VINA RESULT:      -6.7      5.283      7.905
REMARK  Name = 
REMARK  10 active torsions:
REMARK  status: ('A' for Active; 'I' for Inactive)
REMARK    1  A    between atoms: C_1  and  O_2
REMARK    2  A    between atoms: O_2  and  P_3
REMARK    3  A    between atoms: P_3  and  O_5
REMARK    4  A    between atoms: P_3  and  C_7
REMARK    5  A    between atoms: O_5  and  C_6
REMARK    6  A    between atoms: C_10  and  N_11
REMARK    7  A    between atoms: N_11  and  C_12
REMARK    8  A    between atoms: C_12  and  C_13
REMARK    9  A    between atoms: C_15  and  O_16
REMARK   10  A    between atoms: C_19  and  O_20
REMARK                            x       y       z     vdW  Elec       q    Type
REMARK                         _______ _______ _______ _____ _____    ______ ____
ROOT
ATOM      1  N   UNL     1       8.953   8.814  18.860  0.00  0.00    +0.000 N 
ATOM      2  H   UNL     1       9.940   8.594  18.751  0.00  0.00    +0.000 HD
ENDROOT
BRANCH   1   6
ATOM      3  C   UNL     1       6.381   5.646  17.710  0.00  0.00    +0.000 A 
ATOM      4  C   UNL     1       7.342   5.466  18.706  0.00  0.00    +0.000 A 
ATOM      5  C   UNL     1       8.206   6.518  19.043  0.00  0.00    +0.000 A 
ATOM      6  C   UNL     1       8.152   7.760  18.387  0.00  0.00    +0.000 A 
ATOM      7  C   UNL     1       7.183   7.929  17.399  0.00  0.00    +0.000 A 
ATOM      8  C   UNL     1       6.334   6.882  17.042  0.00  0.00    +0.000 A 
BRANCH   3   9
ATOM      9  P   UNL     1       5.033   4.432  17.467  0.00  0.00    +0.000 P 
ATOM     10  O   UNL     1       5.404   3.750  18.796  0.00  0.00    +0.000 OA
BRANCH   9  12
ATOM     11  C   UNL     1       3.601   2.411  18.340  0.00  0.00    +0.000 C 
ATOM     12  O   UNL     1       3.759   3.284  17.237  0.00  0.00    +0.000 OA
ENDBRANCH   9  12
BRANCH   9  13
ATOM     13  O   UNL     1       5.849   3.682  16.235  0.00  0.00    +0.000 OA
ATOM     14  C   UNL     1       5.578   4.122  14.919  0.00  0.00    +0.000 C 
ENDBRANCH   9  13
ENDBRANCH   3   9
ENDBRANCH   1   6
BRANCH   1  15
ATOM     15  C   UNL     1       8.666  10.155  18.337  0.00  0.00    +0.000 C 
BRANCH  15  16
ATOM     16  C   UNL     1       9.822  11.102  18.571  0.00  0.00    +0.000 A 
ATOM     17  C   UNL     1      10.528  11.678  17.500  0.00  0.00    +0.000 A 
ATOM     18  C   UNL     1      11.631  12.493  17.745  0.00  0.00    +0.000 A 
ATOM     19  C   UNL     1      12.060  12.741  19.041  0.00  0.00    +0.000 A 
ATOM     20  C   UNL     1      11.390  12.160  20.114  0.00  0.00    +0.000 A 
ATOM     21  C   UNL     1      10.286  11.341  19.873  0.00  0.00    +0.000 A 
BRANCH  18  22
ATOM     22  O   UNL     1      12.333  13.062  16.725  0.00  0.00    +0.000 OA
ATOM     23  H   UNL     1      13.233  12.695  16.729  0.00  0.00    +0.000 HD
ENDBRANCH  18  22
BRANCH  21  24
ATOM     24  O   UNL     1       9.644  10.741  20.920  0.00  0.00    +0.000 OA
ATOM     25  H   UNL     1      10.309  10.391  21.540  0.00  0.00    +0.000 HD
ENDBRANCH  21  24
ENDBRANCH  15  16
ENDBRANCH   1  15
TORSDOF 8
ENDMDL
MODEL 3
REMARK VINA RESULT:      -6.6      1.777      1.941
REMARK  Name = 
REMARK  10 active torsions:
REMARK  status: ('A' for Active; 'I' for Inactive)
REMARK    1  A    between atoms: C_1  and  O_2
REMARK    2  A    between atoms: O_2  and  P_3
REMARK    3  A    between atoms: P_3  and  O_5
REMARK    4  A    between atoms: P_3  and  C_7
REMARK    5  A    between atoms: O_5  and  C_6
REMARK    6  A    between atoms: C_10  and  N_11
REMARK    7  A    between atoms: N_11  and  C_12
REMARK    8  A    between atoms: C_12  and  C_13
REMARK    9  A    between atoms: C_15  and  O_16
REMARK   10  A    between atoms: C_19  and  O_20
REMARK                            x       y       z     vdW  Elec       q    Type
REMARK                         _______ _______ _______ _____ _____    ______ ____
ROOT
ATOM      1  N   UNL     1       3.168   5.264  18.572  0.00  0.00    +0.000 N 
ATOM      2  H   UNL     1       2.398   4.609  18.461  0.00  0.00    +0.000 HD
ENDROOT
BRANCH   1   6
ATOM      3  C   UNL     1       1.476   9.100  19.199  0.00  0.00    +0.000 A 
ATOM      4  C   UNL     1       2.027   8.751  17.965  0.00  0.00    +0.000 A 
ATOM      5  C   UNL     1       2.614   7.489  17.793  0.00  0.00    +0.000 A 
ATOM      6  C   UNL     1       2.689   6.557  18.843  0.00  0.00    +0.000 A 
ATOM      7  C   UNL     1       2.129   6.916  20.069  0.00  0.00    +0.000 A 
ATOM      8  C   UNL     1       1.563   8.177  20.256  0.00  0.00    +0.000 A 
BRANCH   3   9
ATOM      9  P   UNL     1       0.421  10.585  19.376  0.00  0.00    +0.000 P 
ATOM     10  O   UNL     1      -0.368  10.177  18.119  0.00  0.00    +0.000 OA
BRANCH   9  12
ATOM     11  C   UNL     1      -1.455  11.910  20.651  0.00  0.00    +0.000 C 
ATOM     12  O   UNL     1      -0.577  11.988  19.543  0.00  0.00    +0.000 OA
ENDBRANCH   9  12
BRANCH   9  13
ATOM     13  O   UNL     1       1.658  11.592  18.928  0.00  0.00    +0.000 OA
ATOM     14  C   UNL     1       1.307  12.888  18.484  0.00  0.00    +0.000 C 
ENDBRANCH   9  13
ENDBRANCH   3   9
ENDBRANCH   1   6
BRANCH   1  15
ATOM     15  C   UNL     1       4.120   5.126  17.463  0.00  0.00    +0.000 C 
BRANCH  15  16
ATOM     16  C   UNL     1       5.499   5.614  17.851  0.00  0.00    +0.000 A 
ATOM     17  C   UNL     1       6.107   5.215  19.054  0.00  0.00    +0.000 A 
ATOM     18  C   UNL     1       7.348   5.733  19.417  0.00  0.00    +0.000 A 
ATOM     19  C   UNL     1       8.000   6.656  18.610  0.00  0.00    +0.000 A 
ATOM     20  C   UNL     1       7.402   7.083  17.427  0.00  0.00    +0.000 A 
ATOM     21  C   UNL     1       6.158   6.568  17.061  0.00  0.00    +0.000 A 
BRANCH  18  22
ATOM     22  O   UNL     1       7.960   5.365  20.578  0.00  0.00    +0.000 OA
ATOM     23  H   UNL     1       7.960   4.395  20.631  0.00  0.00    +0.000 HD
ENDBRANCH  18  22
BRANCH  21  24
ATOM     24  O   UNL     1       5.550   7.007  15.918  0.00  0.00    +0.000 OA
ATOM     25  H   UNL     1       6.017   6.632  15.149  0.00  0.00    +0.000 HD
ENDBRANCH  21  24
ENDBRANCH  15  16
ENDBRANCH   1  15
TORSDOF 8
ENDMDL
MODEL 4
REMARK VINA RESULT:      -6.6      1.645      2.309
REMARK  Name = 
REMARK  10 active torsions:
REMARK  status: ('A' for Active; 'I' for Inactive)
REMARK    1  A    between atoms: C_1  and  O_2
REMARK    2  A    between atoms: O_2  and  P_3
REMARK    3  A    between atoms: P_3  and  O_5
REMARK    4  A    between atoms: P_3  and  C_7
REMARK    5  A    between atoms: O_5  and  C_6
REMARK    6  A    between atoms: C_10  and  N_11
REMARK    7  A    between atoms: N_11  and  C_12
REMARK    8  A    between atoms: C_12  and  C_13
REMARK    9  A    between atoms: C_15  and  O_16
REMARK   10  A    between atoms: C_19  and  O_20
REMARK                            x       y       z     vdW  Elec       q    Type
REMARK                         _______ _______ _______ _____ _____    ______ ____
ROOT
ATOM      1  N   UNL     1       3.099   5.704  19.028  0.00  0.00    +0.000 N 
ATOM      2  H   UNL     1       2.394   4.985  19.163  0.00  0.00    +0.000 HD
ENDROOT
BRANCH   1   6
ATOM      3  C   UNL     1       1.131   9.459  19.058  0.00  0.00    +0.000 A 
ATOM      4  C   UNL     1       1.731   8.972  17.896  0.00  0.00    +0.000 A 
ATOM      5  C   UNL     1       2.408   7.744  17.921  0.00  0.00    +0.000 A 
ATOM      6  C   UNL     1       2.525   6.985  19.099  0.00  0.00    +0.000 A 
ATOM      7  C   UNL     1       1.915   7.481  20.251  0.00  0.00    +0.000 A 
ATOM      8  C   UNL     1       1.258   8.711  20.241  0.00  0.00    +0.000 A 
BRANCH   3   9
ATOM      9  P   UNL     1      -0.030  10.873  19.000  0.00  0.00    +0.000 P 
ATOM     10  O   UNL     1       1.156  11.844  18.867  0.00  0.00    +0.000 OA
BRANCH   9  12
ATOM     11  C   UNL     1      -2.481  11.807  18.863  0.00  0.00    +0.000 C 
ATOM     12  O   UNL     1      -1.127  12.210  18.946  0.00  0.00    +0.000 OA
ENDBRANCH   9  12
BRANCH   9  13
ATOM     13  O   UNL     1      -0.407  10.707  20.605  0.00  0.00    +0.000 OA
ATOM     14  C   UNL     1      -0.030  11.760  21.471  0.00  0.00    +0.000 C 
ENDBRANCH   9  13
ENDBRANCH   3   9
ENDBRANCH   1   6
BRANCH   1  15
ATOM     15  C   UNL     1       3.916   5.405  17.846  0.00  0.00    +0.000 C 
BRANCH  15  16
ATOM     16  C   UNL     1       5.372   5.744  18.076  0.00  0.00    +0.000 A 
ATOM     17  C   UNL     1       6.036   5.366  19.255  0.00  0.00    +0.000 A 
ATOM     18  C   UNL     1       7.358   5.750  19.469  0.00  0.00    +0.000 A 
ATOM     19  C   UNL     1       8.038   6.518  18.535  0.00  0.00    +0.000 A 
ATOM     20  C   UNL     1       7.389   6.926  17.372  0.00  0.00    +0.000 A 
ATOM     21  C   UNL     1       6.065   6.544  17.155  0.00  0.00    +0.000 A 
BRANCH  18  22
ATOM     22  O   UNL     1       8.025   5.398  20.604  0.00  0.00    +0.000 OA
ATOM     23  H   UNL     1       8.124   4.431  20.616  0.00  0.00    +0.000 HD
ENDBRANCH  18  22
BRANCH  21  24
ATOM     24  O   UNL     1       5.411   6.967  16.031  0.00  0.00    +0.000 OA
ATOM     25  H   UNL     1       4.656   7.524  16.296  0.00  0.00    +0.000 HD
ENDBRANCH  21  24
ENDBRANCH  15  16
ENDBRANCH   1  15
TORSDOF 8
ENDMDL
MODEL 5
REMARK VINA RESULT:      -6.6      1.332      2.022
REMARK  Name = 
REMARK  10 active torsions:
REMARK  status: ('A' for Active; 'I' for Inactive)
REMARK    1  A    between atoms: C_1  and  O_2
REMARK    2  A    between atoms: O_2  and  P_3
REMARK    3  A    between atoms: P_3  and  O_5
REMARK    4  A    between atoms: P_3  and  C_7
REMARK    5  A    between atoms: O_5  and  C_6
REMARK    6  A    between atoms: C_10  and  N_11
REMARK    7  A    between atoms: N_11  and  C_12
REMARK    8  A    between atoms: C_12  and  C_13
REMARK    9  A    between atoms: C_15  and  O_16
REMARK   10  A    between atoms: C_19  and  O_20
REMARK                            x       y       z     vdW  Elec       q    Type
REMARK                         _______ _______ _______ _____ _____    ______ ____
ROOT
ATOM      1  N   UNL     1       3.556   4.657  17.936  0.00  0.00    +0.000 N 
ATOM      2  H   UNL     1       2.937   3.949  17.549  0.00  0.00    +0.000 HD
ENDROOT
BRANCH   1   6
ATOM      3  C   UNL     1       1.577   7.629  20.222  0.00  0.00    +0.000 A 
ATOM      4  C   UNL     1       1.701   6.322  20.696  0.00  0.00    +0.000 A 
ATOM      5  C   UNL     1       2.327   5.348  19.905  0.00  0.00    +0.000 A 
ATOM      6  C   UNL     1       2.823   5.640  18.622  0.00  0.00    +0.000 A 
ATOM      7  C   UNL     1       2.698   6.951  18.164  0.00  0.00    +0.000 A 
ATOM      8  C   UNL     1       2.058   7.922  18.934  0.00  0.00    +0.000 A 
BRANCH   3   9
ATOM      9  P   UNL     1       1.072   8.993  21.333  0.00  0.00    +0.000 P 
ATOM     10  O   UNL     1      -0.331   8.374  21.459  0.00  0.00    +0.000 OA
BRANCH   9  12
ATOM     11  C   UNL     1      -0.426   9.905  23.289  0.00  0.00    +0.000 C 
ATOM     12  O   UNL     1       0.595  10.282  22.383  0.00  0.00    +0.000 OA
ENDBRANCH   9  12
BRANCH   9  13
ATOM     13  O   UNL     1       1.066  10.086  20.088  0.00  0.00    +0.000 OA
ATOM     14  C   UNL     1       0.449  11.336  20.328  0.00  0.00    +0.000 C 
ENDBRANCH   9  13
ENDBRANCH   3   9
ENDBRANCH   1   6
BRANCH   1  15
ATOM     15  C   UNL     1       4.502   5.123  16.915  0.00  0.00    +0.000 C 
BRANCH  15  16
ATOM     16  C   UNL     1       5.733   5.740  17.539  0.00  0.00    +0.000 A 
ATOM     17  C   UNL     1       6.223   6.989  17.117  0.00  0.00    +0.000 A 
ATOM     18  C   UNL     1       7.398   7.502  17.662  0.00  0.00    +0.000 A 
ATOM     19  C   UNL     1       8.111   6.791  18.617  0.00  0.00    +0.000 A 
ATOM     20  C   UNL     1       7.657   5.541  19.029  0.00  0.00    +0.000 A 
ATOM     21  C   UNL     1       6.482   5.023  18.485  0.00  0.00    +0.000 A 
BRANCH  18  22
ATOM     22  O   UNL     1       7.895   8.709  17.270  0.00  0.00    +0.000 OA
ATOM     23  H   UNL     1       8.766   8.567  16.867  0.00  0.00    +0.000 HD
ENDBRANCH  18  22
BRANCH  21  24
ATOM     24  O   UNL     1       6.047   3.782  18.860  0.00  0.00    +0.000 OA
ATOM     25  H   UNL     1       5.484   3.871  19.651  0.00  0.00    +0.000 HD
ENDBRANCH  21  24
ENDBRANCH  15  16
ENDBRANCH   1  15
TORSDOF 8
ENDMDL
MODEL 6
REMARK VINA RESULT:      -6.5      1.557      2.324
REMARK  Name = 
REMARK  10 active torsions:
REMARK  status: ('A' for Active; 'I' for Inactive)
REMARK    1  A    between atoms: C_1  and  O_2
REMARK    2  A    between atoms: O_2  and  P_3
REMARK    3  A    between atoms: P_3  and  O_5
REMARK    4  A    between atoms: P_3  and  C_7
REMARK    5  A    between atoms: O_5  and  C_6
REMARK    6  A    between atoms: C_10  and  N_11
REMARK    7  A    between atoms: N_11  and  C_12
REMARK    8  A    between atoms: C_12  and  C_13
REMARK    9  A    between atoms: C_15  and  O_16
REMARK   10  A    between atoms: C_19  and  O_20
REMARK                            x       y       z     vdW  Elec       q    Type
REMARK                         _______ _______ _______ _____ _____    ______ ____
ROOT
ATOM      1  N   UNL     1       3.139   5.199  18.193  0.00  0.00    +0.000 N 
ATOM      2  H   UNL     1       2.370   4.612  17.878  0.00  0.00    +0.000 HD
ENDROOT
BRANCH   1   6
ATOM      3  C   UNL     1       1.414   8.720  19.806  0.00  0.00    +0.000 A 
ATOM      4  C   UNL     1       1.824   8.666  18.473  0.00  0.00    +0.000 A 
ATOM      5  C   UNL     1       2.425   7.502  17.973  0.00  0.00    +0.000 A 
ATOM      6  C   UNL     1       2.655   6.378  18.785  0.00  0.00    +0.000 A 
ATOM      7  C   UNL     1       2.234   6.443  20.113  0.00  0.00    +0.000 A 
ATOM      8  C   UNL     1       1.655   7.604  20.626  0.00  0.00    +0.000 A 
BRANCH   3   9
ATOM      9  P   UNL     1       0.341  10.074  20.411  0.00  0.00    +0.000 P 
ATOM     10  O   UNL     1       1.205  11.099  19.656  0.00  0.00    +0.000 OA
BRANCH   9  12
ATOM     11  C   UNL     1      -0.464  12.571  20.291  0.00  0.00    +0.000 C 
ATOM     12  O   UNL     1      -0.673  11.353  20.982  0.00  0.00    +0.000 OA
ENDBRANCH   9  12
BRANCH   9  13
ATOM     13  O   UNL     1       0.918   9.922  21.957  0.00  0.00    +0.000 OA
ATOM     14  C   UNL     1      -0.036   9.767  22.990  0.00  0.00    +0.000 C 
ENDBRANCH   9  13
ENDBRANCH   3   9
ENDBRANCH   1   6
BRANCH   1  15
ATOM     15  C   UNL     1       4.138   5.350  17.129  0.00  0.00    +0.000 C 
BRANCH  15  16
ATOM     16  C   UNL     1       5.465   5.826  17.676  0.00  0.00    +0.000 A 
ATOM     17  C   UNL     1       6.061   7.017  17.225  0.00  0.00    +0.000 A 
ATOM     18  C   UNL     1       7.315   7.396  17.697  0.00  0.00    +0.000 A 
ATOM     19  C   UNL     1       8.003   6.606  18.607  0.00  0.00    +0.000 A 
ATOM     20  C   UNL     1       7.442   5.410  19.047  0.00  0.00    +0.000 A 
ATOM     21  C   UNL     1       6.187   5.026  18.575  0.00  0.00    +0.000 A 
BRANCH  18  22
ATOM     22  O   UNL     1       7.915   8.545  17.276  0.00  0.00    +0.000 OA
ATOM     23  H   UNL     1       7.272   9.056  16.758  0.00  0.00    +0.000 HD
ENDBRANCH  18  22
BRANCH  21  24
ATOM     24  O   UNL     1       5.644   3.837  18.976  0.00  0.00    +0.000 OA
ATOM     25  H   UNL     1       6.114   3.109  18.531  0.00  0.00    +0.000 HD
ENDBRANCH  21  24
ENDBRANCH  15  16
ENDBRANCH   1  15
TORSDOF 8
ENDMDL
MODEL 7
REMARK VINA RESULT:      -6.5      1.455      2.331
REMARK  Name = 
REMARK  10 active torsions:
REMARK  status: ('A' for Active; 'I' for Inactive)
REMARK    1  A    between atoms: C_1  and  O_2
REMARK    2  A    between atoms: O_2  and  P_3
REMARK    3  A    between atoms: P_3  and  O_5
REMARK    4  A    between atoms: P_3  and  C_7
REMARK    5  A    between atoms: O_5  and  C_6
REMARK    6  A    between atoms: C_10  and  N_11
REMARK    7  A    between atoms: N_11  and  C_12
REMARK    8  A    between atoms: C_12  and  C_13
REMARK    9  A    between atoms: C_15  and  O_16
REMARK   10  A    between atoms: C_19  and  O_20
REMARK                            x       y       z     vdW  Elec       q    Type
REMARK                         _______ _______ _______ _____ _____    ______ ____
ROOT
ATOM      1  N   UNL     1       3.326   7.034  17.490  0.00  0.00    +0.000 N 
ATOM      2  H   UNL     1       4.213   7.503  17.322  0.00  0.00    +0.000 HD
ENDROOT
BRANCH   1   6
ATOM      3  C   UNL     1       1.019   9.511  20.042  0.00  0.00    +0.000 A 
ATOM      4  C   UNL     1       1.498   8.275  20.480  0.00  0.00    +0.000 A 
ATOM      5  C   UNL     1       2.228   7.458  19.606  0.00  0.00    +0.000 A 
ATOM      6  C   UNL     1       2.479   7.834  18.274  0.00  0.00    +0.000 A 
ATOM      7  C   UNL     1       2.000   9.074  17.851  0.00  0.00    +0.000 A 
ATOM      8  C   UNL     1       1.255   9.885  18.708  0.00  0.00    +0.000 A 
BRANCH   3   9
ATOM      9  P   UNL     1       0.358  10.741  21.225  0.00  0.00    +0.000 P 
ATOM     10  O   UNL     1       1.486  11.716  20.846  0.00  0.00    +0.000 OA
BRANCH   9  12
ATOM     11  C   UNL     1      -1.203  12.788  21.751  0.00  0.00    +0.000 C 
ATOM     12  O   UNL     1      -0.268  11.904  22.343  0.00  0.00    +0.000 OA
ENDBRANCH   9  12
BRANCH   9  13
ATOM     13  O   UNL     1       0.844   9.840  22.528  0.00  0.00    +0.000 OA
ATOM     14  C   UNL     1      -0.140   9.510  23.488  0.00  0.00    +0.000 C 
ENDBRANCH   9  13
ENDBRANCH   3   9
ENDBRANCH   1   6
BRANCH   1  15
ATOM     15  C   UNL     1       3.554   5.658  17.947  0.00  0.00    +0.000 C 
BRANCH  15  16
ATOM     16  C   UNL     1       5.030   5.339  18.034  0.00  0.00    +0.000 A 
ATOM     17  C   UNL     1       5.755   5.535  19.223  0.00  0.00    +0.000 A 
ATOM     18  C   UNL     1       7.127   5.296  19.255  0.00  0.00    +0.000 A 
ATOM     19  C   UNL     1       7.804   4.875  18.119  0.00  0.00    +0.000 A 
ATOM     20  C   UNL     1       7.109   4.700  16.925  0.00  0.00    +0.000 A 
ATOM     21  C   UNL     1       5.736   4.939  16.888  0.00  0.00    +0.000 A 
BRANCH  18  22
ATOM     22  O   UNL     1       7.854   5.479  20.393  0.00  0.00    +0.000 OA
ATOM     23  H   UNL     1       7.250   5.756  21.102  0.00  0.00    +0.000 HD
ENDBRANCH  18  22
BRANCH  21  24
ATOM     24  O   UNL     1       5.052   4.801  15.713  0.00  0.00    +0.000 OA
ATOM     25  H   UNL     1       4.733   3.884  15.640  0.00  0.00    +0.000 HD
ENDBRANCH  21  24
ENDBRANCH  15  16
ENDBRANCH   1  15
TORSDOF 8
ENDMDL
MODEL 8
REMARK VINA RESULT:      -6.4      1.218      1.356
REMARK  Name = 
REMARK  10 active torsions:
REMARK  status: ('A' for Active; 'I' for Inactive)
REMARK    1  A    between atoms: C_1  and  O_2
REMARK    2  A    between atoms: O_2  and  P_3
REMARK    3  A    between atoms: P_3  and  O_5
REMARK    4  A    between atoms: P_3  and  C_7
REMARK    5  A    between atoms: O_5  and  C_6
REMARK    6  A    between atoms: C_10  and  N_11
REMARK    7  A    between atoms: N_11  and  C_12
REMARK    8  A    between atoms: C_12  and  C_13
REMARK    9  A    between atoms: C_15  and  O_16
REMARK   10  A    between atoms: C_19  and  O_20
REMARK                            x       y       z     vdW  Elec       q    Type
REMARK                         _______ _______ _______ _____ _____    ______ ____
ROOT
ATOM      1  N   UNL     1       2.974   6.173  17.616  0.00  0.00    +0.000 N 
ATOM      2  H   UNL     1       3.667   6.543  16.970  0.00  0.00    +0.000 HD
ENDROOT
BRANCH   1   6
ATOM      3  C   UNL     1       1.177   9.218  19.954  0.00  0.00    +0.000 A 
ATOM      4  C   UNL     1       1.466   9.425  18.605  0.00  0.00    +0.000 A 
ATOM      5  C   UNL     1       2.094   8.416  17.861  0.00  0.00    +0.000 A 
ATOM      6  C   UNL     1       2.470   7.192  18.442  0.00  0.00    +0.000 A 
ATOM      7  C   UNL     1       2.170   6.996  19.790  0.00  0.00    +0.000 A 
ATOM      8  C   UNL     1       1.565   8.002  20.543  0.00  0.00    +0.000 A 
BRANCH   3   9
ATOM      9  P   UNL     1       0.077  10.359  20.870  0.00  0.00    +0.000 P 
ATOM     10  O   UNL     1      -0.327   9.214  21.816  0.00  0.00    +0.000 OA
BRANCH   9  12
ATOM     11  C   UNL     1      -1.242  10.994  23.052  0.00  0.00    +0.000 C 
ATOM     12  O   UNL     1      -0.964  11.437  21.736  0.00  0.00    +0.000 OA
ENDBRANCH   9  12
BRANCH   9  13
ATOM     13  O   UNL     1      -1.004  10.422  19.615  0.00  0.00    +0.000 OA
ATOM     14  C   UNL     1      -1.355  11.703  19.129  0.00  0.00    +0.000 C 
ENDBRANCH   9  13
ENDBRANCH   3   9
ENDBRANCH   1   6
BRANCH   1  15
ATOM     15  C   UNL     1       3.485   4.969  18.280  0.00  0.00    +0.000 C 
BRANCH  15  16
ATOM     16  C   UNL     1       4.996   4.904  18.229  0.00  0.00    +0.000 A 
ATOM     17  C   UNL     1       5.784   5.261  19.337  0.00  0.00    +0.000 A 
ATOM     18  C   UNL     1       7.174   5.256  19.239  0.00  0.00    +0.000 A 
ATOM     19  C   UNL     1       7.804   4.913  18.051  0.00  0.00    +0.000 A 
ATOM     20  C   UNL     1       7.041   4.581  16.934  0.00  0.00    +0.000 A 
ATOM     21  C   UNL     1       5.649   4.587  17.028  0.00  0.00    +0.000 A 
BRANCH  18  22
ATOM     22  O   UNL     1       7.962   5.599  20.297  0.00  0.00    +0.000 OA
ATOM     23  H   UNL     1       7.877   4.913  20.979  0.00  0.00    +0.000 HD
ENDBRANCH  18  22
BRANCH  21  24
ATOM     24  O   UNL     1       4.892   4.294  15.927  0.00  0.00    +0.000 OA
ATOM     25  H   UNL     1       5.259   3.502  15.494  0.00  0.00    +0.000 HD
ENDBRANCH  21  24
ENDBRANCH  15  16
ENDBRANCH   1  15
TORSDOF 8
ENDMDL
MODEL 9
REMARK VINA RESULT:      -6.4      2.188      3.836
REMARK  Name = 
REMARK  10 active torsions:
REMARK  status: ('A' for Active; 'I' for Inactive)
REMARK    1  A    between atoms: C_1  and  O_2
REMARK    2  A    between atoms: O_2  and  P_3
REMARK    3  A    between atoms: P_3  and  O_5
REMARK    4  A    between atoms: P_3  and  C_7
REMARK    5  A    between atoms: O_5  and  C_6
REMARK    6  A    between atoms: C_10  and  N_11
REMARK    7  A    between atoms: N_11  and  C_12
REMARK    8  A    between atoms: C_12  and  C_13
REMARK    9  A    between atoms: C_15  and  O_16
REMARK   10  A    between atoms: C_19  and  O_20
REMARK                            x       y       z     vdW  Elec       q    Type
REMARK                         _______ _______ _______ _____ _____    ______ ____
ROOT
ATOM      1  N   UNL     1       4.167   6.420  18.140  0.00  0.00    +0.000 N 
ATOM      2  H   UNL     1       4.694   6.042  18.923  0.00  0.00    +0.000 HD
ENDROOT
BRANCH   1   6
ATOM      3  C   UNL     1       1.106   8.879  19.740  0.00  0.00    +0.000 A 
ATOM      4  C   UNL     1       1.572   7.765  20.440  0.00  0.00    +0.000 A 
ATOM      5  C   UNL     1       2.559   6.946  19.874  0.00  0.00    +0.000 A 
ATOM      6  C   UNL     1       3.088   7.198  18.595  0.00  0.00    +0.000 A 
ATOM      7  C   UNL     1       2.618   8.318  17.910  0.00  0.00    +0.000 A 
ATOM      8  C   UNL     1       1.621   9.126  18.456  0.00  0.00    +0.000 A 
BRANCH   3   9
ATOM      9  P   UNL     1       0.074  10.147  20.563  0.00  0.00    +0.000 P 
ATOM     10  O   UNL     1       1.344  10.889  21.018  0.00  0.00    +0.000 OA
BRANCH   9  12
ATOM     11  C   UNL     1      -1.598  12.169  20.422  0.00  0.00    +0.000 C 
ATOM     12  O   UNL     1      -0.901  11.346  21.341  0.00  0.00    +0.000 OA
ENDBRANCH   9  12
BRANCH   9  13
ATOM     13  O   UNL     1      -0.384   9.090  21.753  0.00  0.00    +0.000 OA
ATOM     14  C   UNL     1      -0.383   9.573  23.083  0.00  0.00    +0.000 C 
ENDBRANCH   9  13
ENDBRANCH   3   9
ENDBRANCH   1   6
BRANCH   1  15
ATOM     15  C   UNL     1       3.861   5.362  17.170  0.00  0.00    +0.000 C 
BRANCH  15  16
ATOM     16  C   UNL     1       3.348   4.114  17.853  0.00  0.00    +0.000 A 
ATOM     17  C   UNL     1       1.989   3.758  17.808  0.00  0.00    +0.000 A 
ATOM     18  C   UNL     1       1.533   2.639  18.502  0.00  0.00    +0.000 A 
ATOM     19  C   UNL     1       2.403   1.866  19.258  0.00  0.00    +0.000 A 
ATOM     20  C   UNL     1       3.749   2.216  19.337  0.00  0.00    +0.000 A 
ATOM     21  C   UNL     1       4.208   3.337  18.644  0.00  0.00    +0.000 A 
BRANCH  18  22
ATOM     22  O   UNL     1       0.221   2.273  18.476  0.00  0.00    +0.000 OA
ATOM     23  H   UNL     1       0.009   1.950  17.585  0.00  0.00    +0.000 HD
ENDBRANCH  18  22
BRANCH  21  24
ATOM     24  O   UNL     1       5.521   3.706  18.743  0.00  0.00    +0.000 OA
ATOM     25  H   UNL     1       5.998   3.388  17.955  0.00  0.00    +0.000 HD
ENDBRANCH  21  24
ENDBRANCH  15  16
ENDBRANCH   1  15
TORSDOF 8
ENDMDL
