MODEL 1
REMARK VINA RESULT:      -8.8      0.000      0.000
REMARK  Name = 
REMARK  8 active torsions:
REMARK  status: ('A' for Active; 'I' for Inactive)
REMARK    1  A    between atoms: C_2  and  C_3
REMARK    2  A    between atoms: C_4  and  C_5
REMARK    3  A    between atoms: C_7  and  N_8
REMARK    4  A    between atoms: C_14  and  C_16
REMARK    5  A    between atoms: C_26  and  O_27
REMARK    6  A    between atoms: C_28  and  O_29
REMARK    7  A    between atoms: N_30  and  C_31
REMARK    8  A    between atoms: C_31  and  C_32
REMARK                            x       y       z     vdW  Elec       q    Type
REMARK                         _______ _______ _______ _____ _____    ______ ____
ROOT
ATOM      1  C   UNL     1      -3.530  12.975  22.741  0.00  0.00    +0.000 C 
ATOM      2  O   UNL     1      -2.724  11.869  23.184  0.00  0.00    +0.000 OA
ATOM      3  C   UNL     1      -1.330  12.231  23.115  0.00  0.00    +0.000 C 
ATOM      4  C   UNL     1      -1.237  13.607  22.449  0.00  0.00    +0.000 C 
ATOM      5  C   UNL     1      -2.606  14.201  22.733  0.00  0.00    +0.000 C 
ENDROOT
BRANCH   3   6
ATOM      6  N   UNL     1      -0.613  11.155  22.455  0.00  0.00    +0.000 N 
ATOM      7  C   UNL     1      -0.275   9.924  22.960  0.00  0.00    +0.000 A 
ATOM      8  N   UNL     1       0.377   9.186  22.089  0.00  0.00    +0.000 NA
ATOM      9  C   UNL     1       0.483   9.981  20.966  0.00  0.00    +0.000 A 
ATOM     10  C   UNL     1       1.071   9.777  19.709  0.00  0.00    +0.000 A 
ATOM     11  N   UNL     1       1.680   8.544  19.429  0.00  0.00    +0.000 N 
ATOM     12  C   UNL     1       2.262   8.222  18.221  0.00  0.00    +0.000 C 
ATOM     13  O   UNL     1       2.324   8.941  17.228  0.00  0.00    +0.000 OA
ATOM     14  N   UNL     1       1.032  10.786  18.812  0.00  0.00    +0.000 NA
ATOM     15  C   UNL     1       0.419  11.936  19.152  0.00  0.00    +0.000 A 
ATOM     16  N   UNL     1      -0.192  12.237  20.314  0.00  0.00    +0.000 NA
ATOM     17  C   UNL     1      -0.118  11.212  21.178  0.00  0.00    +0.000 A 
ATOM     18  H   UNL     1       1.606   7.858  20.168  0.00  0.00    +0.000 HD
BRANCH  12  19
ATOM     19  C   UNL     1       2.843   6.853  18.116  0.00  0.00    +0.000 A 
ATOM     20  C   UNL     1       2.133   5.792  18.697  0.00  0.00    +0.000 A 
ATOM     21  C   UNL     1       2.617   4.485  18.614  0.00  0.00    +0.000 A 
ATOM     22  C   UNL     1       3.810   4.232  17.944  0.00  0.00    +0.000 A 
ATOM     23  C   UNL     1       4.518   5.278  17.353  0.00  0.00    +0.000 A 
ATOM     24  C   UNL     1       4.037   6.588  17.432  0.00  0.00    +0.000 A 
ENDBRANCH  12  19
ENDBRANCH   3   6
BRANCH   1  26
ATOM     25  C   UNL     1      -5.495  12.609  21.177  0.00  0.00    +0.000 C 
ATOM     26  C   UNL     1      -4.172  12.633  21.423  0.00  0.00    +0.000 C 
BRANCH  25  28
ATOM     27  O   UNL     1      -7.191  12.034  19.616  0.00  0.00    +0.000 OA
ATOM     28  C   UNL     1      -6.021  12.332  19.816  0.00  0.00    +0.000 C 
ATOM     29  N   UNL     1      -5.063  12.438  18.841  0.00  0.00    +0.000 N 
ATOM     30  H   UNL     1      -4.105  12.669  19.071  0.00  0.00    +0.000 HD
BRANCH  29  31
ATOM     31  C   UNL     1      -5.340  12.203  17.430  0.00  0.00    +0.000 C 
BRANCH  31  32
ATOM     32  C   UNL     1      -4.587  10.983  16.887  0.00  0.00    +0.000 C 
ATOM     33  C   UNL     1      -3.445  10.503  17.768  0.00  0.00    +0.000 C 
ATOM     34  C   UNL     1      -2.519   9.857  16.768  0.00  0.00    +0.000 C 
ATOM     35  C   UNL     1      -2.690  10.735  15.547  0.00  0.00    +0.000 C 
ATOM     36  O   UNL     1      -4.012  11.289  15.598  0.00  0.00    +0.000 OA
ENDBRANCH  31  32
ENDBRANCH  29  31
ENDBRANCH  25  28
ENDBRANCH   1  26
BRANCH   4  37
ATOM     37  O   UNL     1      -0.185  14.405  22.991  0.00  0.00    +0.000 OA
ATOM     38  H   UNL     1      -0.189  15.248  22.489  0.00  0.00    +0.000 HD
ENDBRANCH   4  37
BRANCH   5  39
ATOM     39  O   UNL     1      -2.557  14.850  24.018  0.00  0.00    +0.000 OA
ATOM     40  H   UNL     1      -1.843  15.514  24.014  0.00  0.00    +0.000 HD
ENDBRANCH   5  39
TORSDOF 8
ENDMDL
MODEL 2
REMARK VINA RESULT:      -8.6      0.956      1.081
REMARK  Name = 
REMARK  8 active torsions:
REMARK  status: ('A' for Active; 'I' for Inactive)
REMARK    1  A    between atoms: C_2  and  C_3
REMARK    2  A    between atoms: C_4  and  C_5
REMARK    3  A    between atoms: C_7  and  N_8
REMARK    4  A    between atoms: C_14  and  C_16
REMARK    5  A    between atoms: C_26  and  O_27
REMARK    6  A    between atoms: C_28  and  O_29
REMARK    7  A    between atoms: N_30  and  C_31
REMARK    8  A    between atoms: C_31  and  C_32
REMARK                            x       y       z     vdW  Elec       q    Type
REMARK                         _______ _______ _______ _____ _____    ______ ____
ROOT
ATOM      1  C   UNL     1      -4.075  13.266  22.851  0.00  0.00    +0.000 C 
ATOM      2  O   UNL     1      -3.420  12.032  23.195  0.00  0.00    +0.000 OA
ATOM      3  C   UNL     1      -2.038  12.294  23.517  0.00  0.00    +0.000 C 
ATOM      4  C   UNL     1      -1.762  13.771  23.221  0.00  0.00    +0.000 C 
ATOM      5  C   UNL     1      -3.144  14.390  23.326  0.00  0.00    +0.000 C 
ENDROOT
BRANCH   3   6
ATOM      6  N   UNL     1      -1.215  11.336  22.802  0.00  0.00    +0.000 N 
ATOM      7  C   UNL     1      -0.697  10.150  23.261  0.00  0.00    +0.000 A 
ATOM      8  N   UNL     1       0.009   9.523  22.346  0.00  0.00    +0.000 NA
ATOM      9  C   UNL     1      -0.040  10.347  21.241  0.00  0.00    +0.000 A 
ATOM     10  C   UNL     1       0.515  10.248  19.957  0.00  0.00    +0.000 A 
ATOM     11  N   UNL     1       1.268   9.112  19.621  0.00  0.00    +0.000 N 
ATOM     12  C   UNL     1       1.835   8.895  18.383  0.00  0.00    +0.000 C 
ATOM     13  O   UNL     1       1.759   9.635  17.407  0.00  0.00    +0.000 OA
ATOM     14  N   UNL     1       0.305  11.261  19.088  0.00  0.00    +0.000 NA
ATOM     15  C   UNL     1      -0.438  12.312  19.481  0.00  0.00    +0.000 A 
ATOM     16  N   UNL     1      -1.033  12.506  20.674  0.00  0.00    +0.000 NA
ATOM     17  C   UNL     1      -0.788  11.483  21.508  0.00  0.00    +0.000 A 
ATOM     18  H   UNL     1       1.317   8.408  20.344  0.00  0.00    +0.000 HD
BRANCH  12  19
ATOM     19  C   UNL     1       2.586   7.617  18.220  0.00  0.00    +0.000 A 
ATOM     20  C   UNL     1       2.124   6.490  18.916  0.00  0.00    +0.000 A 
ATOM     21  C   UNL     1       2.774   5.261  18.787  0.00  0.00    +0.000 A 
ATOM     22  C   UNL     1       3.886   5.151  17.957  0.00  0.00    +0.000 A 
ATOM     23  C   UNL     1       4.346   6.263  17.252  0.00  0.00    +0.000 A 
ATOM     24  C   UNL     1       3.698   7.495  17.376  0.00  0.00    +0.000 A 
ENDBRANCH  12  19
ENDBRANCH   3   6
BRANCH   1  26
ATOM     25  C   UNL     1      -5.209  12.389  20.757  0.00  0.00    +0.000 C 
ATOM     26  C   UNL     1      -4.404  13.268  21.382  0.00  0.00    +0.000 C 
BRANCH  25  28
ATOM     27  O   UNL     1      -6.135  13.494  18.869  0.00  0.00    +0.000 OA
ATOM     28  C   UNL     1      -5.528  12.529  19.313  0.00  0.00    +0.000 C 
ATOM     29  N   UNL     1      -5.081  11.473  18.562  0.00  0.00    +0.000 N 
ATOM     30  H   UNL     1      -4.601  10.691  18.991  0.00  0.00    +0.000 HD
BRANCH  29  31
ATOM     31  C   UNL     1      -5.286  11.382  17.123  0.00  0.00    +0.000 C 
BRANCH  31  32
ATOM     32  C   UNL     1      -3.963  11.289  16.354  0.00  0.00    +0.000 C 
ATOM     33  C   UNL     1      -3.988  10.339  15.167  0.00  0.00    +0.000 C 
ATOM     34  C   UNL     1      -2.544   9.916  15.066  0.00  0.00    +0.000 C 
ATOM     35  C   UNL     1      -2.110   9.876  16.515  0.00  0.00    +0.000 C 
ATOM     36  O   UNL     1      -2.912  10.827  17.230  0.00  0.00    +0.000 OA
ENDBRANCH  31  32
ENDBRANCH  29  31
ENDBRANCH  25  28
ENDBRANCH   1  26
BRANCH   4  37
ATOM     37  O   UNL     1      -0.844  14.350  24.148  0.00  0.00    +0.000 OA
ATOM     38  H   UNL     1      -0.402  13.604  24.605  0.00  0.00    +0.000 HD
ENDBRANCH   4  37
BRANCH   5  39
ATOM     39  O   UNL     1      -3.376  14.740  24.705  0.00  0.00    +0.000 OA
ATOM     40  H   UNL     1      -2.842  14.159  25.277  0.00  0.00    +0.000 HD
ENDBRANCH   5  39
TORSDOF 8
ENDMDL
MODEL 3
REMARK VINA RESULT:      -8.4      4.134     10.707
REMARK  Name = 
REMARK  8 active torsions:
REMARK  status: ('A' for Active; 'I' for Inactive)
REMARK    1  A    between atoms: C_2  and  C_3
REMARK    2  A    between atoms: C_4  and  C_5
REMARK    3  A    between atoms: C_7  and  N_8
REMARK    4  A    between atoms: C_14  and  C_16
REMARK    5  A    between atoms: C_26  and  O_27
REMARK    6  A    between atoms: C_28  and  O_29
REMARK    7  A    between atoms: N_30  and  C_31
REMARK    8  A    between atoms: C_31  and  C_32
REMARK                            x       y       z     vdW  Elec       q    Type
REMARK                         _______ _______ _______ _____ _____    ______ ____
ROOT
ATOM      1  C   UNL     1       4.261   3.486  17.793  0.00  0.00    +0.000 C 
ATOM      2  O   UNL     1       4.010   4.511  18.771  0.00  0.00    +0.000 OA
ATOM      3  C   UNL     1       2.601   4.821  18.792  0.00  0.00    +0.000 C 
ATOM      4  C   UNL     1       1.934   4.043  17.654  0.00  0.00    +0.000 C 
ATOM      5  C   UNL     1       2.893   2.884  17.444  0.00  0.00    +0.000 C 
ENDROOT
BRANCH   3   6
ATOM      6  N   UNL     1       2.452   6.264  18.750  0.00  0.00    +0.000 N 
ATOM      7  C   UNL     1       2.878   7.135  17.778  0.00  0.00    +0.000 A 
ATOM      8  N   UNL     1       2.578   8.384  18.055  0.00  0.00    +0.000 NA
ATOM      9  C   UNL     1       1.937   8.327  19.276  0.00  0.00    +0.000 A 
ATOM     10  C   UNL     1       1.385   9.312  20.107  0.00  0.00    +0.000 A 
ATOM     11  N   UNL     1       1.419  10.654  19.696  0.00  0.00    +0.000 N 
ATOM     12  C   UNL     1       0.883  11.701  20.415  0.00  0.00    +0.000 C 
ATOM     13  O   UNL     1       0.297  11.621  21.491  0.00  0.00    +0.000 OA
ATOM     14  N   UNL     1       0.841   8.929  21.283  0.00  0.00    +0.000 NA
ATOM     15  C   UNL     1       0.837   7.622  21.602  0.00  0.00    +0.000 A 
ATOM     16  N   UNL     1       1.318   6.591  20.880  0.00  0.00    +0.000 NA
ATOM     17  C   UNL     1       1.859   7.019  19.728  0.00  0.00    +0.000 A 
ATOM     18  H   UNL     1       1.816  10.805  18.778  0.00  0.00    +0.000 HD
BRANCH  12  19
ATOM     19  C   UNL     1       1.008  13.053  19.799  0.00  0.00    +0.000 A 
ATOM     20  C   UNL     1      -0.094  13.919  19.886  0.00  0.00    +0.000 A 
ATOM     21  C   UNL     1      -0.030  15.204  19.346  0.00  0.00    +0.000 A 
ATOM     22  C   UNL     1       1.139  15.634  18.722  0.00  0.00    +0.000 A 
ATOM     23  C   UNL     1       2.243  14.786  18.642  0.00  0.00    +0.000 A 
ATOM     24  C   UNL     1       2.184  13.498  19.182  0.00  0.00    +0.000 A 
ENDBRANCH  12  19
ENDBRANCH   3   6
BRANCH   1  26
ATOM     25  C   UNL     1       6.338   4.391  16.649  0.00  0.00    +0.000 C 
ATOM     26  C   UNL     1       5.030   4.070  16.638  0.00  0.00    +0.000 C 
BRANCH  25  28
ATOM     27  O   UNL     1       7.712   5.898  15.431  0.00  0.00    +0.000 OA
ATOM     28  C   UNL     1       7.018   4.891  15.426  0.00  0.00    +0.000 C 
ATOM     29  N   UNL     1       6.772   4.115  14.323  0.00  0.00    +0.000 N 
ATOM     30  H   UNL     1       6.171   3.302  14.377  0.00  0.00    +0.000 HD
BRANCH  29  31
ATOM     31  C   UNL     1       7.323   4.413  13.008  0.00  0.00    +0.000 C 
BRANCH  31  32
ATOM     32  C   UNL     1       6.482   3.811  11.877  0.00  0.00    +0.000 C 
ATOM     33  C   UNL     1       4.995   3.716  12.178  0.00  0.00    +0.000 C 
ATOM     34  C   UNL     1       4.569   2.549  11.323  0.00  0.00    +0.000 C 
ATOM     35  C   UNL     1       5.777   1.639  11.383  0.00  0.00    +0.000 C 
ATOM     36  O   UNL     1       6.929   2.469  11.586  0.00  0.00    +0.000 OA
ENDBRANCH  31  32
ENDBRANCH  29  31
ENDBRANCH  25  28
ENDBRANCH   1  26
BRANCH   4  37
ATOM     37  O   UNL     1       0.622   3.598  17.993  0.00  0.00    +0.000 OA
ATOM     38  H   UNL     1       0.646   3.360  18.944  0.00  0.00    +0.000 HD
ENDBRANCH   4  37
BRANCH   5  39
ATOM     39  O   UNL     1       2.521   1.824  18.348  0.00  0.00    +0.000 OA
ATOM     40  H   UNL     1       2.154   2.213  19.163  0.00  0.00    +0.000 HD
ENDBRANCH   5  39
TORSDOF 8
ENDMDL
MODEL 4
REMARK VINA RESULT:      -8.3      3.985     10.562
REMARK  Name = 
REMARK  8 active torsions:
REMARK  status: ('A' for Active; 'I' for Inactive)
REMARK    1  A    between atoms: C_2  and  C_3
REMARK    2  A    between atoms: C_4  and  C_5
REMARK    3  A    between atoms: C_7  and  N_8
REMARK    4  A    between atoms: C_14  and  C_16
REMARK    5  A    between atoms: C_26  and  O_27
REMARK    6  A    between atoms: C_28  and  O_29
REMARK    7  A    between atoms: N_30  and  C_31
REMARK    8  A    between atoms: C_31  and  C_32
REMARK                            x       y       z     vdW  Elec       q    Type
REMARK                         _______ _______ _______ _____ _____    ______ ____
ROOT
ATOM      1  C   UNL     1       5.090   3.506  18.299  0.00  0.00    +0.000 C 
ATOM      2  O   UNL     1       4.478   3.960  19.519  0.00  0.00    +0.000 OA
ATOM      3  C   UNL     1       3.043   3.885  19.394  0.00  0.00    +0.000 C 
ATOM      4  C   UNL     1       2.720   3.491  17.949  0.00  0.00    +0.000 C 
ATOM      5  C   UNL     1       3.990   2.783  17.511  0.00  0.00    +0.000 C 
ENDROOT
BRANCH   3   6
ATOM      6  N   UNL     1       2.480   5.141  19.854  0.00  0.00    +0.000 N 
ATOM      7  C   UNL     1       1.791   5.389  21.015  0.00  0.00    +0.000 A 
ATOM      8  N   UNL     1       1.420   6.646  21.119  0.00  0.00    +0.000 NA
ATOM      9  C   UNL     1       1.876   7.243  19.962  0.00  0.00    +0.000 A 
ATOM     10  C   UNL     1       1.793   8.554  19.472  0.00  0.00    +0.000 A 
ATOM     11  N   UNL     1       1.159   9.537  20.248  0.00  0.00    +0.000 N 
ATOM     12  C   UNL     1       1.044  10.862  19.882  0.00  0.00    +0.000 C 
ATOM     13  O   UNL     1       1.478  11.374  18.855  0.00  0.00    +0.000 OA
ATOM     14  N   UNL     1       2.327   8.822  18.261  0.00  0.00    +0.000 NA
ATOM     15  C   UNL     1       2.928   7.828  17.581  0.00  0.00    +0.000 A 
ATOM     16  N   UNL     1       3.085   6.544  17.957  0.00  0.00    +0.000 NA
ATOM     17  C   UNL     1       2.529   6.321  19.159  0.00  0.00    +0.000 A 
ATOM     18  H   UNL     1       0.837   9.220  21.153  0.00  0.00    +0.000 HD
BRANCH  12  19
ATOM     19  C   UNL     1       0.347  11.754  20.853  0.00  0.00    +0.000 A 
ATOM     20  C   UNL     1       0.738  13.100  20.906  0.00  0.00    +0.000 A 
ATOM     21  C   UNL     1       0.108  13.988  21.780  0.00  0.00    +0.000 A 
ATOM     22  C   UNL     1      -0.920  13.535  22.602  0.00  0.00    +0.000 A 
ATOM     23  C   UNL     1      -1.324  12.201  22.549  0.00  0.00    +0.000 A 
ATOM     24  C   UNL     1      -0.698  11.309  21.674  0.00  0.00    +0.000 A 
ENDBRANCH  12  19
ENDBRANCH   3   6
BRANCH   1  26
ATOM     25  C   UNL     1       6.662   5.491  18.129  0.00  0.00    +0.000 C 
ATOM     26  C   UNL     1       5.737   4.670  17.598  0.00  0.00    +0.000 C 
BRANCH  25  28
ATOM     27  O   UNL     1       7.489   6.450  16.119  0.00  0.00    +0.000 OA
ATOM     28  C   UNL     1       7.293   6.566  17.321  0.00  0.00    +0.000 C 
ATOM     29  N   UNL     1       7.628   7.668  18.065  0.00  0.00    +0.000 N 
ATOM     30  H   UNL     1       7.458   7.697  19.063  0.00  0.00    +0.000 HD
BRANCH  29  31
ATOM     31  C   UNL     1       8.267   8.845  17.493  0.00  0.00    +0.000 C 
BRANCH  31  32
ATOM     32  C   UNL     1       8.345  10.005  18.492  0.00  0.00    +0.000 C 
ATOM     33  C   UNL     1       8.701  11.347  17.874  0.00  0.00    +0.000 C 
ATOM     34  C   UNL     1       9.369  12.061  19.023  0.00  0.00    +0.000 C 
ATOM     35  C   UNL     1      10.090  10.937  19.735  0.00  0.00    +0.000 C 
ATOM     36  O   UNL     1       9.351   9.732  19.492  0.00  0.00    +0.000 OA
ENDBRANCH  31  32
ENDBRANCH  29  31
ENDBRANCH  25  28
ENDBRANCH   1  26
BRANCH   4  37
ATOM     37  O   UNL     1       1.575   2.645  17.857  0.00  0.00    +0.000 OA
ATOM     38  H   UNL     1       1.912   1.725  17.822  0.00  0.00    +0.000 HD
ENDBRANCH   4  37
BRANCH   5  39
ATOM     39  O   UNL     1       3.880   1.395  17.883  0.00  0.00    +0.000 OA
ATOM     40  H   UNL     1       3.072   1.020  17.486  0.00  0.00    +0.000 HD
ENDBRANCH   5  39
TORSDOF 8
ENDMDL
MODEL 5
REMARK VINA RESULT:      -8.3      4.343     10.738
REMARK  Name = 
REMARK  8 active torsions:
REMARK  status: ('A' for Active; 'I' for Inactive)
REMARK    1  A    between atoms: C_2  and  C_3
REMARK    2  A    between atoms: C_4  and  C_5
REMARK    3  A    between atoms: C_7  and  N_8
REMARK    4  A    between atoms: C_14  and  C_16
REMARK    5  A    between atoms: C_26  and  O_27
REMARK    6  A    between atoms: C_28  and  O_29
REMARK    7  A    between atoms: N_30  and  C_31
REMARK    8  A    between atoms: C_31  and  C_32
REMARK                            x       y       z     vdW  Elec       q    Type
REMARK                         _______ _______ _______ _____ _____    ______ ____
ROOT
ATOM      1  C   UNL     1       5.571   4.721  18.349  0.00  0.00    +0.000 C 
ATOM      2  O   UNL     1       4.740   4.885  19.512  0.00  0.00    +0.000 OA
ATOM      3  C   UNL     1       3.356   4.708  19.142  0.00  0.00    +0.000 C 
ATOM      4  C   UNL     1       3.294   4.563  17.619  0.00  0.00    +0.000 C 
ATOM      5  C   UNL     1       4.688   4.063  17.281  0.00  0.00    +0.000 C 
ENDROOT
BRANCH   3   6
ATOM      6  N   UNL     1       2.591   5.802  19.710  0.00  0.00    +0.000 N 
ATOM      7  C   UNL     1       1.868   5.819  20.877  0.00  0.00    +0.000 A 
ATOM      8  N   UNL     1       1.292   6.980  21.095  0.00  0.00    +0.000 NA
ATOM      9  C   UNL     1       1.644   7.754  20.008  0.00  0.00    +0.000 A 
ATOM     10  C   UNL     1       1.343   9.075  19.645  0.00  0.00    +0.000 A 
ATOM     11  N   UNL     1       0.553   9.859  20.500  0.00  0.00    +0.000 N 
ATOM     12  C   UNL     1       0.218  11.175  20.261  0.00  0.00    +0.000 C 
ATOM     13  O   UNL     1       0.563  11.849  19.295  0.00  0.00    +0.000 OA
ATOM     14  N   UNL     1       1.827   9.544  18.474  0.00  0.00    +0.000 NA
ATOM     15  C   UNL     1       2.587   8.735  17.713  0.00  0.00    +0.000 A 
ATOM     16  N   UNL     1       2.955   7.464  17.967  0.00  0.00    +0.000 NA
ATOM     17  C   UNL     1       2.443   7.036  19.132  0.00  0.00    +0.000 A 
ATOM     18  H   UNL     1       0.287   9.406  21.364  0.00  0.00    +0.000 HD
BRANCH  12  19
ATOM     19  C   UNL     1      -0.619  11.839  21.299  0.00  0.00    +0.000 A 
ATOM     20  C   UNL     1      -0.767  13.233  21.232  0.00  0.00    +0.000 A 
ATOM     21  C   UNL     1      -1.555  13.909  22.165  0.00  0.00    +0.000 A 
ATOM     22  C   UNL     1      -2.206  13.195  23.166  0.00  0.00    +0.000 A 
ATOM     23  C   UNL     1      -2.075  11.808  23.236  0.00  0.00    +0.000 A 
ATOM     24  C   UNL     1      -1.288  11.126  22.303  0.00  0.00    +0.000 A 
ENDBRANCH  12  19
ENDBRANCH   3   6
BRANCH   1  26
ATOM     25  C   UNL     1       7.393   6.488  18.333  0.00  0.00    +0.000 C 
ATOM     26  C   UNL     1       6.173   6.048  17.971  0.00  0.00    +0.000 C 
BRANCH  25  28
ATOM     27  O   UNL     1       7.867   8.107  16.660  0.00  0.00    +0.000 OA
ATOM     28  C   UNL     1       7.921   7.786  17.840  0.00  0.00    +0.000 C 
ATOM     29  N   UNL     1       8.469   8.554  18.835  0.00  0.00    +0.000 N 
ATOM     30  H   UNL     1       8.502   8.224  19.792  0.00  0.00    +0.000 HD
BRANCH  29  31
ATOM     31  C   UNL     1       9.059   9.863  18.591  0.00  0.00    +0.000 C 
BRANCH  31  32
ATOM     32  C   UNL     1       9.816  10.394  19.813  0.00  0.00    +0.000 C 
ATOM     33  C   UNL     1       8.999  11.304  20.716  0.00  0.00    +0.000 C 
ATOM     34  C   UNL     1      10.062  12.175  21.337  0.00  0.00    +0.000 C 
ATOM     35  C   UNL     1      11.062  12.329  20.212  0.00  0.00    +0.000 C 
ATOM     36  O   UNL     1      10.967  11.158  19.390  0.00  0.00    +0.000 OA
ENDBRANCH  31  32
ENDBRANCH  29  31
ENDBRANCH  25  28
ENDBRANCH   1  26
BRANCH   4  37
ATOM     37  O   UNL     1       2.281   3.651  17.198  0.00  0.00    +0.000 OA
ATOM     38  H   UNL     1       1.633   4.175  16.682  0.00  0.00    +0.000 HD
ENDBRANCH   4  37
BRANCH   5  39
ATOM     39  O   UNL     1       4.687   2.626  17.388  0.00  0.00    +0.000 OA
ATOM     40  H   UNL     1       5.608   2.305  17.404  0.00  0.00    +0.000 HD
ENDBRANCH   5  39
TORSDOF 8
ENDMDL
MODEL 6
REMARK VINA RESULT:      -8.2      4.111     10.604
REMARK  Name = 
REMARK  8 active torsions:
REMARK  status: ('A' for Active; 'I' for Inactive)
REMARK    1  A    between atoms: C_2  and  C_3
REMARK    2  A    between atoms: C_4  and  C_5
REMARK    3  A    between atoms: C_7  and  N_8
REMARK    4  A    between atoms: C_14  and  C_16
REMARK    5  A    between atoms: C_26  and  O_27
REMARK    6  A    between atoms: C_28  and  O_29
REMARK    7  A    between atoms: N_30  and  C_31
REMARK    8  A    between atoms: C_31  and  C_32
REMARK                            x       y       z     vdW  Elec       q    Type
REMARK                         _______ _______ _______ _____ _____    ______ ____
ROOT
ATOM      1  C   UNL     1       5.300   4.149  18.422  0.00  0.00    +0.000 C 
ATOM      2  O   UNL     1       4.544   4.486  19.599  0.00  0.00    +0.000 OA
ATOM      3  C   UNL     1       3.137   4.318  19.330  0.00  0.00    +0.000 C 
ATOM      4  C   UNL     1       2.981   3.989  17.842  0.00  0.00    +0.000 C 
ATOM      5  C   UNL     1       4.336   3.399  17.494  0.00  0.00    +0.000 C 
ENDROOT
BRANCH   3   6
ATOM      6  N   UNL     1       2.440   5.502  19.798  0.00  0.00    +0.000 N 
ATOM      7  C   UNL     1       1.676   5.647  20.930  0.00  0.00    +0.000 A 
ATOM      8  N   UNL     1       1.187   6.861  21.052  0.00  0.00    +0.000 NA
ATOM      9  C   UNL     1       1.642   7.536  19.938  0.00  0.00    +0.000 A 
ATOM     10  C   UNL     1       1.463   8.851  19.485  0.00  0.00    +0.000 A 
ATOM     11  N   UNL     1       0.705   9.746  20.257  0.00  0.00    +0.000 N 
ATOM     12  C   UNL     1       0.487  11.066  19.925  0.00  0.00    +0.000 C 
ATOM     13  O   UNL     1       0.922  11.650  18.937  0.00  0.00    +0.000 OA
ATOM     14  N   UNL     1       2.028   9.207  18.310  0.00  0.00    +0.000 NA
ATOM     15  C   UNL     1       2.749   8.295  17.633  0.00  0.00    +0.000 A 
ATOM     16  N   UNL     1       3.004   7.018  17.977  0.00  0.00    +0.000 NA
ATOM     17  C   UNL     1       2.414   6.705  19.142  0.00  0.00    +0.000 A 
ATOM     18  H   UNL     1       0.371   9.370  21.134  0.00  0.00    +0.000 HD
BRANCH  12  19
ATOM     19  C   UNL     1      -0.334  11.858  20.885  0.00  0.00    +0.000 A 
ATOM     20  C   UNL     1      -0.500  11.349  22.182  0.00  0.00    +0.000 A 
ATOM     21  C   UNL     1      -1.242  12.055  23.131  0.00  0.00    +0.000 A 
ATOM     22  C   UNL     1      -1.816  13.276  22.790  0.00  0.00    +0.000 A 
ATOM     23  C   UNL     1      -1.647  13.796  21.507  0.00  0.00    +0.000 A 
ATOM     24  C   UNL     1      -0.904  13.094  20.554  0.00  0.00    +0.000 A 
ENDBRANCH  12  19
ENDBRANCH   3   6
BRANCH   1  26
ATOM     25  C   UNL     1       7.100   5.927  18.218  0.00  0.00    +0.000 C 
ATOM     26  C   UNL     1       5.920   5.396  17.849  0.00  0.00    +0.000 C 
BRANCH  25  28
ATOM     27  O   UNL     1       8.007   7.097  16.360  0.00  0.00    +0.000 OA
ATOM     28  C   UNL     1       7.656   7.121  17.532  0.00  0.00    +0.000 C 
ATOM     29  N   UNL     1       7.735   8.219  18.349  0.00  0.00    +0.000 N 
ATOM     30  H   UNL     1       7.446   8.172  19.318  0.00  0.00    +0.000 HD
BRANCH  29  31
ATOM     31  C   UNL     1       8.256   9.504  17.902  0.00  0.00    +0.000 C 
BRANCH  31  32
ATOM     32  C   UNL     1       9.439   9.978  18.753  0.00  0.00    +0.000 C 
ATOM     33  C   UNL     1       9.053  10.551  20.107  0.00  0.00    +0.000 C 
ATOM     34  C   UNL     1      10.184  11.510  20.382  0.00  0.00    +0.000 C 
ATOM     35  C   UNL     1      10.512  12.037  19.002  0.00  0.00    +0.000 C 
ATOM     36  O   UNL     1      10.166  11.014  18.058  0.00  0.00    +0.000 OA
ENDBRANCH  31  32
ENDBRANCH  29  31
ENDBRANCH  25  28
ENDBRANCH   1  26
BRANCH   4  37
ATOM     37  O   UNL     1       1.917   3.072  17.594  0.00  0.00    +0.000 OA
ATOM     38  H   UNL     1       2.328   2.264  17.220  0.00  0.00    +0.000 HD
ENDBRANCH   4  37
BRANCH   5  39
ATOM     39  O   UNL     1       4.297   1.987  17.779  0.00  0.00    +0.000 OA
ATOM     40  H   UNL     1       3.648   1.821  18.487  0.00  0.00    +0.000 HD
ENDBRANCH   5  39
TORSDOF 8
ENDMDL
MODEL 7
REMARK VINA RESULT:      -8.2      3.578      6.046
REMARK  Name = 
REMARK  8 active torsions:
REMARK  status: ('A' for Active; 'I' for Inactive)
REMARK    1  A    between atoms: C_2  and  C_3
REMARK    2  A    between atoms: C_4  and  C_5
REMARK    3  A    between atoms: C_7  and  N_8
REMARK    4  A    between atoms: C_14  and  C_16
REMARK    5  A    between atoms: C_26  and  O_27
REMARK    6  A    between atoms: C_28  and  O_29
REMARK    7  A    between atoms: N_30  and  C_31
REMARK    8  A    between atoms: C_31  and  C_32
REMARK                            x       y       z     vdW  Elec       q    Type
REMARK                         _______ _______ _______ _____ _____    ______ ____
ROOT
ATOM      1  C   UNL     1      -0.452  12.205  20.608  0.00  0.00    +0.000 C 
ATOM      2  O   UNL     1      -0.517  11.044  19.761  0.00  0.00    +0.000 OA
ATOM      3  C   UNL     1       0.016   9.904  20.466  0.00  0.00    +0.000 C 
ATOM      4  C   UNL     1       0.587  10.402  21.797  0.00  0.00    +0.000 C 
ATOM      5  C   UNL     1      -0.194  11.684  22.028  0.00  0.00    +0.000 C 
ENDROOT
BRANCH   3   6
ATOM      6  N   UNL     1       0.948   9.221  19.588  0.00  0.00    +0.000 N 
ATOM      7  C   UNL     1       1.440   9.643  18.377  0.00  0.00    +0.000 A 
ATOM      8  N   UNL     1       2.271   8.775  17.843  0.00  0.00    +0.000 NA
ATOM      9  C   UNL     1       2.312   7.730  18.744  0.00  0.00    +0.000 A 
ATOM     10  C   UNL     1       2.999   6.508  18.750  0.00  0.00    +0.000 A 
ATOM     11  N   UNL     1       3.862   6.200  17.686  0.00  0.00    +0.000 N 
ATOM     12  C   UNL     1       4.609   5.044  17.601  0.00  0.00    +0.000 C 
ATOM     13  O   UNL     1       4.645   4.138  18.428  0.00  0.00    +0.000 OA
ATOM     14  N   UNL     1       2.800   5.665  19.787  0.00  0.00    +0.000 NA
ATOM     15  C   UNL     1       1.965   6.037  20.775  0.00  0.00    +0.000 A 
ATOM     16  N   UNL     1       1.270   7.185  20.885  0.00  0.00    +0.000 NA
ATOM     17  C   UNL     1       1.489   7.985  19.829  0.00  0.00    +0.000 A 
ATOM     18  H   UNL     1       3.956   6.930  16.993  0.00  0.00    +0.000 HD
BRANCH  12  19
ATOM     19  C   UNL     1       5.477   4.911  16.397  0.00  0.00    +0.000 A 
ATOM     20  C   UNL     1       4.934   4.292  15.260  0.00  0.00    +0.000 A 
ATOM     21  C   UNL     1       5.692   4.156  14.096  0.00  0.00    +0.000 A 
ATOM     22  C   UNL     1       6.995   4.644  14.059  0.00  0.00    +0.000 A 
ATOM     23  C   UNL     1       7.541   5.270  15.179  0.00  0.00    +0.000 A 
ATOM     24  C   UNL     1       6.785   5.411  16.346  0.00  0.00    +0.000 A 
ENDBRANCH  12  19
ENDBRANCH   3   6
BRANCH   1  26
ATOM     25  C   UNL     1       1.874  13.203  20.418  0.00  0.00    +0.000 C 
ATOM     26  C   UNL     1       0.575  13.165  20.068  0.00  0.00    +0.000 C 
BRANCH  25  28
ATOM     27  O   UNL     1       3.923  14.391  20.234  0.00  0.00    +0.000 OA
ATOM     28  C   UNL     1       2.820  14.143  19.765  0.00  0.00    +0.000 C 
ATOM     29  N   UNL     1       2.320  14.691  18.612  0.00  0.00    +0.000 N 
ATOM     30  H   UNL     1       1.390  14.461  18.284  0.00  0.00    +0.000 HD
BRANCH  29  31
ATOM     31  C   UNL     1       3.061  15.648  17.803  0.00  0.00    +0.000 C 
BRANCH  31  32
ATOM     32  C   UNL     1       2.489  17.066  17.911  0.00  0.00    +0.000 C 
ATOM     33  C   UNL     1       1.084  17.137  18.489  0.00  0.00    +0.000 C 
ATOM     34  C   UNL     1       0.544  18.397  17.860  0.00  0.00    +0.000 C 
ATOM     35  C   UNL     1       1.184  18.381  16.489  0.00  0.00    +0.000 C 
ATOM     36  O   UNL     1       2.428  17.677  16.604  0.00  0.00    +0.000 OA
ENDBRANCH  31  32
ENDBRANCH  29  31
ENDBRANCH  25  28
ENDBRANCH   1  26
BRANCH   4  37
ATOM     37  O   UNL     1       0.403   9.464  22.855  0.00  0.00    +0.000 OA
ATOM     38  H   UNL     1      -0.093   9.933  23.559  0.00  0.00    +0.000 HD
ENDBRANCH   4  37
BRANCH   5  39
ATOM     39  O   UNL     1      -1.416  11.347  22.713  0.00  0.00    +0.000 OA
ATOM     40  H   UNL     1      -1.700  10.455  22.442  0.00  0.00    +0.000 HD
ENDBRANCH   5  39
TORSDOF 8
ENDMDL
MODEL 8
REMARK VINA RESULT:      -8.1      3.632      6.352
REMARK  Name = 
REMARK  8 active torsions:
REMARK  status: ('A' for Active; 'I' for Inactive)
REMARK    1  A    between atoms: C_2  and  C_3
REMARK    2  A    between atoms: C_4  and  C_5
REMARK    3  A    between atoms: C_7  and  N_8
REMARK    4  A    between atoms: C_14  and  C_16
REMARK    5  A    between atoms: C_26  and  O_27
REMARK    6  A    between atoms: C_28  and  O_29
REMARK    7  A    between atoms: N_30  and  C_31
REMARK    8  A    between atoms: C_31  and  C_32
REMARK                            x       y       z     vdW  Elec       q    Type
REMARK                         _______ _______ _______ _____ _____    ______ ____
ROOT
ATOM      1  C   UNL     1      -0.349  12.460  20.124  0.00  0.00    +0.000 C 
ATOM      2  O   UNL     1      -0.427  11.227  19.388  0.00  0.00    +0.000 OA
ATOM      3  C   UNL     1       0.170  10.166  20.162  0.00  0.00    +0.000 C 
ATOM      4  C   UNL     1       0.795  10.795  21.411  0.00  0.00    +0.000 C 
ATOM      5  C   UNL     1      -0.006  12.075  21.569  0.00  0.00    +0.000 C 
ENDROOT
BRANCH   3   6
ATOM      6  N   UNL     1       1.074   9.428  19.300  0.00  0.00    +0.000 N 
ATOM      7  C   UNL     1       1.549   9.783  18.062  0.00  0.00    +0.000 A 
ATOM      8  N   UNL     1       2.355   8.877  17.554  0.00  0.00    +0.000 NA
ATOM      9  C   UNL     1       2.398   7.876  18.503  0.00  0.00    +0.000 A 
ATOM     10  C   UNL     1       3.066   6.644  18.555  0.00  0.00    +0.000 A 
ATOM     11  N   UNL     1       3.903   6.272  17.491  0.00  0.00    +0.000 N 
ATOM     12  C   UNL     1       4.631   5.102  17.447  0.00  0.00    +0.000 C 
ATOM     13  O   UNL     1       4.668   4.235  18.315  0.00  0.00    +0.000 OA
ATOM     14  N   UNL     1       2.875   5.855  19.635  0.00  0.00    +0.000 NA
ATOM     15  C   UNL     1       2.066   6.287  20.620  0.00  0.00    +0.000 A 
ATOM     16  N   UNL     1       1.390   7.451  20.688  0.00  0.00    +0.000 NA
ATOM     17  C   UNL     1       1.600   8.196  19.590  0.00  0.00    +0.000 A 
ATOM     18  H   UNL     1       3.994   6.967  16.762  0.00  0.00    +0.000 HD
BRANCH  12  19
ATOM     19  C   UNL     1       5.472   4.896  16.234  0.00  0.00    +0.000 A 
ATOM     20  C   UNL     1       4.892   4.248  15.133  0.00  0.00    +0.000 A 
ATOM     21  C   UNL     1       5.624   4.045  13.962  0.00  0.00    +0.000 A 
ATOM     22  C   UNL     1       6.939   4.495  13.883  0.00  0.00    +0.000 A 
ATOM     23  C   UNL     1       7.522   5.151  14.967  0.00  0.00    +0.000 A 
ATOM     24  C   UNL     1       6.792   5.358  16.141  0.00  0.00    +0.000 A 
ENDBRANCH  12  19
ENDBRANCH   3   6
BRANCH   1  26
ATOM     25  C   UNL     1       0.410  14.691  19.181  0.00  0.00    +0.000 C 
ATOM     26  C   UNL     1       0.624  13.389  19.448  0.00  0.00    +0.000 C 
BRANCH  25  28
ATOM     27  O   UNL     1       1.351  16.750  18.460  0.00  0.00    +0.000 OA
ATOM     28  C   UNL     1       1.470  15.538  18.577  0.00  0.00    +0.000 C 
ATOM     29  N   UNL     1       2.563  14.817  18.170  0.00  0.00    +0.000 N 
ATOM     30  H   UNL     1       2.595  13.810  18.276  0.00  0.00    +0.000 HD
BRANCH  29  31
ATOM     31  C   UNL     1       3.725  15.428  17.540  0.00  0.00    +0.000 C 
BRANCH  31  32
ATOM     32  C   UNL     1       4.787  15.846  18.564  0.00  0.00    +0.000 C 
ATOM     33  C   UNL     1       4.761  15.053  19.860  0.00  0.00    +0.000 C 
ATOM     34  C   UNL     1       5.327  16.039  20.850  0.00  0.00    +0.000 C 
ATOM     35  C   UNL     1       4.791  17.360  20.343  0.00  0.00    +0.000 C 
ATOM     36  O   UNL     1       4.608  17.233  18.926  0.00  0.00    +0.000 OA
ENDBRANCH  31  32
ENDBRANCH  29  31
ENDBRANCH  25  28
ENDBRANCH   1  26
BRANCH   4  37
ATOM     37  O   UNL     1       0.688   9.952  22.558  0.00  0.00    +0.000 OA
ATOM     38  H   UNL     1      -0.130   9.425  22.441  0.00  0.00    +0.000 HD
ENDBRANCH   4  37
BRANCH   5  39
ATOM     39  O   UNL     1      -1.184  11.775  22.344  0.00  0.00    +0.000 OA
ATOM     40  H   UNL     1      -1.976  12.023  21.833  0.00  0.00    +0.000 HD
ENDBRANCH   5  39
TORSDOF 8
ENDMDL
MODEL 9
REMARK VINA RESULT:      -8.0      3.965     10.339
REMARK  Name = 
REMARK  8 active torsions:
REMARK  status: ('A' for Active; 'I' for Inactive)
REMARK    1  A    between atoms: C_2  and  C_3
REMARK    2  A    between atoms: C_4  and  C_5
REMARK    3  A    between atoms: C_7  and  N_8
REMARK    4  A    between atoms: C_14  and  C_16
REMARK    5  A    between atoms: C_26  and  O_27
REMARK    6  A    between atoms: C_28  and  O_29
REMARK    7  A    between atoms: N_30  and  C_31
REMARK    8  A    between atoms: C_31  and  C_32
REMARK                            x       y       z     vdW  Elec       q    Type
REMARK                         _______ _______ _______ _____ _____    ______ ____
ROOT
ATOM      1  C   UNL     1       4.491   4.505  18.985  0.00  0.00    +0.000 C 
ATOM      2  O   UNL     1       3.700   5.461  19.712  0.00  0.00    +0.000 OA
ATOM      3  C   UNL     1       2.454   5.681  19.019  0.00  0.00    +0.000 C 
ATOM      4  C   UNL     1       2.518   4.922  17.690  0.00  0.00    +0.000 C 
ATOM      5  C   UNL     1       3.540   3.837  17.982  0.00  0.00    +0.000 C 
ENDROOT
BRANCH   3   6
ATOM      6  N   UNL     1       2.231   7.112  18.925  0.00  0.00    +0.000 N 
ATOM      7  C   UNL     1       2.464   7.940  17.855  0.00  0.00    +0.000 A 
ATOM      8  N   UNL     1       2.150   9.191  18.110  0.00  0.00    +0.000 NA
ATOM      9  C   UNL     1       1.703   9.180  19.415  0.00  0.00    +0.000 A 
ATOM     10  C   UNL     1       1.236  10.190  20.268  0.00  0.00    +0.000 A 
ATOM     11  N   UNL     1       1.144  11.506  19.787  0.00  0.00    +0.000 N 
ATOM     12  C   UNL     1       0.672  12.572  20.524  0.00  0.00    +0.000 C 
ATOM     13  O   UNL     1       0.260  12.532  21.679  0.00  0.00    +0.000 OA
ATOM     14  N   UNL     1       0.894   9.856  21.531  0.00  0.00    +0.000 NA
ATOM     15  C   UNL     1       1.001   8.571  21.915  0.00  0.00    +0.000 A 
ATOM     16  N   UNL     1       1.416   7.519  21.183  0.00  0.00    +0.000 NA
ATOM     17  C   UNL     1       1.756   7.899  19.941  0.00  0.00    +0.000 A 
ATOM     18  H   UNL     1       1.390  11.618  18.813  0.00  0.00    +0.000 HD
BRANCH  12  19
ATOM     19  C   UNL     1       0.639  13.889  19.827  0.00  0.00    +0.000 A 
ATOM     20  C   UNL     1      -0.577  14.589  19.803  0.00  0.00    +0.000 A 
ATOM     21  C   UNL     1      -0.665  15.837  19.183  0.00  0.00    +0.000 A 
ATOM     22  C   UNL     1       0.463  16.394  18.589  0.00  0.00    +0.000 A 
ATOM     23  C   UNL     1       1.679  15.711  18.616  0.00  0.00    +0.000 A 
ATOM     24  C   UNL     1       1.773  14.463  19.238  0.00  0.00    +0.000 A 
ENDBRANCH  12  19
ENDBRANCH   3   6
BRANCH   1  26
ATOM     25  C   UNL     1       5.684   6.402  17.792  0.00  0.00    +0.000 C 
ATOM     26  C   UNL     1       5.689   5.195  18.388  0.00  0.00    +0.000 C 
BRANCH  25  28
ATOM     27  O   UNL     1       7.683   6.463  16.509  0.00  0.00    +0.000 OA
ATOM     28  C   UNL     1       6.941   7.025  17.304  0.00  0.00    +0.000 C 
ATOM     29  N   UNL     1       7.168   8.265  17.843  0.00  0.00    +0.000 N 
ATOM     30  H   UNL     1       6.526   8.670  18.513  0.00  0.00    +0.000 HD
BRANCH  29  31
ATOM     31  C   UNL     1       8.341   9.065  17.522  0.00  0.00    +0.000 C 
BRANCH  31  32
ATOM     32  C   UNL     1       8.508  10.256  18.472  0.00  0.00    +0.000 C 
ATOM     33  C   UNL     1       8.807  11.577  17.782  0.00  0.00    +0.000 C 
ATOM     34  C   UNL     1       9.575  12.326  18.842  0.00  0.00    +0.000 C 
ATOM     35  C   UNL     1      10.357  11.223  19.522  0.00  0.00    +0.000 C 
ATOM     36  O   UNL     1       9.601  10.012  19.385  0.00  0.00    +0.000 OA
ENDBRANCH  31  32
ENDBRANCH  29  31
ENDBRANCH  25  28
ENDBRANCH   1  26
BRANCH   4  37
ATOM     37  O   UNL     1       1.255   4.378  17.310  0.00  0.00    +0.000 OA
ATOM     38  H   UNL     1       1.315   4.177  16.353  0.00  0.00    +0.000 HD
ENDBRANCH   4  37
BRANCH   5  39
ATOM     39  O   UNL     1       2.849   2.712  18.558  0.00  0.00    +0.000 OA
ATOM     40  H   UNL     1       1.899   2.921  18.629  0.00  0.00    +0.000 HD
ENDBRANCH   5  39
TORSDOF 8
ENDMDL
