MODEL 1
REMARK VINA RESULT:      -8.0      0.000      0.000
REMARK  Name = 
REMARK  17 active torsions:
REMARK  status: ('A' for Active; 'I' for Inactive)
REMARK    1  A    between atoms: C_1  and  O_2
REMARK    2  A    between atoms: O_2  and  C_3
REMARK    3  A    between atoms: C_3  and  C_4
REMARK    4  A    between atoms: C_4  and  C_5
REMARK    5  A    between atoms: C_5  and  N_6
REMARK    6  A    between atoms: C_9  and  C_10
REMARK    7  A    between atoms: C_10  and  C_11
REMARK    8  A    between atoms: N_13  and  C_14
REMARK    9  A    between atoms: C_14  and  C_15
REMARK   10  A    between atoms: C_22  and  C_23
REMARK   11  A    between atoms: N_25  and  C_26
REMARK   12  A    between atoms: N_25  and  C_29
REMARK   13  A    between atoms: C_26  and  C_27
REMARK   14  A    between atoms: C_26  and  C_28
REMARK   15  A    between atoms: C_29  and  C_30
REMARK   16  A    between atoms: C_29  and  C_31
REMARK   17  A    between atoms: C_32  and  C_33
REMARK                            x       y       z     vdW  Elec       q    Type
REMARK                         _______ _______ _______ _____ _____    ______ ____
ROOT
ATOM      1  N   UNL     1       5.908   4.551  15.291  0.00  0.00    +0.000 N 
ATOM      2  C   UNL     1       7.123   5.219  15.429  0.00  0.00    +0.000 C 
ATOM      3  O   UNL     1       7.783   5.660  14.476  0.00  0.00    +0.000 OA
ATOM      4  C   UNL     1       7.555   5.556  16.808  0.00  0.00    +0.000 C 
ATOM      5  C   UNL     1       7.081   4.447  17.751  0.00  0.00    +0.000 C 
ATOM      6  C   UNL     1       5.597   4.193  17.689  0.00  0.00    +0.000 C 
ATOM      7  C   UNL     1       5.082   4.180  16.414  0.00  0.00    +0.000 C 
ATOM      8  C   UNL     1       3.662   3.796  16.025  0.00  0.00    +0.000 C 
ENDROOT
BRANCH   6   9
ATOM      9  C   UNL     1       4.758   3.750  18.926  0.00  0.00    +0.000 C 
ATOM     10  O   UNL     1       5.297   2.882  19.630  0.00  0.00    +0.000 OA
ATOM     11  N   UNL     1       3.484   4.197  19.359  0.00  0.00    +0.000 N 
BRANCH  11  12
ATOM     12  C   UNL     1       2.661   5.360  18.934  0.00  0.00    +0.000 C 
ATOM     13  C   UNL     1       3.419   6.660  18.636  0.00  0.00    +0.000 C 
ATOM     14  C   UNL     1       1.619   4.996  17.894  0.00  0.00    +0.000 C 
ENDBRANCH  11  12
BRANCH  11  15
ATOM     15  C   UNL     1       2.802   3.319  20.399  0.00  0.00    +0.000 C 
ATOM     16  C   UNL     1       2.016   4.118  21.450  0.00  0.00    +0.000 C 
ATOM     17  C   UNL     1       1.888   2.232  19.802  0.00  0.00    +0.000 C 
ENDBRANCH  11  15
ENDBRANCH   6   9
BRANCH   1  18
ATOM     18  C   UNL     1       5.479   4.381  13.888  0.00  0.00    +0.000 C 
BRANCH  18  19
ATOM     19  C   UNL     1       6.282   3.316  13.115  0.00  0.00    +0.000 C 
BRANCH  19  20
ATOM     20  C   UNL     1       5.430   2.692  12.021  0.00  0.00    +0.000 C 
BRANCH  20  22
ATOM     21  C   UNL     1       3.571   3.102  10.637  0.00  0.00    +0.000 C 
ATOM     22  O   UNL     1       4.484   3.660  11.569  0.00  0.00    +0.000 OA
ENDBRANCH  20  22
ENDBRANCH  19  20
ENDBRANCH  18  19
ENDBRANCH   1  18
BRANCH   4  23
ATOM     23  C   UNL     1       7.030   6.927  17.209  0.00  0.00    +0.000 C 
BRANCH  23  24
ATOM     24  C   UNL     1       7.935   7.682  18.140  0.00  0.00    +0.000 C 
ATOM     25  O   UNL     1       8.536   7.125  19.046  0.00  0.00    +0.000 OA
ATOM     26  N   UNL     1       7.969   9.049  17.916  0.00  0.00    +0.000 N 
ATOM     27  H   UNL     1       7.771   9.365  16.975  0.00  0.00    +0.000 HD
BRANCH  26  28
ATOM     28  C   UNL     1       8.826   9.868  18.732  0.00  0.00    +0.000 C 
BRANCH  28  29
ATOM     29  C   UNL     1       9.559  10.947  17.915  0.00  0.00    +0.000 C 
ATOM     30  C   UNL     1       8.829  12.301  17.931  0.00  0.00    +0.000 C 
ATOM     31  C   UNL     1       8.893  12.990  19.293  0.00  0.00    +0.000 C 
ATOM     32  C   UNL     1      10.325  13.116  19.809  0.00  0.00    +0.000 C 
ATOM     33  C   UNL     1      11.062  11.780  19.795  0.00  0.00    +0.000 C 
ATOM     34  C   UNL     1      11.000  11.126  18.415  0.00  0.00    +0.000 C 
ENDBRANCH  28  29
ENDBRANCH  26  28
ENDBRANCH  23  24
ENDBRANCH   4  23
TORSDOF 11
ENDMDL
MODEL 2
REMARK VINA RESULT:      -6.8      3.807      7.604
REMARK  Name = 
REMARK  17 active torsions:
REMARK  status: ('A' for Active; 'I' for Inactive)
REMARK    1  A    between atoms: C_1  and  O_2
REMARK    2  A    between atoms: O_2  and  C_3
REMARK    3  A    between atoms: C_3  and  C_4
REMARK    4  A    between atoms: C_4  and  C_5
REMARK    5  A    between atoms: C_5  and  N_6
REMARK    6  A    between atoms: C_9  and  C_10
REMARK    7  A    between atoms: C_10  and  C_11
REMARK    8  A    between atoms: N_13  and  C_14
REMARK    9  A    between atoms: C_14  and  C_15
REMARK   10  A    between atoms: C_22  and  C_23
REMARK   11  A    between atoms: N_25  and  C_26
REMARK   12  A    between atoms: N_25  and  C_29
REMARK   13  A    between atoms: C_26  and  C_27
REMARK   14  A    between atoms: C_26  and  C_28
REMARK   15  A    between atoms: C_29  and  C_30
REMARK   16  A    between atoms: C_29  and  C_31
REMARK   17  A    between atoms: C_32  and  C_33
REMARK                            x       y       z     vdW  Elec       q    Type
REMARK                         _______ _______ _______ _____ _____    ______ ____
ROOT
ATOM      1  N   UNL     1       3.734   4.569  18.040  0.00  0.00    +0.000 N 
ATOM      2  C   UNL     1       5.098   4.755  17.822  0.00  0.00    +0.000 C 
ATOM      3  O   UNL     1       5.910   3.829  17.675  0.00  0.00    +0.000 OA
ATOM      4  C   UNL     1       5.561   6.147  17.594  0.00  0.00    +0.000 C 
ATOM      5  C   UNL     1       4.695   7.091  18.432  0.00  0.00    +0.000 C 
ATOM      6  C   UNL     1       3.218   6.955  18.166  0.00  0.00    +0.000 C 
ATOM      7  C   UNL     1       2.785   5.654  18.057  0.00  0.00    +0.000 C 
ATOM      8  C   UNL     1       1.337   5.197  17.949  0.00  0.00    +0.000 C 
ENDROOT
BRANCH   6   9
ATOM      9  C   UNL     1       2.226   8.155  18.241  0.00  0.00    +0.000 C 
ATOM     10  O   UNL     1       1.938   8.654  17.142  0.00  0.00    +0.000 OA
ATOM     11  N   UNL     1       1.609   8.746  19.372  0.00  0.00    +0.000 N 
BRANCH  11  12
ATOM     12  C   UNL     1       1.515   8.289  20.784  0.00  0.00    +0.000 C 
ATOM     13  C   UNL     1       1.300   9.380  21.840  0.00  0.00    +0.000 C 
ATOM     14  C   UNL     1       0.622   7.076  20.953  0.00  0.00    +0.000 C 
ENDBRANCH  11  12
BRANCH  11  15
ATOM     15  C   UNL     1       0.975  10.109  19.132  0.00  0.00    +0.000 C 
ATOM     16  C   UNL     1       1.911  11.101  18.424  0.00  0.00    +0.000 C 
ATOM     17  C   UNL     1      -0.367  10.054  18.377  0.00  0.00    +0.000 C 
ENDBRANCH  11  15
ENDBRANCH   6   9
BRANCH   1  18
ATOM     18  C   UNL     1       3.334   3.149  18.113  0.00  0.00    +0.000 C 
BRANCH  18  19
ATOM     19  C   UNL     1       3.180   2.618  19.552  0.00  0.00    +0.000 C 
BRANCH  19  20
ATOM     20  C   UNL     1       1.767   2.108  19.787  0.00  0.00    +0.000 C 
BRANCH  20  22
ATOM     21  C   UNL     1       2.041   3.777  21.422  0.00  0.00    +0.000 C 
ATOM     22  O   UNL     1       1.282   2.650  21.015  0.00  0.00    +0.000 OA
ENDBRANCH  20  22
ENDBRANCH  19  20
ENDBRANCH  18  19
ENDBRANCH   1  18
BRANCH   4  23
ATOM     23  C   UNL     1       5.522   6.483  16.110  0.00  0.00    +0.000 C 
BRANCH  23  24
ATOM     24  C   UNL     1       6.258   5.505  15.239  0.00  0.00    +0.000 C 
ATOM     25  O   UNL     1       7.469   5.565  15.086  0.00  0.00    +0.000 OA
ATOM     26  N   UNL     1       5.441   4.592  14.593  0.00  0.00    +0.000 N 
ATOM     27  H   UNL     1       4.560   4.368  15.038  0.00  0.00    +0.000 HD
BRANCH  26  28
ATOM     28  C   UNL     1       6.043   3.589  13.754  0.00  0.00    +0.000 C 
BRANCH  28  29
ATOM     29  C   UNL     1       5.891   3.908  12.257  0.00  0.00    +0.000 C 
ATOM     30  C   UNL     1       7.234   3.889  11.507  0.00  0.00    +0.000 C 
ATOM     31  C   UNL     1       7.811   2.481  11.364  0.00  0.00    +0.000 C 
ATOM     32  C   UNL     1       6.808   1.507  10.749  0.00  0.00    +0.000 C 
ATOM     33  C   UNL     1       5.470   1.518  11.482  0.00  0.00    +0.000 C 
ATOM     34  C   UNL     1       4.907   2.935  11.588  0.00  0.00    +0.000 C 
ENDBRANCH  28  29
ENDBRANCH  26  28
ENDBRANCH  23  24
ENDBRANCH   4  23
TORSDOF 11
ENDMDL
MODEL 3
REMARK VINA RESULT:      -6.7      7.114     10.790
REMARK  Name = 
REMARK  17 active torsions:
REMARK  status: ('A' for Active; 'I' for Inactive)
REMARK    1  A    between atoms: C_1  and  O_2
REMARK    2  A    between atoms: O_2  and  C_3
REMARK    3  A    between atoms: C_3  and  C_4
REMARK    4  A    between atoms: C_4  and  C_5
REMARK    5  A    between atoms: C_5  and  N_6
REMARK    6  A    between atoms: C_9  and  C_10
REMARK    7  A    between atoms: C_10  and  C_11
REMARK    8  A    between atoms: N_13  and  C_14
REMARK    9  A    between atoms: C_14  and  C_15
REMARK   10  A    between atoms: C_22  and  C_23
REMARK   11  A    between atoms: N_25  and  C_26
REMARK   12  A    between atoms: N_25  and  C_29
REMARK   13  A    between atoms: C_26  and  C_27
REMARK   14  A    between atoms: C_26  and  C_28
REMARK   15  A    between atoms: C_29  and  C_30
REMARK   16  A    between atoms: C_29  and  C_31
REMARK   17  A    between atoms: C_32  and  C_33
REMARK                            x       y       z     vdW  Elec       q    Type
REMARK                         _______ _______ _______ _____ _____    ______ ____
ROOT
ATOM      1  N   UNL     1       0.975  12.152  18.976  0.00  0.00    +0.000 N 
ATOM      2  C   UNL     1       0.969  10.828  18.541  0.00  0.00    +0.000 C 
ATOM      3  O   UNL     1       1.594  10.421  17.550  0.00  0.00    +0.000 OA
ATOM      4  C   UNL     1       0.306   9.832  19.419  0.00  0.00    +0.000 C 
ATOM      5  C   UNL     1      -0.882  10.507  20.109  0.00  0.00    +0.000 C 
ATOM      6  C   UNL     1      -0.512  11.751  20.874  0.00  0.00    +0.000 C 
ATOM      7  C   UNL     1       0.368  12.576  20.213  0.00  0.00    +0.000 C 
ATOM      8  C   UNL     1       0.799  13.967  20.657  0.00  0.00    +0.000 C 
ENDROOT
BRANCH   6   9
ATOM      9  C   UNL     1      -1.231  12.189  22.187  0.00  0.00    +0.000 C 
ATOM     10  O   UNL     1      -0.659  11.836  23.229  0.00  0.00    +0.000 OA
ATOM     11  N   UNL     1      -2.429  12.928  22.355  0.00  0.00    +0.000 N 
BRANCH  11  12
ATOM     12  C   UNL     1      -3.240  13.708  21.384  0.00  0.00    +0.000 C 
ATOM     13  C   UNL     1      -2.636  15.032  20.899  0.00  0.00    +0.000 C 
ATOM     14  C   UNL     1      -3.824  12.850  20.279  0.00  0.00    +0.000 C 
ENDBRANCH  11  12
BRANCH  11  15
ATOM     15  C   UNL     1      -3.033  12.882  23.752  0.00  0.00    +0.000 C 
ATOM     16  C   UNL     1      -2.890  14.205  24.521  0.00  0.00    +0.000 C 
ATOM     17  C   UNL     1      -4.507  12.434  23.786  0.00  0.00    +0.000 C 
ENDBRANCH  11  15
ENDBRANCH   6   9
BRANCH   1  18
ATOM     18  C   UNL     1       1.776  13.053  18.123  0.00  0.00    +0.000 C 
BRANCH  18  19
ATOM     19  C   UNL     1       3.249  13.181  18.561  0.00  0.00    +0.000 C 
BRANCH  19  20
ATOM     20  C   UNL     1       3.789  14.563  18.230  0.00  0.00    +0.000 C 
BRANCH  20  22
ATOM     21  C   UNL     1       3.068  16.643  17.399  0.00  0.00    +0.000 C 
ATOM     22  O   UNL     1       2.689  15.462  18.087  0.00  0.00    +0.000 OA
ENDBRANCH  20  22
ENDBRANCH  19  20
ENDBRANCH  18  19
ENDBRANCH   1  18
BRANCH   4  23
ATOM     23  C   UNL     1       1.304   9.251  20.412  0.00  0.00    +0.000 C 
BRANCH  23  24
ATOM     24  C   UNL     1       1.911   7.947  19.980  0.00  0.00    +0.000 C 
ATOM     25  O   UNL     1       2.481   7.828  18.906  0.00  0.00    +0.000 OA
ATOM     26  N   UNL     1       1.708   6.903  20.867  0.00  0.00    +0.000 N 
ATOM     27  H   UNL     1       1.580   7.147  21.841  0.00  0.00    +0.000 HD
BRANCH  26  28
ATOM     28  C   UNL     1       2.272   5.613  20.567  0.00  0.00    +0.000 C 
BRANCH  28  29
ATOM     29  C   UNL     1       1.223   4.627  20.024  0.00  0.00    +0.000 C 
ATOM     30  C   UNL     1       1.461   4.261  18.549  0.00  0.00    +0.000 C 
ATOM     31  C   UNL     1       2.697   3.385  18.349  0.00  0.00    +0.000 C 
ATOM     32  C   UNL     1       2.674   2.145  19.240  0.00  0.00    +0.000 C 
ATOM     33  C   UNL     1       2.436   2.493  20.706  0.00  0.00    +0.000 C 
ATOM     34  C   UNL     1       1.181   3.350  20.877  0.00  0.00    +0.000 C 
ENDBRANCH  28  29
ENDBRANCH  26  28
ENDBRANCH  23  24
ENDBRANCH   4  23
TORSDOF 11
ENDMDL
MODEL 4
REMARK VINA RESULT:      -6.7      0.991      1.516
REMARK  Name = 
REMARK  17 active torsions:
REMARK  status: ('A' for Active; 'I' for Inactive)
REMARK    1  A    between atoms: C_1  and  O_2
REMARK    2  A    between atoms: O_2  and  C_3
REMARK    3  A    between atoms: C_3  and  C_4
REMARK    4  A    between atoms: C_4  and  C_5
REMARK    5  A    between atoms: C_5  and  N_6
REMARK    6  A    between atoms: C_9  and  C_10
REMARK    7  A    between atoms: C_10  and  C_11
REMARK    8  A    between atoms: N_13  and  C_14
REMARK    9  A    between atoms: C_14  and  C_15
REMARK   10  A    between atoms: C_22  and  C_23
REMARK   11  A    between atoms: N_25  and  C_26
REMARK   12  A    between atoms: N_25  and  C_29
REMARK   13  A    between atoms: C_26  and  C_27
REMARK   14  A    between atoms: C_26  and  C_28
REMARK   15  A    between atoms: C_29  and  C_30
REMARK   16  A    between atoms: C_29  and  C_31
REMARK   17  A    between atoms: C_32  and  C_33
REMARK                            x       y       z     vdW  Elec       q    Type
REMARK                         _______ _______ _______ _____ _____    ______ ____
ROOT
ATOM      1  N   UNL     1       5.680   4.515  15.671  0.00  0.00    +0.000 N 
ATOM      2  C   UNL     1       6.925   5.079  15.945  0.00  0.00    +0.000 C 
ATOM      3  O   UNL     1       7.713   5.477  15.073  0.00  0.00    +0.000 OA
ATOM      4  C   UNL     1       7.240   5.361  17.367  0.00  0.00    +0.000 C 
ATOM      5  C   UNL     1       6.585   4.282  18.234  0.00  0.00    +0.000 C 
ATOM      6  C   UNL     1       5.099   4.152  18.017  0.00  0.00    +0.000 C 
ATOM      7  C   UNL     1       4.718   4.199  16.697  0.00  0.00    +0.000 C 
ATOM      8  C   UNL     1       3.318   3.938  16.158  0.00  0.00    +0.000 C 
ENDROOT
BRANCH   6   9
ATOM      9  C   UNL     1       4.105   3.763  19.153  0.00  0.00    +0.000 C 
ATOM     10  O   UNL     1       4.373   2.698  19.729  0.00  0.00    +0.000 OA
ATOM     11  N   UNL     1       2.956   4.450  19.620  0.00  0.00    +0.000 N 
BRANCH  11  12
ATOM     12  C   UNL     1       2.468   5.830  19.358  0.00  0.00    +0.000 C 
ATOM     13  C   UNL     1       1.720   6.518  20.506  0.00  0.00    +0.000 C 
ATOM     14  C   UNL     1       3.506   6.703  18.680  0.00  0.00    +0.000 C 
ENDBRANCH  11  12
BRANCH  11  15
ATOM     15  C   UNL     1       2.019   3.632  20.499  0.00  0.00    +0.000 C 
ATOM     16  C   UNL     1       1.134   2.658  19.705  0.00  0.00    +0.000 C 
ATOM     17  C   UNL     1       2.729   2.863  21.630  0.00  0.00    +0.000 C 
ENDBRANCH  11  15
ENDBRANCH   6   9
BRANCH   1  18
ATOM     18  C   UNL     1       5.385   4.400  14.228  0.00  0.00    +0.000 C 
BRANCH  18  19
ATOM     19  C   UNL     1       6.107   3.227  13.535  0.00  0.00    +0.000 C 
BRANCH  19  20
ATOM     20  C   UNL     1       6.069   3.392  12.024  0.00  0.00    +0.000 C 
BRANCH  20  22
ATOM     21  C   UNL     1       6.341   1.173  11.293  0.00  0.00    +0.000 C 
ATOM     22  O   UNL     1       5.433   2.249  11.454  0.00  0.00    +0.000 OA
ENDBRANCH  20  22
ENDBRANCH  19  20
ENDBRANCH  18  19
ENDBRANCH   1  18
BRANCH   4  23
ATOM     23  C   UNL     1       6.789   6.765  17.744  0.00  0.00    +0.000 C 
BRANCH  23  24
ATOM     24  C   UNL     1       7.909   7.685  18.137  0.00  0.00    +0.000 C 
ATOM     25  O   UNL     1       8.680   7.408  19.044  0.00  0.00    +0.000 OA
ATOM     26  N   UNL     1       7.941   8.877  17.433  0.00  0.00    +0.000 N 
ATOM     27  H   UNL     1       7.545   8.870  16.501  0.00  0.00    +0.000 HD
BRANCH  26  28
ATOM     28  C   UNL     1       8.991   9.822  17.708  0.00  0.00    +0.000 C 
BRANCH  28  29
ATOM     29  C   UNL     1       8.531  10.953  18.644  0.00  0.00    +0.000 C 
ATOM     30  C   UNL     1       9.342  11.010  19.950  0.00  0.00    +0.000 C 
ATOM     31  C   UNL     1      10.778  11.487  19.734  0.00  0.00    +0.000 C 
ATOM     32  C   UNL     1      10.836  12.812  18.976  0.00  0.00    +0.000 C 
ATOM     33  C   UNL     1      10.033  12.771  17.679  0.00  0.00    +0.000 C 
ATOM     34  C   UNL     1       8.596  12.312  17.931  0.00  0.00    +0.000 C 
ENDBRANCH  28  29
ENDBRANCH  26  28
ENDBRANCH  23  24
ENDBRANCH   4  23
TORSDOF 11
ENDMDL
MODEL 5
REMARK VINA RESULT:      -6.6      1.174      1.583
REMARK  Name = 
REMARK  17 active torsions:
REMARK  status: ('A' for Active; 'I' for Inactive)
REMARK    1  A    between atoms: C_1  and  O_2
REMARK    2  A    between atoms: O_2  and  C_3
REMARK    3  A    between atoms: C_3  and  C_4
REMARK    4  A    between atoms: C_4  and  C_5
REMARK    5  A    between atoms: C_5  and  N_6
REMARK    6  A    between atoms: C_9  and  C_10
REMARK    7  A    between atoms: C_10  and  C_11
REMARK    8  A    between atoms: N_13  and  C_14
REMARK    9  A    between atoms: C_14  and  C_15
REMARK   10  A    between atoms: C_22  and  C_23
REMARK   11  A    between atoms: N_25  and  C_26
REMARK   12  A    between atoms: N_25  and  C_29
REMARK   13  A    between atoms: C_26  and  C_27
REMARK   14  A    between atoms: C_26  and  C_28
REMARK   15  A    between atoms: C_29  and  C_30
REMARK   16  A    between atoms: C_29  and  C_31
REMARK   17  A    between atoms: C_32  and  C_33
REMARK                            x       y       z     vdW  Elec       q    Type
REMARK                         _______ _______ _______ _____ _____    ______ ____
ROOT
ATOM      1  N   UNL     1       5.739   4.832  15.975  0.00  0.00    +0.000 N 
ATOM      2  C   UNL     1       6.981   5.371  16.307  0.00  0.00    +0.000 C 
ATOM      3  O   UNL     1       7.820   5.742  15.473  0.00  0.00    +0.000 OA
ATOM      4  C   UNL     1       7.229   5.662  17.740  0.00  0.00    +0.000 C 
ATOM      5  C   UNL     1       6.506   4.607  18.583  0.00  0.00    +0.000 C 
ATOM      6  C   UNL     1       5.031   4.507  18.292  0.00  0.00    +0.000 C 
ATOM      7  C   UNL     1       4.718   4.549  16.953  0.00  0.00    +0.000 C 
ATOM      8  C   UNL     1       3.342   4.313  16.346  0.00  0.00    +0.000 C 
ENDROOT
BRANCH   6   9
ATOM      9  C   UNL     1       3.971   4.153  19.380  0.00  0.00    +0.000 C 
ATOM     10  O   UNL     1       4.074   3.008  19.844  0.00  0.00    +0.000 OA
ATOM     11  N   UNL     1       2.924   4.948  19.911  0.00  0.00    +0.000 N 
BRANCH  11  12
ATOM     12  C   UNL     1       2.644   6.403  19.790  0.00  0.00    +0.000 C 
ATOM     13  C   UNL     1       2.492   6.952  18.366  0.00  0.00    +0.000 C 
ATOM     14  C   UNL     1       1.578   6.879  20.758  0.00  0.00    +0.000 C 
ENDBRANCH  11  12
BRANCH  11  15
ATOM     15  C   UNL     1       1.865   4.189  20.699  0.00  0.00    +0.000 C 
ATOM     16  C   UNL     1       0.961   3.313  19.817  0.00  0.00    +0.000 C 
ATOM     17  C   UNL     1       2.429   3.334  21.851  0.00  0.00    +0.000 C 
ENDBRANCH  11  15
ENDBRANCH   6   9
BRANCH   1  18
ATOM     18  C   UNL     1       5.515   4.708  14.520  0.00  0.00    +0.000 C 
BRANCH  18  19
ATOM     19  C   UNL     1       6.019   3.380  13.923  0.00  0.00    +0.000 C 
BRANCH  19  20
ATOM     20  C   UNL     1       6.552   3.593  12.514  0.00  0.00    +0.000 C 
BRANCH  20  22
ATOM     21  C   UNL     1       4.637   2.675  11.501  0.00  0.00    +0.000 C 
ATOM     22  O   UNL     1       5.450   3.829  11.639  0.00  0.00    +0.000 OA
ENDBRANCH  20  22
ENDBRANCH  19  20
ENDBRANCH  18  19
ENDBRANCH   1  18
BRANCH   4  23
ATOM     23  C   UNL     1       6.791   7.080  18.080  0.00  0.00    +0.000 C 
BRANCH  23  24
ATOM     24  C   UNL     1       7.851   8.120  17.856  0.00  0.00    +0.000 C 
ATOM     25  O   UNL     1       8.199   8.453  16.733  0.00  0.00    +0.000 OA
ATOM     26  N   UNL     1       8.428   8.604  19.019  0.00  0.00    +0.000 N 
ATOM     27  H   UNL     1       7.863   8.575  19.858  0.00  0.00    +0.000 HD
BRANCH  26  28
ATOM     28  C   UNL     1       9.437   9.626  18.924  0.00  0.00    +0.000 C 
BRANCH  28  29
ATOM     29  C   UNL     1       8.942  10.988  19.439  0.00  0.00    +0.000 C 
ATOM     30  C   UNL     1       9.717  11.472  20.677  0.00  0.00    +0.000 C 
ATOM     31  C   UNL     1      11.154  11.879  20.353  0.00  0.00    +0.000 C 
ATOM     32  C   UNL     1      11.221  12.895  19.214  0.00  0.00    +0.000 C 
ATOM     33  C   UNL     1      10.453  12.429  17.980  0.00  0.00    +0.000 C 
ATOM     34  C   UNL     1       9.014  12.051  18.332  0.00  0.00    +0.000 C 
ENDBRANCH  28  29
ENDBRANCH  26  28
ENDBRANCH  23  24
ENDBRANCH   4  23
TORSDOF 11
ENDMDL
MODEL 6
REMARK VINA RESULT:      -6.6      7.446     10.606
REMARK  Name = 
REMARK  17 active torsions:
REMARK  status: ('A' for Active; 'I' for Inactive)
REMARK    1  A    between atoms: C_1  and  O_2
REMARK    2  A    between atoms: O_2  and  C_3
REMARK    3  A    between atoms: C_3  and  C_4
REMARK    4  A    between atoms: C_4  and  C_5
REMARK    5  A    between atoms: C_5  and  N_6
REMARK    6  A    between atoms: C_9  and  C_10
REMARK    7  A    between atoms: C_10  and  C_11
REMARK    8  A    between atoms: N_13  and  C_14
REMARK    9  A    between atoms: C_14  and  C_15
REMARK   10  A    between atoms: C_22  and  C_23
REMARK   11  A    between atoms: N_25  and  C_26
REMARK   12  A    between atoms: N_25  and  C_29
REMARK   13  A    between atoms: C_26  and  C_27
REMARK   14  A    between atoms: C_26  and  C_28
REMARK   15  A    between atoms: C_29  and  C_30
REMARK   16  A    between atoms: C_29  and  C_31
REMARK   17  A    between atoms: C_32  and  C_33
REMARK                            x       y       z     vdW  Elec       q    Type
REMARK                         _______ _______ _______ _____ _____    ______ ____
ROOT
ATOM      1  N   UNL     1       0.586  12.404  18.695  0.00  0.00    +0.000 N 
ATOM      2  C   UNL     1       0.934  11.055  18.737  0.00  0.00    +0.000 C 
ATOM      3  O   UNL     1       2.041  10.613  18.395  0.00  0.00    +0.000 OA
ATOM      4  C   UNL     1      -0.030  10.129  19.381  0.00  0.00    +0.000 C 
ATOM      5  C   UNL     1      -1.449  10.635  19.106  0.00  0.00    +0.000 C 
ATOM      6  C   UNL     1      -1.680  12.058  19.545  0.00  0.00    +0.000 C 
ATOM      7  C   UNL     1      -0.648  12.914  19.237  0.00  0.00    +0.000 C 
ATOM      8  C   UNL     1      -0.658  14.427  19.408  0.00  0.00    +0.000 C 
ENDROOT
BRANCH   6   9
ATOM      9  C   UNL     1      -3.050  12.570  20.083  0.00  0.00    +0.000 C 
ATOM     10  O   UNL     1      -3.975  12.528  19.258  0.00  0.00    +0.000 OA
ATOM     11  N   UNL     1      -3.386  13.067  21.368  0.00  0.00    +0.000 N 
BRANCH  11  12
ATOM     12  C   UNL     1      -2.636  13.042  22.652  0.00  0.00    +0.000 C 
ATOM     13  C   UNL     1      -2.174  11.665  23.145  0.00  0.00    +0.000 C 
ATOM     14  C   UNL     1      -1.573  14.120  22.734  0.00  0.00    +0.000 C 
ENDBRANCH  11  12
BRANCH  11  15
ATOM     15  C   UNL     1      -4.716  13.802  21.456  0.00  0.00    +0.000 C 
ATOM     16  C   UNL     1      -5.438  13.597  22.798  0.00  0.00    +0.000 C 
ATOM     17  C   UNL     1      -4.622  15.311  21.159  0.00  0.00    +0.000 C 
ENDBRANCH  11  15
ENDBRANCH   6   9
BRANCH   1  18
ATOM     18  C   UNL     1       1.657  13.277  18.171  0.00  0.00    +0.000 C 
BRANCH  18  19
ATOM     19  C   UNL     1       2.697  13.692  19.230  0.00  0.00    +0.000 C 
BRANCH  19  20
ATOM     20  C   UNL     1       3.241  15.080  18.931  0.00  0.00    +0.000 C 
BRANCH  20  22
ATOM     21  C   UNL     1       5.288  14.820  17.801  0.00  0.00    +0.000 C 
ATOM     22  O   UNL     1       3.895  15.052  17.664  0.00  0.00    +0.000 OA
ENDBRANCH  20  22
ENDBRANCH  19  20
ENDBRANCH  18  19
ENDBRANCH   1  18
BRANCH   4  23
ATOM     23  C   UNL     1       0.266  10.004  20.869  0.00  0.00    +0.000 C 
BRANCH  23  24
ATOM     24  C   UNL     1       1.181   8.865  21.219  0.00  0.00    +0.000 C 
ATOM     25  O   UNL     1       1.682   8.761  22.329  0.00  0.00    +0.000 OA
ATOM     26  N   UNL     1       1.445   8.004  20.167  0.00  0.00    +0.000 N 
ATOM     27  H   UNL     1       0.741   7.933  19.444  0.00  0.00    +0.000 HD
BRANCH  26  28
ATOM     28  C   UNL     1       2.288   6.860  20.398  0.00  0.00    +0.000 C 
BRANCH  28  29
ATOM     29  C   UNL     1       2.267   5.869  19.221  0.00  0.00    +0.000 C 
ATOM     30  C   UNL     1       2.426   6.564  17.858  0.00  0.00    +0.000 C 
ATOM     31  C   UNL     1       3.833   7.121  17.638  0.00  0.00    +0.000 C 
ATOM     32  C   UNL     1       4.911   6.063  17.861  0.00  0.00    +0.000 C 
ATOM     33  C   UNL     1       4.763   5.363  19.208  0.00  0.00    +0.000 C 
ATOM     34  C   UNL     1       3.354   4.798  19.389  0.00  0.00    +0.000 C 
ENDBRANCH  28  29
ENDBRANCH  26  28
ENDBRANCH  23  24
ENDBRANCH   4  23
TORSDOF 11
ENDMDL
MODEL 7
REMARK VINA RESULT:      -6.6      1.195      1.448
REMARK  Name = 
REMARK  17 active torsions:
REMARK  status: ('A' for Active; 'I' for Inactive)
REMARK    1  A    between atoms: C_1  and  O_2
REMARK    2  A    between atoms: O_2  and  C_3
REMARK    3  A    between atoms: C_3  and  C_4
REMARK    4  A    between atoms: C_4  and  C_5
REMARK    5  A    between atoms: C_5  and  N_6
REMARK    6  A    between atoms: C_9  and  C_10
REMARK    7  A    between atoms: C_10  and  C_11
REMARK    8  A    between atoms: N_13  and  C_14
REMARK    9  A    between atoms: C_14  and  C_15
REMARK   10  A    between atoms: C_22  and  C_23
REMARK   11  A    between atoms: N_25  and  C_26
REMARK   12  A    between atoms: N_25  and  C_29
REMARK   13  A    between atoms: C_26  and  C_27
REMARK   14  A    between atoms: C_26  and  C_28
REMARK   15  A    between atoms: C_29  and  C_30
REMARK   16  A    between atoms: C_29  and  C_31
REMARK   17  A    between atoms: C_32  and  C_33
REMARK                            x       y       z     vdW  Elec       q    Type
REMARK                         _______ _______ _______ _____ _____    ______ ____
ROOT
ATOM      1  N   UNL     1       6.083   4.923  15.951  0.00  0.00    +0.000 N 
ATOM      2  C   UNL     1       7.201   5.671  16.315  0.00  0.00    +0.000 C 
ATOM      3  O   UNL     1       7.917   6.284  15.510  0.00  0.00    +0.000 OA
ATOM      4  C   UNL     1       7.437   5.868  17.767  0.00  0.00    +0.000 C 
ATOM      5  C   UNL     1       6.974   4.612  18.510  0.00  0.00    +0.000 C 
ATOM      6  C   UNL     1       5.540   4.240  18.235  0.00  0.00    +0.000 C 
ATOM      7  C   UNL     1       5.177   4.344  16.912  0.00  0.00    +0.000 C 
ATOM      8  C   UNL     1       3.856   3.890  16.306  0.00  0.00    +0.000 C 
ENDROOT
BRANCH   6   9
ATOM      9  C   UNL     1       4.614   3.574  19.298  0.00  0.00    +0.000 C 
ATOM     10  O   UNL     1       5.119   2.606  19.886  0.00  0.00    +0.000 OA
ATOM     11  N   UNL     1       3.295   3.918  19.687  0.00  0.00    +0.000 N 
BRANCH  11  12
ATOM     12  C   UNL     1       2.474   5.124  19.398  0.00  0.00    +0.000 C 
ATOM     13  C   UNL     1       3.125   6.479  19.696  0.00  0.00    +0.000 C 
ATOM     14  C   UNL     1       1.773   5.051  18.056  0.00  0.00    +0.000 C 
ENDBRANCH  11  12
BRANCH  11  15
ATOM     15  C   UNL     1       2.557   2.860  20.496  0.00  0.00    +0.000 C 
ATOM     16  C   UNL     1       2.102   3.356  21.878  0.00  0.00    +0.000 C 
ATOM     17  C   UNL     1       1.354   2.234  19.763  0.00  0.00    +0.000 C 
ENDBRANCH  11  15
ENDBRANCH   6   9
BRANCH   1  18
ATOM     18  C   UNL     1       5.836   4.895  14.495  0.00  0.00    +0.000 C 
BRANCH  18  19
ATOM     19  C   UNL     1       6.541   3.735  13.765  0.00  0.00    +0.000 C 
BRANCH  19  20
ATOM     20  C   UNL     1       5.887   3.473  12.417  0.00  0.00    +0.000 C 
BRANCH  20  22
ATOM     21  C   UNL     1       6.133   1.466  11.213  0.00  0.00    +0.000 C 
ATOM     22  O   UNL     1       6.764   2.666  11.632  0.00  0.00    +0.000 OA
ENDBRANCH  20  22
ENDBRANCH  19  20
ENDBRANCH  18  19
ENDBRANCH   1  18
BRANCH   4  23
ATOM     23  C   UNL     1       6.734   7.127  18.255  0.00  0.00    +0.000 C 
BRANCH  23  24
ATOM     24  C   UNL     1       7.369   8.405  17.787  0.00  0.00    +0.000 C 
ATOM     25  O   UNL     1       7.022   8.956  16.753  0.00  0.00    +0.000 OA
ATOM     26  N   UNL     1       8.407   8.851  18.589  0.00  0.00    +0.000 N 
ATOM     27  H   UNL     1       8.382   8.581  19.565  0.00  0.00    +0.000 HD
BRANCH  26  28
ATOM     28  C   UNL     1       9.070  10.083  18.251  0.00  0.00    +0.000 C 
BRANCH  28  29
ATOM     29  C   UNL     1      10.045  10.545  19.348  0.00  0.00    +0.000 C 
ATOM     30  C   UNL     1      11.241  11.331  18.786  0.00  0.00    +0.000 C 
ATOM     31  C   UNL     1      10.847  12.711  18.260  0.00  0.00    +0.000 C 
ATOM     32  C   UNL     1      10.076  13.524  19.298  0.00  0.00    +0.000 C 
ATOM     33  C   UNL     1       8.888  12.755  19.867  0.00  0.00    +0.000 C 
ATOM     34  C   UNL     1       9.317  11.390  20.405  0.00  0.00    +0.000 C 
ENDBRANCH  28  29
ENDBRANCH  26  28
ENDBRANCH  23  24
ENDBRANCH   4  23
TORSDOF 11
ENDMDL
MODEL 8
REMARK VINA RESULT:      -6.3      7.413     11.148
REMARK  Name = 
REMARK  17 active torsions:
REMARK  status: ('A' for Active; 'I' for Inactive)
REMARK    1  A    between atoms: C_1  and  O_2
REMARK    2  A    between atoms: O_2  and  C_3
REMARK    3  A    between atoms: C_3  and  C_4
REMARK    4  A    between atoms: C_4  and  C_5
REMARK    5  A    between atoms: C_5  and  N_6
REMARK    6  A    between atoms: C_9  and  C_10
REMARK    7  A    between atoms: C_10  and  C_11
REMARK    8  A    between atoms: N_13  and  C_14
REMARK    9  A    between atoms: C_14  and  C_15
REMARK   10  A    between atoms: C_22  and  C_23
REMARK   11  A    between atoms: N_25  and  C_26
REMARK   12  A    between atoms: N_25  and  C_29
REMARK   13  A    between atoms: C_26  and  C_27
REMARK   14  A    between atoms: C_26  and  C_28
REMARK   15  A    between atoms: C_29  and  C_30
REMARK   16  A    between atoms: C_29  and  C_31
REMARK   17  A    between atoms: C_32  and  C_33
REMARK                            x       y       z     vdW  Elec       q    Type
REMARK                         _______ _______ _______ _____ _____    ______ ____
ROOT
ATOM      1  N   UNL     1       0.856  12.765  18.690  0.00  0.00    +0.000 N 
ATOM      2  C   UNL     1       1.332  11.462  18.562  0.00  0.00    +0.000 C 
ATOM      3  O   UNL     1       2.476  11.176  18.177  0.00  0.00    +0.000 OA
ATOM      4  C   UNL     1       0.465  10.373  19.075  0.00  0.00    +0.000 C 
ATOM      5  C   UNL     1      -0.997  10.770  18.854  0.00  0.00    +0.000 C 
ATOM      6  C   UNL     1      -1.363  12.097  19.468  0.00  0.00    +0.000 C 
ATOM      7  C   UNL     1      -0.421  13.081  19.282  0.00  0.00    +0.000 C 
ATOM      8  C   UNL     1      -0.576  14.551  19.644  0.00  0.00    +0.000 C 
ENDROOT
BRANCH   6   9
ATOM      9  C   UNL     1      -2.775  12.402  20.056  0.00  0.00    +0.000 C 
ATOM     10  O   UNL     1      -3.674  12.501  19.208  0.00  0.00    +0.000 OA
ATOM     11  N   UNL     1      -3.171  12.574  21.406  0.00  0.00    +0.000 N 
BRANCH  11  12
ATOM     12  C   UNL     1      -2.454  12.296  22.679  0.00  0.00    +0.000 C 
ATOM     13  C   UNL     1      -1.160  13.084  22.918  0.00  0.00    +0.000 C 
ATOM     14  C   UNL     1      -3.381  12.244  23.877  0.00  0.00    +0.000 C 
ENDBRANCH  11  12
BRANCH  11  15
ATOM     15  C   UNL     1      -4.545  13.200  21.607  0.00  0.00    +0.000 C 
ATOM     16  C   UNL     1      -4.641  14.641  21.080  0.00  0.00    +0.000 C 
ATOM     17  C   UNL     1      -5.706  12.371  21.026  0.00  0.00    +0.000 C 
ENDBRANCH  11  15
ENDBRANCH   6   9
BRANCH   1  18
ATOM     18  C   UNL     1       1.834  13.797  18.291  0.00  0.00    +0.000 C 
BRANCH  18  19
ATOM     19  C   UNL     1       2.891  14.104  19.370  0.00  0.00    +0.000 C 
BRANCH  19  20
ATOM     20  C   UNL     1       3.028  15.605  19.574  0.00  0.00    +0.000 C 
BRANCH  20  22
ATOM     21  C   UNL     1       2.635  14.895  21.783  0.00  0.00    +0.000 C 
ATOM     22  O   UNL     1       3.269  15.859  20.958  0.00  0.00    +0.000 OA
ENDBRANCH  20  22
ENDBRANCH  19  20
ENDBRANCH  18  19
ENDBRANCH   1  18
BRANCH   4  23
ATOM     23  C   UNL     1       0.778  10.088  20.537  0.00  0.00    +0.000 C 
BRANCH  23  24
ATOM     24  C   UNL     1       0.565   8.657  20.943  0.00  0.00    +0.000 C 
ATOM     25  O   UNL     1      -0.351   8.328  21.682  0.00  0.00    +0.000 OA
ATOM     26  N   UNL     1       1.523   7.781  20.462  0.00  0.00    +0.000 N 
ATOM     27  H   UNL     1       1.991   8.038  19.602  0.00  0.00    +0.000 HD
BRANCH  26  28
ATOM     28  C   UNL     1       1.402   6.379  20.766  0.00  0.00    +0.000 C 
BRANCH  28  29
ATOM     29  C   UNL     1       2.611   5.565  20.274  0.00  0.00    +0.000 C 
ATOM     30  C   UNL     1       2.500   4.070  20.618  0.00  0.00    +0.000 C 
ATOM     31  C   UNL     1       1.420   3.355  19.806  0.00  0.00    +0.000 C 
ATOM     32  C   UNL     1       1.589   3.577  18.304  0.00  0.00    +0.000 C 
ATOM     33  C   UNL     1       1.704   5.056  17.949  0.00  0.00    +0.000 C 
ATOM     34  C   UNL     1       2.805   5.738  18.760  0.00  0.00    +0.000 C 
ENDBRANCH  28  29
ENDBRANCH  26  28
ENDBRANCH  23  24
ENDBRANCH   4  23
TORSDOF 11
ENDMDL
MODEL 9
REMARK VINA RESULT:      -6.3      7.100     11.654
REMARK  Name = 
REMARK  17 active torsions:
REMARK  status: ('A' for Active; 'I' for Inactive)
REMARK    1  A    between atoms: C_1  and  O_2
REMARK    2  A    between atoms: O_2  and  C_3
REMARK    3  A    between atoms: C_3  and  C_4
REMARK    4  A    between atoms: C_4  and  C_5
REMARK    5  A    between atoms: C_5  and  N_6
REMARK    6  A    between atoms: C_9  and  C_10
REMARK    7  A    between atoms: C_10  and  C_11
REMARK    8  A    between atoms: N_13  and  C_14
REMARK    9  A    between atoms: C_14  and  C_15
REMARK   10  A    between atoms: C_22  and  C_23
REMARK   11  A    between atoms: N_25  and  C_26
REMARK   12  A    between atoms: N_25  and  C_29
REMARK   13  A    between atoms: C_26  and  C_27
REMARK   14  A    between atoms: C_26  and  C_28
REMARK   15  A    between atoms: C_29  and  C_30
REMARK   16  A    between atoms: C_29  and  C_31
REMARK   17  A    between atoms: C_32  and  C_33
REMARK                            x       y       z     vdW  Elec       q    Type
REMARK                         _______ _______ _______ _____ _____    ______ ____
ROOT
ATOM      1  N   UNL     1      -0.767  12.173  21.222  0.00  0.00    +0.000 N 
ATOM      2  C   UNL     1      -0.322  10.870  21.433  0.00  0.00    +0.000 C 
ATOM      3  O   UNL     1      -0.927  10.034  22.121  0.00  0.00    +0.000 OA
ATOM      4  C   UNL     1       0.857  10.424  20.650  0.00  0.00    +0.000 C 
ATOM      5  C   UNL     1       1.791  11.620  20.453  0.00  0.00    +0.000 C 
ATOM      6  C   UNL     1       1.125  12.809  19.810  0.00  0.00    +0.000 C 
ATOM      7  C   UNL     1      -0.132  13.081  20.298  0.00  0.00    +0.000 C 
ATOM      8  C   UNL     1      -0.980  14.300  19.962  0.00  0.00    +0.000 C 
ENDROOT
BRANCH   6   9
ATOM      9  C   UNL     1       1.871  13.787  18.852  0.00  0.00    +0.000 C 
ATOM     10  O   UNL     1       1.731  13.531  17.646  0.00  0.00    +0.000 OA
ATOM     11  N   UNL     1       2.671  14.916  19.159  0.00  0.00    +0.000 N 
BRANCH  11  12
ATOM     12  C   UNL     1       2.864  15.660  20.432  0.00  0.00    +0.000 C 
ATOM     13  C   UNL     1       1.694  16.537  20.892  0.00  0.00    +0.000 C 
ATOM     14  C   UNL     1       3.469  14.805  21.528  0.00  0.00    +0.000 C 
ENDBRANCH  11  12
BRANCH  11  15
ATOM     15  C   UNL     1       3.529  15.439  18.014  0.00  0.00    +0.000 C 
ATOM     16  C   UNL     1       3.018  16.764  17.427  0.00  0.00    +0.000 C 
ATOM     17  C   UNL     1       5.023  15.582  18.362  0.00  0.00    +0.000 C 
ENDBRANCH  11  15
ENDBRANCH   6   9
BRANCH   1  18
ATOM     18  C   UNL     1      -2.026  12.493  21.925  0.00  0.00    +0.000 C 
BRANCH  18  19
ATOM     19  C   UNL     1      -1.820  13.096  23.329  0.00  0.00    +0.000 C 
BRANCH  19  20
ATOM     20  C   UNL     1      -2.790  14.242  23.567  0.00  0.00    +0.000 C 
BRANCH  20  22
ATOM     21  C   UNL     1      -3.163  16.276  22.444  0.00  0.00    +0.000 C 
ATOM     22  O   UNL     1      -2.203  15.448  23.081  0.00  0.00    +0.000 OA
ENDBRANCH  20  22
ENDBRANCH  19  20
ENDBRANCH  18  19
ENDBRANCH   1  18
BRANCH   4  23
ATOM     23  C   UNL     1       0.417   9.804  19.331  0.00  0.00    +0.000 C 
BRANCH  23  24
ATOM     24  C   UNL     1       1.525   9.142  18.564  0.00  0.00    +0.000 C 
ATOM     25  O   UNL     1       1.994   9.640  17.552  0.00  0.00    +0.000 OA
ATOM     26  N   UNL     1       1.907   7.909  19.067  0.00  0.00    +0.000 N 
ATOM     27  H   UNL     1       1.761   7.752  20.056  0.00  0.00    +0.000 HD
BRANCH  26  28
ATOM     28  C   UNL     1       2.981   7.197  18.426  0.00  0.00    +0.000 C 
BRANCH  28  29
ATOM     29  C   UNL     1       3.350   5.901  19.168  0.00  0.00    +0.000 C 
ATOM     30  C   UNL     1       2.145   4.964  19.361  0.00  0.00    +0.000 C 
ATOM     31  C   UNL     1       1.673   4.330  18.053  0.00  0.00    +0.000 C 
ATOM     32  C   UNL     1       2.811   3.638  17.306  0.00  0.00    +0.000 C 
ATOM     33  C   UNL     1       4.015   4.555  17.110  0.00  0.00    +0.000 C 
ATOM     34  C   UNL     1       4.477   5.155  18.438  0.00  0.00    +0.000 C 
ENDBRANCH  28  29
ENDBRANCH  26  28
ENDBRANCH  23  24
ENDBRANCH   4  23
TORSDOF 11
ENDMDL
