MODEL 1
REMARK VINA RESULT:      -7.2      0.000      0.000
REMARK  Name = 
REMARK  7 active torsions:
REMARK  status: ('A' for Active; 'I' for Inactive)
REMARK    1  A    between atoms: C_1  and  C_2
REMARK    2  A    between atoms: C_2  and  O_3
REMARK    3  A    between atoms: C_2  and  C_4
REMARK    4  A    between atoms: C_8  and  N_9
REMARK    5  A    between atoms: C_10  and  C_12
REMARK    6  A    between atoms: C_14  and  C_15
REMARK    7  A    between atoms: N_18  and  C_19
REMARK                            x       y       z     vdW  Elec       q    Type
REMARK                         _______ _______ _______ _____ _____    ______ ____
ROOT
ATOM      1  C   UNL     1       0.307   9.275  21.792  0.00  0.00    +0.000 A 
ATOM      2  N   UNL     1       0.990   8.159  21.620  0.00  0.00    +0.000 NA
ATOM      3  C   UNL     1       1.436   8.198  20.320  0.00  0.00    +0.000 A 
ATOM      4  C   UNL     1       2.216   7.270  19.614  0.00  0.00    +0.000 A 
ATOM      5  C   UNL     1       2.558   7.521  18.276  0.00  0.00    +0.000 A 
ATOM      6  C   UNL     1       2.130   8.714  17.671  0.00  0.00    +0.000 A 
ATOM      7  C   UNL     1       1.335   9.650  18.355  0.00  0.00    +0.000 A 
ATOM      8  C   UNL     1       1.012   9.352  19.680  0.00  0.00    +0.000 A 
ATOM      9  N   UNL     1       0.279  10.014  20.633  0.00  0.00    +0.000 N 
ATOM     10  H   UNL     1      -0.203  10.892  20.507  0.00  0.00    +0.000 HD
ENDROOT
BRANCH   5  11
ATOM     11  N   UNL     1       3.328   6.618  17.499  0.00  0.00    +0.000 N 
ATOM     12  C   UNL     1       4.664   6.799  17.166  0.00  0.00    +0.000 C 
ATOM     13  O   UNL     1       5.348   7.731  17.570  0.00  0.00    +0.000 OA
ATOM     14  H   UNL     1       2.922   5.719  17.294  0.00  0.00    +0.000 HD
BRANCH  12  15
ATOM     15  C   UNL     1       5.252   5.755  16.336  0.00  0.00    +0.000 A 
ATOM     16  C   UNL     1       5.271   5.584  14.955  0.00  0.00    +0.000 A 
ATOM     17  C   UNL     1       6.071   4.449  14.655  0.00  0.00    +0.000 A 
ATOM     18  C   UNL     1       6.501   3.926  15.853  0.00  0.00    +0.000 A 
ATOM     19  N   UNL     1       6.010   4.715  16.860  0.00  0.00    +0.000 N 
ATOM     20  C   UNL     1       6.253   4.477  18.271  0.00  0.00    +0.000 C 
BRANCH  17  21
ATOM     21  C   UNL     1       6.409   3.931  13.364  0.00  0.00    +0.000 C 
ATOM     22  N   UNL     1       6.682   3.511  12.318  0.00  0.00    +0.000 NA
ENDBRANCH  17  21
ENDBRANCH  12  15
ENDBRANCH   5  11
BRANCH   1  24
ATOM     23  C   UNL     1      -0.954  11.112  22.934  0.00  0.00    +0.000 C 
ATOM     24  C   UNL     1      -0.392   9.704  23.041  0.00  0.00    +0.000 C 
BRANCH  24  25
ATOM     25  O   UNL     1       0.572   9.664  24.090  0.00  0.00    +0.000 OA
ATOM     26  H   UNL     1       0.922   8.751  24.090  0.00  0.00    +0.000 HD
ENDBRANCH  24  25
ENDBRANCH   1  24
TORSDOF 5
ENDMDL
MODEL 2
REMARK VINA RESULT:      -7.0      1.001      1.001
REMARK  Name = 
REMARK  7 active torsions:
REMARK  status: ('A' for Active; 'I' for Inactive)
REMARK    1  A    between atoms: C_1  and  C_2
REMARK    2  A    between atoms: C_2  and  O_3
REMARK    3  A    between atoms: C_2  and  C_4
REMARK    4  A    between atoms: C_8  and  N_9
REMARK    5  A    between atoms: C_10  and  C_12
REMARK    6  A    between atoms: C_14  and  C_15
REMARK    7  A    between atoms: N_18  and  C_19
REMARK                            x       y       z     vdW  Elec       q    Type
REMARK                         _______ _______ _______ _____ _____    ______ ____
ROOT
ATOM      1  C   UNL     1       0.034   9.386  21.789  0.00  0.00    +0.000 A 
ATOM      2  N   UNL     1       1.001   8.495  21.678  0.00  0.00    +0.000 NA
ATOM      3  C   UNL     1       1.391   8.539  20.360  0.00  0.00    +0.000 A 
ATOM      4  C   UNL     1       2.387   7.807  19.697  0.00  0.00    +0.000 A 
ATOM      5  C   UNL     1       2.615   8.021  18.328  0.00  0.00    +0.000 A 
ATOM      6  C   UNL     1       1.855   8.986  17.649  0.00  0.00    +0.000 A 
ATOM      7  C   UNL     1       0.842   9.720  18.291  0.00  0.00    +0.000 A 
ATOM      8  C   UNL     1       0.645   9.466  19.649  0.00  0.00    +0.000 A 
ATOM      9  N   UNL     1      -0.226   9.979  20.577  0.00  0.00    +0.000 N 
ATOM     10  H   UNL     1      -0.939  10.671  20.403  0.00  0.00    +0.000 HD
ENDROOT
BRANCH   5  11
ATOM     11  N   UNL     1       3.594   7.303  17.593  0.00  0.00    +0.000 N 
ATOM     12  C   UNL     1       3.690   5.919  17.541  0.00  0.00    +0.000 C 
ATOM     13  O   UNL     1       2.890   5.159  18.072  0.00  0.00    +0.000 OA
ATOM     14  H   UNL     1       4.169   7.827  16.953  0.00  0.00    +0.000 HD
BRANCH  12  15
ATOM     15  C   UNL     1       4.790   5.395  16.742  0.00  0.00    +0.000 A 
ATOM     16  C   UNL     1       5.019   5.422  15.369  0.00  0.00    +0.000 A 
ATOM     17  C   UNL     1       6.298   4.857  15.117  0.00  0.00    +0.000 A 
ATOM     18  C   UNL     1       6.816   4.465  16.331  0.00  0.00    +0.000 A 
ATOM     19  N   UNL     1       5.909   4.793  17.304  0.00  0.00    +0.000 N 
ATOM     20  C   UNL     1       6.104   4.533  18.718  0.00  0.00    +0.000 C 
BRANCH  17  21
ATOM     21  C   UNL     1       6.966   4.726  13.858  0.00  0.00    +0.000 C 
ATOM     22  N   UNL     1       7.510   4.619  12.839  0.00  0.00    +0.000 NA
ENDBRANCH  17  21
ENDBRANCH  12  15
ENDBRANCH   5  11
BRANCH   1  24
ATOM     23  C   UNL     1      -1.256  11.139  23.025  0.00  0.00    +0.000 C 
ATOM     24  C   UNL     1      -0.731   9.713  23.031  0.00  0.00    +0.000 C 
BRANCH  24  25
ATOM     25  O   UNL     1       0.166   9.550  24.126  0.00  0.00    +0.000 OA
ATOM     26  H   UNL     1      -0.149   8.760  24.607  0.00  0.00    +0.000 HD
ENDBRANCH  24  25
ENDBRANCH   1  24
TORSDOF 5
ENDMDL
MODEL 3
REMARK VINA RESULT:      -6.8      2.897      9.233
REMARK  Name = 
REMARK  7 active torsions:
REMARK  status: ('A' for Active; 'I' for Inactive)
REMARK    1  A    between atoms: C_1  and  C_2
REMARK    2  A    between atoms: C_2  and  O_3
REMARK    3  A    between atoms: C_2  and  C_4
REMARK    4  A    between atoms: C_8  and  N_9
REMARK    5  A    between atoms: C_10  and  C_12
REMARK    6  A    between atoms: C_14  and  C_15
REMARK    7  A    between atoms: N_18  and  C_19
REMARK                            x       y       z     vdW  Elec       q    Type
REMARK                         _______ _______ _______ _____ _____    ______ ____
ROOT
ATOM      1  C   UNL     1       3.834   4.721  19.012  0.00  0.00    +0.000 A 
ATOM      2  N   UNL     1       3.031   5.106  19.986  0.00  0.00    +0.000 NA
ATOM      3  C   UNL     1       2.590   6.358  19.625  0.00  0.00    +0.000 A 
ATOM      4  C   UNL     1       1.711   7.223  20.292  0.00  0.00    +0.000 A 
ATOM      5  C   UNL     1       1.398   8.470  19.728  0.00  0.00    +0.000 A 
ATOM      6  C   UNL     1       1.955   8.822  18.488  0.00  0.00    +0.000 A 
ATOM      7  C   UNL     1       2.851   7.976  17.811  0.00  0.00    +0.000 A 
ATOM      8  C   UNL     1       3.139   6.751  18.414  0.00  0.00    +0.000 A 
ATOM      9  N   UNL     1       3.943   5.699  18.053  0.00  0.00    +0.000 N 
ATOM     10  H   UNL     1       4.520   5.650  17.226  0.00  0.00    +0.000 HD
ENDROOT
BRANCH   5  11
ATOM     11  N   UNL     1       0.530   9.400  20.357  0.00  0.00    +0.000 N 
ATOM     12  C   UNL     1       0.734   9.949  21.616  0.00  0.00    +0.000 C 
ATOM     13  O   UNL     1       1.731   9.744  22.296  0.00  0.00    +0.000 OA
ATOM     14  H   UNL     1      -0.209   9.797  19.798  0.00  0.00    +0.000 HD
BRANCH  12  15
ATOM     15  C   UNL     1      -0.300  10.866  22.077  0.00  0.00    +0.000 A 
ATOM     16  C   UNL     1      -1.443  10.648  22.843  0.00  0.00    +0.000 A 
ATOM     17  C   UNL     1      -2.058  11.903  23.096  0.00  0.00    +0.000 A 
ATOM     18  C   UNL     1      -1.305  12.862  22.457  0.00  0.00    +0.000 A 
ATOM     19  N   UNL     1      -0.248  12.236  21.850  0.00  0.00    +0.000 N 
ATOM     20  C   UNL     1       0.768  12.923  21.075  0.00  0.00    +0.000 C 
BRANCH  17  21
ATOM     21  C   UNL     1      -3.226  12.166  23.881  0.00  0.00    +0.000 C 
ATOM     22  N   UNL     1      -4.173  12.378  24.516  0.00  0.00    +0.000 NA
ENDBRANCH  17  21
ENDBRANCH  12  15
ENDBRANCH   5  11
BRANCH   1  24
ATOM     23  C   UNL     1       4.287   2.524  20.123  0.00  0.00    +0.000 C 
ATOM     24  C   UNL     1       4.578   3.427  18.936  0.00  0.00    +0.000 C 
BRANCH  24  25
ATOM     25  O   UNL     1       5.966   3.747  18.921  0.00  0.00    +0.000 OA
ATOM     26  H   UNL     1       6.053   4.564  19.449  0.00  0.00    +0.000 HD
ENDBRANCH  24  25
ENDBRANCH   1  24
TORSDOF 5
ENDMDL
MODEL 4
REMARK VINA RESULT:      -6.8      2.369      8.999
REMARK  Name = 
REMARK  7 active torsions:
REMARK  status: ('A' for Active; 'I' for Inactive)
REMARK    1  A    between atoms: C_1  and  C_2
REMARK    2  A    between atoms: C_2  and  O_3
REMARK    3  A    between atoms: C_2  and  C_4
REMARK    4  A    between atoms: C_8  and  N_9
REMARK    5  A    between atoms: C_10  and  C_12
REMARK    6  A    between atoms: C_14  and  C_15
REMARK    7  A    between atoms: N_18  and  C_19
REMARK                            x       y       z     vdW  Elec       q    Type
REMARK                         _______ _______ _______ _____ _____    ______ ____
ROOT
ATOM      1  C   UNL     1       5.609   5.475  15.837  0.00  0.00    +0.000 A 
ATOM      2  N   UNL     1       5.362   6.723  16.190  0.00  0.00    +0.000 NA
ATOM      3  C   UNL     1       4.328   6.651  17.093  0.00  0.00    +0.000 A 
ATOM      4  C   UNL     1       3.677   7.680  17.790  0.00  0.00    +0.000 A 
ATOM      5  C   UNL     1       2.632   7.370  18.675  0.00  0.00    +0.000 A 
ATOM      6  C   UNL     1       2.272   6.027  18.867  0.00  0.00    +0.000 A 
ATOM      7  C   UNL     1       2.901   4.982  18.167  0.00  0.00    +0.000 A 
ATOM      8  C   UNL     1       3.927   5.340  17.291  0.00  0.00    +0.000 A 
ATOM      9  N   UNL     1       4.745   4.611  16.465  0.00  0.00    +0.000 N 
ATOM     10  H   UNL     1       4.719   3.610  16.337  0.00  0.00    +0.000 HD
ENDROOT
BRANCH   5  11
ATOM     11  N   UNL     1       1.920   8.362  19.398  0.00  0.00    +0.000 N 
ATOM     12  C   UNL     1       1.101   9.326  18.825  0.00  0.00    +0.000 C 
ATOM     13  O   UNL     1       0.846   9.380  17.629  0.00  0.00    +0.000 OA
ATOM     14  H   UNL     1       1.893   8.274  20.402  0.00  0.00    +0.000 HD
BRANCH  12  15
ATOM     15  C   UNL     1       0.486  10.262  19.757  0.00  0.00    +0.000 A 
ATOM     16  C   UNL     1      -0.481  10.073  20.741  0.00  0.00    +0.000 A 
ATOM     17  C   UNL     1      -0.654  11.298  21.439  0.00  0.00    +0.000 A 
ATOM     18  C   UNL     1       0.182  12.222  20.854  0.00  0.00    +0.000 A 
ATOM     19  N   UNL     1       0.867  11.595  19.847  0.00  0.00    +0.000 N 
ATOM     20  C   UNL     1       1.845  12.250  18.998  0.00  0.00    +0.000 C 
BRANCH  17  21
ATOM     21  C   UNL     1      -1.506  11.556  22.560  0.00  0.00    +0.000 C 
ATOM     22  N   UNL     1      -2.199  11.765  23.467  0.00  0.00    +0.000 NA
ENDBRANCH  17  21
ENDBRANCH  12  15
ENDBRANCH   5  11
BRANCH   1  24
ATOM     23  C   UNL     1       6.164   3.854  14.012  0.00  0.00    +0.000 C 
ATOM     24  C   UNL     1       6.645   5.018  14.862  0.00  0.00    +0.000 C 
BRANCH  24  25
ATOM     25  O   UNL     1       7.776   4.603  15.624  0.00  0.00    +0.000 OA
ATOM     26  H   UNL     1       8.513   4.540  14.986  0.00  0.00    +0.000 HD
ENDBRANCH  24  25
ENDBRANCH   1  24
TORSDOF 5
ENDMDL
MODEL 5
REMARK VINA RESULT:      -6.7      1.319      1.870
REMARK  Name = 
REMARK  7 active torsions:
REMARK  status: ('A' for Active; 'I' for Inactive)
REMARK    1  A    between atoms: C_1  and  C_2
REMARK    2  A    between atoms: C_2  and  O_3
REMARK    3  A    between atoms: C_2  and  C_4
REMARK    4  A    between atoms: C_8  and  N_9
REMARK    5  A    between atoms: C_10  and  C_12
REMARK    6  A    between atoms: C_14  and  C_15
REMARK    7  A    between atoms: N_18  and  C_19
REMARK                            x       y       z     vdW  Elec       q    Type
REMARK                         _______ _______ _______ _____ _____    ______ ____
ROOT
ATOM      1  C   UNL     1       0.283   9.510  21.305  0.00  0.00    +0.000 A 
ATOM      2  N   UNL     1       0.980   9.666  20.196  0.00  0.00    +0.000 NA
ATOM      3  C   UNL     1       1.499   8.425  19.911  0.00  0.00    +0.000 A 
ATOM      4  C   UNL     1       2.308   8.018  18.840  0.00  0.00    +0.000 A 
ATOM      5  C   UNL     1       2.725   6.680  18.749  0.00  0.00    +0.000 A 
ATOM      6  C   UNL     1       2.301   5.762  19.723  0.00  0.00    +0.000 A 
ATOM      7  C   UNL     1       1.502   6.152  20.813  0.00  0.00    +0.000 A 
ATOM      8  C   UNL     1       1.121   7.494  20.866  0.00  0.00    +0.000 A 
ATOM      9  N   UNL     1       0.363   8.214  21.755  0.00  0.00    +0.000 N 
ATOM     10  H   UNL     1      -0.064   7.857  22.597  0.00  0.00    +0.000 HD
ENDROOT
BRANCH   5  11
ATOM     11  N   UNL     1       3.558   6.206  17.703  0.00  0.00    +0.000 N 
ATOM     12  C   UNL     1       4.720   5.468  17.887  0.00  0.00    +0.000 C 
ATOM     13  O   UNL     1       5.116   5.082  18.980  0.00  0.00    +0.000 OA
ATOM     14  H   UNL     1       3.210   6.286  16.761  0.00  0.00    +0.000 HD
BRANCH  12  15
ATOM     15  C   UNL     1       5.434   5.106  16.670  0.00  0.00    +0.000 A 
ATOM     16  C   UNL     1       5.082   4.266  15.617  0.00  0.00    +0.000 A 
ATOM     17  C   UNL     1       6.096   4.343  14.625  0.00  0.00    +0.000 A 
ATOM     18  C   UNL     1       7.065   5.199  15.098  0.00  0.00    +0.000 A 
ATOM     19  N   UNL     1       6.661   5.658  16.324  0.00  0.00    +0.000 N 
ATOM     20  C   UNL     1       7.426   6.585  17.138  0.00  0.00    +0.000 C 
BRANCH  17  21
ATOM     21  C   UNL     1       6.130   3.689  13.352  0.00  0.00    +0.000 C 
ATOM     22  N   UNL     1       6.158   3.158  12.322  0.00  0.00    +0.000 NA
ENDBRANCH  17  21
ENDBRANCH  12  15
ENDBRANCH   5  11
BRANCH   1  24
ATOM     23  C   UNL     1      -0.072  11.972  21.592  0.00  0.00    +0.000 C 
ATOM     24  C   UNL     1      -0.473  10.574  22.034  0.00  0.00    +0.000 C 
BRANCH  24  25
ATOM     25  O   UNL     1      -0.177  10.418  23.419  0.00  0.00    +0.000 OA
ATOM     26  H   UNL     1       0.649   9.897  23.454  0.00  0.00    +0.000 HD
ENDBRANCH  24  25
ENDBRANCH   1  24
TORSDOF 5
ENDMDL
MODEL 6
REMARK VINA RESULT:      -6.7      2.468      8.990
REMARK  Name = 
REMARK  7 active torsions:
REMARK  status: ('A' for Active; 'I' for Inactive)
REMARK    1  A    between atoms: C_1  and  C_2
REMARK    2  A    between atoms: C_2  and  O_3
REMARK    3  A    between atoms: C_2  and  C_4
REMARK    4  A    between atoms: C_8  and  N_9
REMARK    5  A    between atoms: C_10  and  C_12
REMARK    6  A    between atoms: C_14  and  C_15
REMARK    7  A    between atoms: N_18  and  C_19
REMARK                            x       y       z     vdW  Elec       q    Type
REMARK                         _______ _______ _______ _____ _____    ______ ____
ROOT
ATOM      1  C   UNL     1       5.700   5.487  15.988  0.00  0.00    +0.000 A 
ATOM      2  N   UNL     1       5.253   6.720  16.136  0.00  0.00    +0.000 NA
ATOM      3  C   UNL     1       4.274   6.642  17.098  0.00  0.00    +0.000 A 
ATOM      4  C   UNL     1       3.477   7.657  17.647  0.00  0.00    +0.000 A 
ATOM      5  C   UNL     1       2.529   7.344  18.634  0.00  0.00    +0.000 A 
ATOM      6  C   UNL     1       2.411   6.015  19.074  0.00  0.00    +0.000 A 
ATOM      7  C   UNL     1       3.190   4.980  18.527  0.00  0.00    +0.000 A 
ATOM      8  C   UNL     1       4.111   5.339  17.542  0.00  0.00    +0.000 A 
ATOM      9  N   UNL     1       5.018   4.618  16.805  0.00  0.00    +0.000 N 
ATOM     10  H   UNL     1       5.160   3.620  16.852  0.00  0.00    +0.000 HD
ENDROOT
BRANCH   5  11
ATOM     11  N   UNL     1       1.679   8.318  19.217  0.00  0.00    +0.000 N 
ATOM     12  C   UNL     1       1.417   9.569  18.676  0.00  0.00    +0.000 C 
ATOM     13  O   UNL     1       1.839   9.944  17.589  0.00  0.00    +0.000 OA
ATOM     14  H   UNL     1       1.116   8.031  20.003  0.00  0.00    +0.000 HD
BRANCH  12  15
ATOM     15  C   UNL     1       0.531  10.421  19.459  0.00  0.00    +0.000 A 
ATOM     16  C   UNL     1       0.742  11.115  20.647  0.00  0.00    +0.000 A 
ATOM     17  C   UNL     1      -0.421  11.879  20.932  0.00  0.00    +0.000 A 
ATOM     18  C   UNL     1      -1.334  11.617  19.936  0.00  0.00    +0.000 A 
ATOM     19  N   UNL     1      -0.757  10.744  19.052  0.00  0.00    +0.000 N 
ATOM     20  C   UNL     1      -1.418  10.233  17.865  0.00  0.00    +0.000 C 
BRANCH  17  21
ATOM     21  C   UNL     1      -0.632  12.781  22.023  0.00  0.00    +0.000 C 
ATOM     22  N   UNL     1      -0.803  13.514  22.906  0.00  0.00    +0.000 NA
ENDBRANCH  17  21
ENDBRANCH  12  15
ENDBRANCH   5  11
BRANCH   1  24
ATOM     23  C   UNL     1       6.295   3.933  14.117  0.00  0.00    +0.000 C 
ATOM     24  C   UNL     1       6.770   5.039  15.045  0.00  0.00    +0.000 C 
BRANCH  24  25
ATOM     25  O   UNL     1       7.846   4.550  15.842  0.00  0.00    +0.000 OA
ATOM     26  H   UNL     1       7.844   3.581  15.719  0.00  0.00    +0.000 HD
ENDBRANCH  24  25
ENDBRANCH   1  24
TORSDOF 5
ENDMDL
MODEL 7
REMARK VINA RESULT:      -6.7      2.416      2.844
REMARK  Name = 
REMARK  7 active torsions:
REMARK  status: ('A' for Active; 'I' for Inactive)
REMARK    1  A    between atoms: C_1  and  C_2
REMARK    2  A    between atoms: C_2  and  O_3
REMARK    3  A    between atoms: C_2  and  C_4
REMARK    4  A    between atoms: C_8  and  N_9
REMARK    5  A    between atoms: C_10  and  C_12
REMARK    6  A    between atoms: C_14  and  C_15
REMARK    7  A    between atoms: N_18  and  C_19
REMARK                            x       y       z     vdW  Elec       q    Type
REMARK                         _______ _______ _______ _____ _____    ______ ____
ROOT
ATOM      1  C   UNL     1      -1.038  11.211  19.580  0.00  0.00    +0.000 A 
ATOM      2  N   UNL     1      -0.291  10.938  18.527  0.00  0.00    +0.000 NA
ATOM      3  C   UNL     1       0.526   9.903  18.915  0.00  0.00    +0.000 A 
ATOM      4  C   UNL     1       1.509   9.217  18.186  0.00  0.00    +0.000 A 
ATOM      5  C   UNL     1       2.231   8.178  18.794  0.00  0.00    +0.000 A 
ATOM      6  C   UNL     1       1.938   7.825  20.121  0.00  0.00    +0.000 A 
ATOM      7  C   UNL     1       0.968   8.509  20.875  0.00  0.00    +0.000 A 
ATOM      8  C   UNL     1       0.283   9.541  20.231  0.00  0.00    +0.000 A 
ATOM      9  N   UNL     1      -0.704  10.402  20.639  0.00  0.00    +0.000 N 
ATOM     10  H   UNL     1      -1.116  10.439  21.559  0.00  0.00    +0.000 HD
ENDROOT
BRANCH   5  11
ATOM     11  N   UNL     1       3.249   7.455  18.120  0.00  0.00    +0.000 N 
ATOM     12  C   UNL     1       3.188   6.104  17.806  0.00  0.00    +0.000 C 
ATOM     13  O   UNL     1       2.208   5.400  18.014  0.00  0.00    +0.000 OA
ATOM     14  H   UNL     1       4.005   7.986  17.718  0.00  0.00    +0.000 HD
BRANCH  12  15
ATOM     15  C   UNL     1       4.360   5.562  17.133  0.00  0.00    +0.000 A 
ATOM     16  C   UNL     1       4.963   5.902  15.924  0.00  0.00    +0.000 A 
ATOM     17  C   UNL     1       6.146   5.129  15.781  0.00  0.00    +0.000 A 
ATOM     18  C   UNL     1       6.233   4.309  16.882  0.00  0.00    +0.000 A 
ATOM     19  N   UNL     1       5.161   4.575  17.694  0.00  0.00    +0.000 N 
ATOM     20  C   UNL     1       4.910   3.902  18.955  0.00  0.00    +0.000 C 
BRANCH  17  21
ATOM     21  C   UNL     1       7.105   5.183  14.719  0.00  0.00    +0.000 C 
ATOM     22  N   UNL     1       7.882   5.228  13.860  0.00  0.00    +0.000 NA
ENDBRANCH  17  21
ENDBRANCH  12  15
ENDBRANCH   5  11
BRANCH   1  24
ATOM     23  C   UNL     1      -3.377  11.867  18.975  0.00  0.00    +0.000 C 
ATOM     24  C   UNL     1      -2.088  12.271  19.671  0.00  0.00    +0.000 C 
BRANCH  24  25
ATOM     25  O   UNL     1      -1.560  13.434  19.039  0.00  0.00    +0.000 OA
ATOM     26  H   UNL     1      -0.837  13.742  19.619  0.00  0.00    +0.000 HD
ENDBRANCH  24  25
ENDBRANCH   1  24
TORSDOF 5
ENDMDL
MODEL 8
REMARK VINA RESULT:      -6.6      2.299      2.923
REMARK  Name = 
REMARK  7 active torsions:
REMARK  status: ('A' for Active; 'I' for Inactive)
REMARK    1  A    between atoms: C_1  and  C_2
REMARK    2  A    between atoms: C_2  and  O_3
REMARK    3  A    between atoms: C_2  and  C_4
REMARK    4  A    between atoms: C_8  and  N_9
REMARK    5  A    between atoms: C_10  and  C_12
REMARK    6  A    between atoms: C_14  and  C_15
REMARK    7  A    between atoms: N_18  and  C_19
REMARK                            x       y       z     vdW  Elec       q    Type
REMARK                         _______ _______ _______ _____ _____    ______ ____
ROOT
ATOM      1  C   UNL     1      -0.788  11.371  22.102  0.00  0.00    +0.000 A 
ATOM      2  N   UNL     1       0.139  10.436  22.200  0.00  0.00    +0.000 NA
ATOM      3  C   UNL     1       0.414  10.056  20.908  0.00  0.00    +0.000 A 
ATOM      4  C   UNL     1       1.327   9.103  20.432  0.00  0.00    +0.000 A 
ATOM      5  C   UNL     1       1.442   8.876  19.051  0.00  0.00    +0.000 A 
ATOM      6  C   UNL     1       0.655   9.628  18.164  0.00  0.00    +0.000 A 
ATOM      7  C   UNL     1      -0.277  10.577  18.621  0.00  0.00    +0.000 A 
ATOM      8  C   UNL     1      -0.363  10.761  20.002  0.00  0.00    +0.000 A 
ATOM      9  N   UNL     1      -1.134  11.579  20.789  0.00  0.00    +0.000 N 
ATOM     10  H   UNL     1      -1.838  12.224  20.462  0.00  0.00    +0.000 HD
ENDROOT
BRANCH   5  11
ATOM     11  N   UNL     1       2.332   7.916  18.503  0.00  0.00    +0.000 N 
ATOM     12  C   UNL     1       2.633   6.691  19.084  0.00  0.00    +0.000 C 
ATOM     13  O   UNL     1       2.103   6.273  20.106  0.00  0.00    +0.000 OA
ATOM     14  H   UNL     1       2.657   8.069  17.562  0.00  0.00    +0.000 HD
BRANCH  12  15
ATOM     15  C   UNL     1       3.594   5.870  18.359  0.00  0.00    +0.000 A 
ATOM     16  C   UNL     1       4.969   6.006  18.186  0.00  0.00    +0.000 A 
ATOM     17  C   UNL     1       5.444   4.873  17.474  0.00  0.00    +0.000 A 
ATOM     18  C   UNL     1       4.355   4.080  17.194  0.00  0.00    +0.000 A 
ATOM     19  N   UNL     1       3.246   4.681  17.731  0.00  0.00    +0.000 N 
ATOM     20  C   UNL     1       1.903   4.139  17.638  0.00  0.00    +0.000 C 
BRANCH  17  21
ATOM     21  C   UNL     1       6.796   4.565  17.118  0.00  0.00    +0.000 C 
ATOM     22  N   UNL     1       7.891   4.313  16.830  0.00  0.00    +0.000 NA
ENDBRANCH  17  21
ENDBRANCH  12  15
ENDBRANCH   5  11
BRANCH   1  24
ATOM     23  C   UNL     1      -2.897  12.406  22.966  0.00  0.00    +0.000 C 
ATOM     24  C   UNL     1      -1.432  12.103  23.234  0.00  0.00    +0.000 C 
BRANCH  24  25
ATOM     25  O   UNL     1      -0.723  13.328  23.393  0.00  0.00    +0.000 OA
ATOM     26  H   UNL     1      -0.985  13.884  22.633  0.00  0.00    +0.000 HD
ENDBRANCH  24  25
ENDBRANCH   1  24
TORSDOF 5
ENDMDL
MODEL 9
REMARK VINA RESULT:      -6.6      1.412      1.910
REMARK  Name = 
REMARK  7 active torsions:
REMARK  status: ('A' for Active; 'I' for Inactive)
REMARK    1  A    between atoms: C_1  and  C_2
REMARK    2  A    between atoms: C_2  and  O_3
REMARK    3  A    between atoms: C_2  and  C_4
REMARK    4  A    between atoms: C_8  and  N_9
REMARK    5  A    between atoms: C_10  and  C_12
REMARK    6  A    between atoms: C_14  and  C_15
REMARK    7  A    between atoms: N_18  and  C_19
REMARK                            x       y       z     vdW  Elec       q    Type
REMARK                         _______ _______ _______ _____ _____    ______ ____
ROOT
ATOM      1  C   UNL     1       0.454  10.163  20.324  0.00  0.00    +0.000 A 
ATOM      2  N   UNL     1       1.066   9.976  19.169  0.00  0.00    +0.000 NA
ATOM      3  C   UNL     1       1.613   8.717  19.243  0.00  0.00    +0.000 A 
ATOM      4  C   UNL     1       2.363   8.011  18.291  0.00  0.00    +0.000 A 
ATOM      5  C   UNL     1       2.824   6.718  18.586  0.00  0.00    +0.000 A 
ATOM      6  C   UNL     1       2.505   6.142  19.826  0.00  0.00    +0.000 A 
ATOM      7  C   UNL     1       1.768   6.839  20.800  0.00  0.00    +0.000 A 
ATOM      8  C   UNL     1       1.339   8.124  20.466  0.00  0.00    +0.000 A 
ATOM      9  N   UNL     1       0.615   9.072  21.144  0.00  0.00    +0.000 N 
ATOM     10  H   UNL     1       0.262   8.988  22.085  0.00  0.00    +0.000 HD
ENDROOT
BRANCH   5  11
ATOM     11  N   UNL     1       3.602   5.955  17.677  0.00  0.00    +0.000 N 
ATOM     12  C   UNL     1       4.830   6.347  17.160  0.00  0.00    +0.000 C 
ATOM     13  O   UNL     1       5.414   7.371  17.493  0.00  0.00    +0.000 OA
ATOM     14  H   UNL     1       3.313   5.005  17.503  0.00  0.00    +0.000 HD
BRANCH  12  15
ATOM     15  C   UNL     1       5.442   5.417  16.221  0.00  0.00    +0.000 A 
ATOM     16  C   UNL     1       5.121   5.101  14.904  0.00  0.00    +0.000 A 
ATOM     17  C   UNL     1       6.103   4.203  14.407  0.00  0.00    +0.000 A 
ATOM     18  C   UNL     1       6.988   3.958  15.432  0.00  0.00    +0.000 A 
ATOM     19  N   UNL     1       6.590   4.693  16.518  0.00  0.00    +0.000 N 
ATOM     20  C   UNL     1       7.279   4.693  17.796  0.00  0.00    +0.000 C 
BRANCH  17  21
ATOM     21  C   UNL     1       6.203   3.653  13.088  0.00  0.00    +0.000 C 
ATOM     22  N   UNL     1       6.285   3.207  12.021  0.00  0.00    +0.000 NA
ENDBRANCH  17  21
ENDBRANCH  12  15
ENDBRANCH   5  11
BRANCH   1  24
ATOM     23  C   UNL     1      -0.778  11.302  22.181  0.00  0.00    +0.000 C 
ATOM     24  C   UNL     1      -0.292  11.388  20.744  0.00  0.00    +0.000 C 
BRANCH  24  25
ATOM     25  O   UNL     1      -1.417  11.506  19.877  0.00  0.00    +0.000 OA
ATOM     26  H   UNL     1      -1.144  11.091  19.035  0.00  0.00    +0.000 HD
ENDBRANCH  24  25
ENDBRANCH   1  24
TORSDOF 5
ENDMDL
