MODEL 1
REMARK VINA RESULT:      -8.1      0.000      0.000
REMARK  Name = 
REMARK  5 active torsions:
REMARK  status: ('A' for Active; 'I' for Inactive)
REMARK    1  A    between atoms: C_1  and  C_2
REMARK    2  A    between atoms: C_5  and  C_6
REMARK    3  A    between atoms: C_10  and  C_11
REMARK    4  A    between atoms: C_20  and  C_21
REMARK    5  A    between atoms: C_25  and  N_26
REMARK                            x       y       z     vdW  Elec       q    Type
REMARK                         _______ _______ _______ _____ _____    ______ ____
ROOT
ATOM      1  C   UNL     1      -1.265  12.233  22.684  0.00  0.00    +0.000 A 
ATOM      2  N   UNL     1      -1.377  10.910  23.116  0.00  0.00    +0.000 NA
ATOM      3  C   UNL     1      -0.567  10.272  22.323  0.00  0.00    +0.000 A 
ATOM      4  S   UNL     1      -0.117   8.639  22.089  0.00  0.00    +0.000 S 
ATOM      5  C   UNL     1       0.896   9.220  20.737  0.00  0.00    +0.000 A 
ATOM      6  N   UNL     1       0.902  10.508  20.497  0.00  0.00    +0.000 NA
ATOM      7  N   UNL     1       0.061  11.059  21.420  0.00  0.00    +0.000 N 
ATOM      8  C   UNL     1      -0.339  12.347  21.639  0.00  0.00    +0.000 A 
ENDROOT
BRANCH   8   9
ATOM      9  C   UNL     1       0.157  13.461  20.904  0.00  0.00    +0.000 A 
ATOM     10  N   UNL     1      -0.595  14.359  20.310  0.00  0.00    +0.000 NA
ATOM     11  C   UNL     1       0.261  15.165  19.610  0.00  0.00    +0.000 A 
ATOM     12  C   UNL     1      -0.031  16.241  18.766  0.00  0.00    +0.000 A 
ATOM     13  C   UNL     1       1.046  16.891  18.145  0.00  0.00    +0.000 A 
ATOM     14  C   UNL     1       2.374  16.482  18.360  0.00  0.00    +0.000 A 
ATOM     15  C   UNL     1       2.668  15.404  19.205  0.00  0.00    +0.000 A 
ATOM     16  C   UNL     1       1.581  14.774  19.812  0.00  0.00    +0.000 A 
ATOM     17  N   UNL     1       1.487  13.709  20.674  0.00  0.00    +0.000 N 
ATOM     18  H   UNL     1       2.253  13.161  21.042  0.00  0.00    +0.000 HD
BRANCH  13  19
ATOM     19  N   UNL     1       0.773  18.021  17.248  0.00  0.00    +0.000 N 
ATOM     20  O   UNL     1      -0.403  18.385  17.116  0.00  0.00    +0.000 OA
ATOM     21  O   UNL     1       1.739  18.545  16.674  0.00  0.00    +0.000 OA
ENDBRANCH  13  19
ENDBRANCH   8   9
BRANCH   1  26
ATOM     22  C   UNL     1      -4.369  16.593  24.866  0.00  0.00    +0.000 C 
ATOM     23  C   UNL     1      -3.550  15.446  24.355  0.00  0.00    +0.000 A 
ATOM     24  C   UNL     1      -2.153  15.462  24.403  0.00  0.00    +0.000 A 
ATOM     25  C   UNL     1      -1.410  14.399  23.873  0.00  0.00    +0.000 A 
ATOM     26  C   UNL     1      -2.053  13.304  23.282  0.00  0.00    +0.000 A 
ATOM     27  C   UNL     1      -3.452  13.269  23.297  0.00  0.00    +0.000 A 
ATOM     28  C   UNL     1      -4.195  14.337  23.804  0.00  0.00    +0.000 A 
ENDBRANCH   1  26
BRANCH   5  29
ATOM     29  C   UNL     1       1.693   8.251  19.952  0.00  0.00    +0.000 A 
ATOM     30  C   UNL     1       1.993   6.971  20.438  0.00  0.00    +0.000 A 
ATOM     31  C   UNL     1       2.721   6.074  19.650  0.00  0.00    +0.000 A 
ATOM     32  C   UNL     1       3.153   6.454  18.380  0.00  0.00    +0.000 A 
ATOM     33 CL   UNL     1       4.043   5.347  17.413  0.00  0.00    +0.000 Cl
ATOM     34  C   UNL     1       2.858   7.725  17.888  0.00  0.00    +0.000 A 
ATOM     35  C   UNL     1       2.124   8.621  18.670  0.00  0.00    +0.000 A 
ENDBRANCH   5  29
TORSDOF 4
ENDMDL
MODEL 2
REMARK VINA RESULT:      -8.1      5.203      8.062
REMARK  Name = 
REMARK  5 active torsions:
REMARK  status: ('A' for Active; 'I' for Inactive)
REMARK    1  A    between atoms: C_1  and  C_2
REMARK    2  A    between atoms: C_5  and  C_6
REMARK    3  A    between atoms: C_10  and  C_11
REMARK    4  A    between atoms: C_20  and  C_21
REMARK    5  A    between atoms: C_25  and  N_26
REMARK                            x       y       z     vdW  Elec       q    Type
REMARK                         _______ _______ _______ _____ _____    ______ ____
ROOT
ATOM      1  C   UNL     1      -0.403  13.034  18.643  0.00  0.00    +0.000 A 
ATOM      2  N   UNL     1      -0.219  14.418  18.622  0.00  0.00    +0.000 NA
ATOM      3  C   UNL     1       1.074  14.543  18.704  0.00  0.00    +0.000 A 
ATOM      4  S   UNL     1       2.173  15.848  18.799  0.00  0.00    +0.000 S 
ATOM      5  C   UNL     1       3.461  14.619  18.943  0.00  0.00    +0.000 A 
ATOM      6  N   UNL     1       3.101  13.359  18.910  0.00  0.00    +0.000 NA
ATOM      7  N   UNL     1       1.742  13.369  18.773  0.00  0.00    +0.000 N 
ATOM      8  C   UNL     1       0.824  12.360  18.705  0.00  0.00    +0.000 A 
ENDROOT
BRANCH   8   9
ATOM      9  C   UNL     1       1.170  10.979  18.700  0.00  0.00    +0.000 A 
ATOM     10  N   UNL     1       0.967  10.154  19.702  0.00  0.00    +0.000 NA
ATOM     11  C   UNL     1       1.562   8.975  19.346  0.00  0.00    +0.000 A 
ATOM     12  C   UNL     1       1.682   7.790  20.079  0.00  0.00    +0.000 A 
ATOM     13  C   UNL     1       2.368   6.722  19.482  0.00  0.00    +0.000 A 
ATOM     14  C   UNL     1       2.919   6.832  18.193  0.00  0.00    +0.000 A 
ATOM     15  C   UNL     1       2.800   8.018  17.457  0.00  0.00    +0.000 A 
ATOM     16  C   UNL     1       2.112   9.065  18.071  0.00  0.00    +0.000 A 
ATOM     17  N   UNL     1       1.811  10.343  17.667  0.00  0.00    +0.000 N 
ATOM     18  H   UNL     1       2.059  10.771  16.785  0.00  0.00    +0.000 HD
BRANCH  13  19
ATOM     19  N   UNL     1       2.517   5.466  20.227  0.00  0.00    +0.000 N 
ATOM     20  O   UNL     1       3.569   4.828  20.082  0.00  0.00    +0.000 OA
ATOM     21  O   UNL     1       1.580   5.117  20.959  0.00  0.00    +0.000 OA
ENDBRANCH  13  19
ENDBRANCH   8   9
BRANCH   1  26
ATOM     22  C   UNL     1      -5.755  10.860  18.447  0.00  0.00    +0.000 C 
ATOM     23  C   UNL     1      -4.354  11.385  18.541  0.00  0.00    +0.000 A 
ATOM     24  C   UNL     1      -3.932  12.162  19.623  0.00  0.00    +0.000 A 
ATOM     25  C   UNL     1      -2.632  12.683  19.662  0.00  0.00    +0.000 A 
ATOM     26  C   UNL     1      -1.734  12.438  18.616  0.00  0.00    +0.000 A 
ATOM     27  C   UNL     1      -2.147  11.605  17.569  0.00  0.00    +0.000 A 
ATOM     28  C   UNL     1      -3.449  11.104  17.517  0.00  0.00    +0.000 A 
ENDBRANCH   1  26
BRANCH   5  29
ATOM     29  C   UNL     1       4.870  15.049  19.078  0.00  0.00    +0.000 A 
ATOM     30  C   UNL     1       5.348  15.673  20.240  0.00  0.00    +0.000 A 
ATOM     31  C   UNL     1       6.696  16.034  20.338  0.00  0.00    +0.000 A 
ATOM     32  C   UNL     1       7.565  15.777  19.280  0.00  0.00    +0.000 A 
ATOM     33 CL   UNL     1       9.222  16.218  19.408  0.00  0.00    +0.000 Cl
ATOM     34  C   UNL     1       7.100  15.156  18.122  0.00  0.00    +0.000 A 
ATOM     35  C   UNL     1       5.756  14.787  18.022  0.00  0.00    +0.000 A 
ENDBRANCH   5  29
TORSDOF 4
ENDMDL
MODEL 3
REMARK VINA RESULT:      -8.0      0.810      1.408
REMARK  Name = 
REMARK  5 active torsions:
REMARK  status: ('A' for Active; 'I' for Inactive)
REMARK    1  A    between atoms: C_1  and  C_2
REMARK    2  A    between atoms: C_5  and  C_6
REMARK    3  A    between atoms: C_10  and  C_11
REMARK    4  A    between atoms: C_20  and  C_21
REMARK    5  A    between atoms: C_25  and  N_26
REMARK                            x       y       z     vdW  Elec       q    Type
REMARK                         _______ _______ _______ _____ _____    ______ ____
ROOT
ATOM      1  C   UNL     1      -1.131  11.909  22.611  0.00  0.00    +0.000 A 
ATOM      2  N   UNL     1      -1.116  10.620  23.146  0.00  0.00    +0.000 NA
ATOM      3  C   UNL     1      -0.362   9.965  22.312  0.00  0.00    +0.000 A 
ATOM      4  S   UNL     1       0.157   8.345  22.143  0.00  0.00    +0.000 S 
ATOM      5  C   UNL     1       0.977   8.871  20.646  0.00  0.00    +0.000 A 
ATOM      6  N   UNL     1       0.880  10.136  20.317  0.00  0.00    +0.000 NA
ATOM      7  N   UNL     1       0.114  10.712  21.289  0.00  0.00    +0.000 N 
ATOM      8  C   UNL     1      -0.335  11.990  21.462  0.00  0.00    +0.000 A 
ENDROOT
BRANCH   8   9
ATOM      9  C   UNL     1       0.009  13.068  20.598  0.00  0.00    +0.000 A 
ATOM     10  N   UNL     1       1.212  13.287  20.116  0.00  0.00    +0.000 NA
ATOM     11  C   UNL     1       1.143  14.483  19.456  0.00  0.00    +0.000 A 
ATOM     12  C   UNL     1       2.160  15.195  18.812  0.00  0.00    +0.000 A 
ATOM     13  C   UNL     1       1.821  16.424  18.226  0.00  0.00    +0.000 A 
ATOM     14  C   UNL     1       0.509  16.927  18.280  0.00  0.00    +0.000 A 
ATOM     15  C   UNL     1      -0.510  16.215  18.924  0.00  0.00    +0.000 A 
ATOM     16  C   UNL     1      -0.149  14.995  19.499  0.00  0.00    +0.000 A 
ATOM     17  N   UNL     1      -0.861  14.052  20.199  0.00  0.00    +0.000 N 
ATOM     18  H   UNL     1      -1.844  14.088  20.433  0.00  0.00    +0.000 HD
BRANCH  13  19
ATOM     19  N   UNL     1       2.866  17.200  17.547  0.00  0.00    +0.000 N 
ATOM     20  O   UNL     1       3.985  17.252  18.076  0.00  0.00    +0.000 OA
ATOM     21  O   UNL     1       2.567  17.759  16.482  0.00  0.00    +0.000 OA
ENDBRANCH  13  19
ENDBRANCH   8   9
BRANCH   1  26
ATOM     22  C   UNL     1      -4.209  16.270  24.829  0.00  0.00    +0.000 C 
ATOM     23  C   UNL     1      -3.395  15.124  24.308  0.00  0.00    +0.000 A 
ATOM     24  C   UNL     1      -1.997  15.158  24.305  0.00  0.00    +0.000 A 
ATOM     25  C   UNL     1      -1.261  14.095  23.766  0.00  0.00    +0.000 A 
ATOM     26  C   UNL     1      -1.910  12.982  23.219  0.00  0.00    +0.000 A 
ATOM     27  C   UNL     1      -3.307  12.930  23.287  0.00  0.00    +0.000 A 
ATOM     28  C   UNL     1      -4.045  13.998  23.802  0.00  0.00    +0.000 A 
ENDBRANCH   1  26
BRANCH   5  29
ATOM     29  C   UNL     1       1.738   7.887  19.846  0.00  0.00    +0.000 A 
ATOM     30  C   UNL     1       1.967   6.580  20.298  0.00  0.00    +0.000 A 
ATOM     31  C   UNL     1       2.663   5.671  19.494  0.00  0.00    +0.000 A 
ATOM     32  C   UNL     1       3.134   6.066  18.243  0.00  0.00    +0.000 A 
ATOM     33 CL   UNL     1       3.986   4.944  17.257  0.00  0.00    +0.000 Cl
ATOM     34  C   UNL     1       2.912   7.364  17.785  0.00  0.00    +0.000 A 
ATOM     35  C   UNL     1       2.209   8.272  18.582  0.00  0.00    +0.000 A 
ENDBRANCH   5  29
TORSDOF 4
ENDMDL
MODEL 4
REMARK VINA RESULT:      -8.0      1.026      1.748
REMARK  Name = 
REMARK  5 active torsions:
REMARK  status: ('A' for Active; 'I' for Inactive)
REMARK    1  A    between atoms: C_1  and  C_2
REMARK    2  A    between atoms: C_5  and  C_6
REMARK    3  A    between atoms: C_10  and  C_11
REMARK    4  A    between atoms: C_20  and  C_21
REMARK    5  A    between atoms: C_25  and  N_26
REMARK                            x       y       z     vdW  Elec       q    Type
REMARK                         _______ _______ _______ _____ _____    ______ ____
ROOT
ATOM      1  C   UNL     1      -0.870  11.485  22.391  0.00  0.00    +0.000 A 
ATOM      2  N   UNL     1      -0.818  10.173  22.867  0.00  0.00    +0.000 NA
ATOM      3  C   UNL     1      -0.056   9.576  21.997  0.00  0.00    +0.000 A 
ATOM      4  S   UNL     1       0.501   7.979  21.751  0.00  0.00    +0.000 S 
ATOM      5  C   UNL     1       1.293   8.593  20.272  0.00  0.00    +0.000 A 
ATOM      6  N   UNL     1       1.161   9.869  20.001  0.00  0.00    +0.000 NA
ATOM      7  N   UNL     1       0.391  10.380  21.005  0.00  0.00    +0.000 N 
ATOM      8  C   UNL     1      -0.088  11.638  21.239  0.00  0.00    +0.000 A 
ENDROOT
BRANCH   8   9
ATOM      9  C   UNL     1       0.220  12.762  20.422  0.00  0.00    +0.000 A 
ATOM     10  N   UNL     1       1.425  13.073  20.001  0.00  0.00    +0.000 NA
ATOM     11  C   UNL     1       1.305  14.282  19.372  0.00  0.00    +0.000 A 
ATOM     12  C   UNL     1       2.299  15.078  18.794  0.00  0.00    +0.000 A 
ATOM     13  C   UNL     1       1.906  16.300  18.228  0.00  0.00    +0.000 A 
ATOM     14  C   UNL     1       0.563  16.716  18.238  0.00  0.00    +0.000 A 
ATOM     15  C   UNL     1      -0.434  15.919  18.817  0.00  0.00    +0.000 A 
ATOM     16  C   UNL     1      -0.019  14.708  19.372  0.00  0.00    +0.000 A 
ATOM     17  N   UNL     1      -0.696  13.700  20.013  0.00  0.00    +0.000 N 
ATOM     18  H   UNL     1      -1.688  13.665  20.205  0.00  0.00    +0.000 HD
BRANCH  13  19
ATOM     19  N   UNL     1       2.925  17.162  17.618  0.00  0.00    +0.000 N 
ATOM     20  O   UNL     1       2.620  17.780  16.588  0.00  0.00    +0.000 OA
ATOM     21  O   UNL     1       4.033  17.222  18.170  0.00  0.00    +0.000 OA
ENDBRANCH  13  19
ENDBRANCH   8   9
BRANCH   1  26
ATOM     22  C   UNL     1      -4.067  15.643  24.821  0.00  0.00    +0.000 C 
ATOM     23  C   UNL     1      -3.213  14.554  24.244  0.00  0.00    +0.000 A 
ATOM     24  C   UNL     1      -1.840  14.724  24.048  0.00  0.00    +0.000 A 
ATOM     25  C   UNL     1      -1.074  13.709  23.460  0.00  0.00    +0.000 A 
ATOM     26  C   UNL     1      -1.670  12.509  23.054  0.00  0.00    +0.000 A 
ATOM     27  C   UNL     1      -3.034  12.325  23.313  0.00  0.00    +0.000 A 
ATOM     28  C   UNL     1      -3.804  13.343  23.879  0.00  0.00    +0.000 A 
ENDBRANCH   1  26
BRANCH   5  29
ATOM     29  C   UNL     1       2.071   7.666  19.421  0.00  0.00    +0.000 A 
ATOM     30  C   UNL     1       2.621   8.067  18.196  0.00  0.00    +0.000 A 
ATOM     31  C   UNL     1       3.378   7.168  17.438  0.00  0.00    +0.000 A 
ATOM     32  C   UNL     1       3.583   5.868  17.900  0.00  0.00    +0.000 A 
ATOM     33 CL   UNL     1       4.518   4.768  16.967  0.00  0.00    +0.000 Cl
ATOM     34  C   UNL     1       3.040   5.460  19.117  0.00  0.00    +0.000 A 
ATOM     35  C   UNL     1       2.290   6.359  19.880  0.00  0.00    +0.000 A 
ENDBRANCH   5  29
TORSDOF 4
ENDMDL
MODEL 5
REMARK VINA RESULT:      -7.9      0.249      1.195
REMARK  Name = 
REMARK  5 active torsions:
REMARK  status: ('A' for Active; 'I' for Inactive)
REMARK    1  A    between atoms: C_1  and  C_2
REMARK    2  A    between atoms: C_5  and  C_6
REMARK    3  A    between atoms: C_10  and  C_11
REMARK    4  A    between atoms: C_20  and  C_21
REMARK    5  A    between atoms: C_25  and  N_26
REMARK                            x       y       z     vdW  Elec       q    Type
REMARK                         _______ _______ _______ _____ _____    ______ ____
ROOT
ATOM      1  C   UNL     1      -1.095  12.202  22.551  0.00  0.00    +0.000 A 
ATOM      2  N   UNL     1      -1.217  10.876  22.974  0.00  0.00    +0.000 NA
ATOM      3  C   UNL     1      -0.441  10.233  22.152  0.00  0.00    +0.000 A 
ATOM      4  S   UNL     1      -0.024   8.596  21.890  0.00  0.00    +0.000 S 
ATOM      5  C   UNL     1       0.959   9.173  20.514  0.00  0.00    +0.000 A 
ATOM      6  N   UNL     1       0.979  10.463  20.286  0.00  0.00    +0.000 NA
ATOM      7  N   UNL     1       0.174  11.018  21.238  0.00  0.00    +0.000 N 
ATOM      8  C   UNL     1      -0.198  12.311  21.481  0.00  0.00    +0.000 A 
ENDROOT
BRANCH   8   9
ATOM      9  C   UNL     1       0.295  13.423  20.742  0.00  0.00    +0.000 A 
ATOM     10  N   UNL     1      -0.452  14.388  20.254  0.00  0.00    +0.000 NA
ATOM     11  C   UNL     1       0.384  15.170  19.506  0.00  0.00    +0.000 A 
ATOM     12  C   UNL     1       0.080  16.295  18.732  0.00  0.00    +0.000 A 
ATOM     13  C   UNL     1       1.133  16.908  18.035  0.00  0.00    +0.000 A 
ATOM     14  C   UNL     1       2.448  16.414  18.108  0.00  0.00    +0.000 A 
ATOM     15  C   UNL     1       2.752  15.287  18.882  0.00  0.00    +0.000 A 
ATOM     16  C   UNL     1       1.690  14.696  19.567  0.00  0.00    +0.000 A 
ATOM     17  N   UNL     1       1.611  13.604  20.396  0.00  0.00    +0.000 N 
ATOM     18  H   UNL     1       2.372  12.997  20.669  0.00  0.00    +0.000 HD
BRANCH  13  19
ATOM     19  N   UNL     1       0.848  18.087  17.209  0.00  0.00    +0.000 N 
ATOM     20  O   UNL     1      -0.258  18.630  17.336  0.00  0.00    +0.000 OA
ATOM     21  O   UNL     1       1.734  18.472  16.431  0.00  0.00    +0.000 OA
ENDBRANCH  13  19
ENDBRANCH   8   9
BRANCH   1  26
ATOM     22  C   UNL     1      -4.104  16.346  25.230  0.00  0.00    +0.000 C 
ATOM     23  C   UNL     1      -3.338  15.296  24.483  0.00  0.00    +0.000 A 
ATOM     24  C   UNL     1      -3.985  14.284  23.768  0.00  0.00    +0.000 A 
ATOM     25  C   UNL     1      -3.247  13.286  23.121  0.00  0.00    +0.000 A 
ATOM     26  C   UNL     1      -1.847  13.280  23.181  0.00  0.00    +0.000 A 
ATOM     27  C   UNL     1      -1.208  14.333  23.846  0.00  0.00    +0.000 A 
ATOM     28  C   UNL     1      -1.943  15.317  24.511  0.00  0.00    +0.000 A 
ENDBRANCH   1  26
BRANCH   5  29
ATOM     29  C   UNL     1       1.716   8.199  19.698  0.00  0.00    +0.000 A 
ATOM     30  C   UNL     1       2.162   8.502  18.404  0.00  0.00    +0.000 A 
ATOM     31  C   UNL     1       2.904   7.564  17.679  0.00  0.00    +0.000 A 
ATOM     32  C   UNL     1       3.199   6.323  18.243  0.00  0.00    +0.000 A 
ATOM     33 CL   UNL     1       4.115   5.175  17.351  0.00  0.00    +0.000 Cl
ATOM     34  C   UNL     1       2.761   6.013  19.530  0.00  0.00    +0.000 A 
ATOM     35  C   UNL     1       2.026   6.952  20.260  0.00  0.00    +0.000 A 
ENDBRANCH   5  29
TORSDOF 4
ENDMDL
MODEL 6
REMARK VINA RESULT:      -7.9      0.515      1.094
REMARK  Name = 
REMARK  5 active torsions:
REMARK  status: ('A' for Active; 'I' for Inactive)
REMARK    1  A    between atoms: C_1  and  C_2
REMARK    2  A    between atoms: C_5  and  C_6
REMARK    3  A    between atoms: C_10  and  C_11
REMARK    4  A    between atoms: C_20  and  C_21
REMARK    5  A    between atoms: C_25  and  N_26
REMARK                            x       y       z     vdW  Elec       q    Type
REMARK                         _______ _______ _______ _____ _____    ______ ____
ROOT
ATOM      1  C   UNL     1      -0.971  11.915  22.597  0.00  0.00    +0.000 A 
ATOM      2  N   UNL     1      -1.129  10.572  22.943  0.00  0.00    +0.000 NA
ATOM      3  C   UNL     1      -0.333   9.960  22.116  0.00  0.00    +0.000 A 
ATOM      4  S   UNL     1       0.067   8.332  21.780  0.00  0.00    +0.000 S 
ATOM      5  C   UNL     1       1.109   8.965  20.474  0.00  0.00    +0.000 A 
ATOM      6  N   UNL     1       1.158  10.265  20.317  0.00  0.00    +0.000 NA
ATOM      7  N   UNL     1       0.327  10.782  21.268  0.00  0.00    +0.000 N 
ATOM      8  C   UNL     1      -0.033  12.066  21.567  0.00  0.00    +0.000 A 
ENDROOT
BRANCH   8   9
ATOM      9  C   UNL     1       0.504  13.208  20.908  0.00  0.00    +0.000 A 
ATOM     10  N   UNL     1      -0.209  14.101  20.259  0.00  0.00    +0.000 NA
ATOM     11  C   UNL     1       0.692  14.943  19.666  0.00  0.00    +0.000 A 
ATOM     12  C   UNL     1       0.456  16.030  18.818  0.00  0.00    +0.000 A 
ATOM     13  C   UNL     1       1.572  16.720  18.322  0.00  0.00    +0.000 A 
ATOM     14  C   UNL     1       2.883  16.339  18.661  0.00  0.00    +0.000 A 
ATOM     15  C   UNL     1       3.120  15.250  19.510  0.00  0.00    +0.000 A 
ATOM     16  C   UNL     1       1.994  14.580  19.991  0.00  0.00    +0.000 A 
ATOM     17  N   UNL     1       1.843  13.494  20.818  0.00  0.00    +0.000 N 
ATOM     18  H   UNL     1       2.582  12.957  21.250  0.00  0.00    +0.000 HD
BRANCH  13  19
ATOM     19  N   UNL     1       1.361  17.863  17.425  0.00  0.00    +0.000 N 
ATOM     20  O   UNL     1       2.141  18.003  16.473  0.00  0.00    +0.000 OA
ATOM     21  O   UNL     1       0.413  18.622  17.673  0.00  0.00    +0.000 OA
ENDBRANCH  13  19
ENDBRANCH   8   9
BRANCH   1  26
ATOM     22  C   UNL     1      -3.989  16.207  25.022  0.00  0.00    +0.000 C 
ATOM     23  C   UNL     1      -3.184  15.080  24.446  0.00  0.00    +0.000 A 
ATOM     24  C   UNL     1      -1.796  15.166  24.307  0.00  0.00    +0.000 A 
ATOM     25  C   UNL     1      -1.074  14.120  23.719  0.00  0.00    +0.000 A 
ATOM     26  C   UNL     1      -1.729  12.971  23.258  0.00  0.00    +0.000 A 
ATOM     27  C   UNL     1      -3.111  12.869  23.461  0.00  0.00    +0.000 A 
ATOM     28  C   UNL     1      -3.836  13.920  24.026  0.00  0.00    +0.000 A 
ENDBRANCH   1  26
BRANCH   5  29
ATOM     29  C   UNL     1       1.881   8.023  19.634  0.00  0.00    +0.000 A 
ATOM     30  C   UNL     1       2.361   8.381  18.366  0.00  0.00    +0.000 A 
ATOM     31  C   UNL     1       3.115   7.470  17.619  0.00  0.00    +0.000 A 
ATOM     32  C   UNL     1       3.387   6.204  18.134  0.00  0.00    +0.000 A 
ATOM     33 CL   UNL     1       4.319   5.090  17.213  0.00  0.00    +0.000 Cl
ATOM     34  C   UNL     1       2.915   5.839  19.393  0.00  0.00    +0.000 A 
ATOM     35  C   UNL     1       2.168   6.749  20.146  0.00  0.00    +0.000 A 
ENDBRANCH   5  29
TORSDOF 4
ENDMDL
MODEL 7
REMARK VINA RESULT:      -7.8      1.122      1.820
REMARK  Name = 
REMARK  5 active torsions:
REMARK  status: ('A' for Active; 'I' for Inactive)
REMARK    1  A    between atoms: C_1  and  C_2
REMARK    2  A    between atoms: C_5  and  C_6
REMARK    3  A    between atoms: C_10  and  C_11
REMARK    4  A    between atoms: C_20  and  C_21
REMARK    5  A    between atoms: C_25  and  N_26
REMARK                            x       y       z     vdW  Elec       q    Type
REMARK                         _______ _______ _______ _____ _____    ______ ____
ROOT
ATOM      1  C   UNL     1      -0.759  11.425  22.364  0.00  0.00    +0.000 A 
ATOM      2  N   UNL     1      -0.724  10.115  22.846  0.00  0.00    +0.000 NA
ATOM      3  C   UNL     1       0.033   9.504  21.982  0.00  0.00    +0.000 A 
ATOM      4  S   UNL     1       0.571   7.899  21.745  0.00  0.00    +0.000 S 
ATOM      5  C   UNL     1       1.375   8.496  20.266  0.00  0.00    +0.000 A 
ATOM      6  N   UNL     1       1.260   9.771  19.989  0.00  0.00    +0.000 NA
ATOM      7  N   UNL     1       0.493  10.297  20.988  0.00  0.00    +0.000 N 
ATOM      8  C   UNL     1       0.029  11.562  21.214  0.00  0.00    +0.000 A 
ENDROOT
BRANCH   8   9
ATOM      9  C   UNL     1       0.354  12.679  20.392  0.00  0.00    +0.000 A 
ATOM     10  N   UNL     1       1.569  12.995  20.007  0.00  0.00    +0.000 NA
ATOM     11  C   UNL     1       1.459  14.194  19.358  0.00  0.00    +0.000 A 
ATOM     12  C   UNL     1       2.464  14.992  18.803  0.00  0.00    +0.000 A 
ATOM     13  C   UNL     1       2.079  16.203  18.208  0.00  0.00    +0.000 A 
ATOM     14  C   UNL     1       0.732  16.606  18.168  0.00  0.00    +0.000 A 
ATOM     15  C   UNL     1      -0.276  15.808  18.724  0.00  0.00    +0.000 A 
ATOM     16  C   UNL     1       0.132  14.608  19.308  0.00  0.00    +0.000 A 
ATOM     17  N   UNL     1      -0.557  13.601  19.940  0.00  0.00    +0.000 N 
ATOM     18  H   UNL     1      -1.554  13.560  20.099  0.00  0.00    +0.000 HD
BRANCH  13  19
ATOM     19  N   UNL     1       3.110  17.067  17.620  0.00  0.00    +0.000 N 
ATOM     20  O   UNL     1       2.846  17.641  16.554  0.00  0.00    +0.000 OA
ATOM     21  O   UNL     1       4.186  17.172  18.226  0.00  0.00    +0.000 OA
ENDBRANCH  13  19
ENDBRANCH   8   9
BRANCH   1  26
ATOM     22  C   UNL     1      -3.843  15.438  25.156  0.00  0.00    +0.000 C 
ATOM     23  C   UNL     1      -3.074  14.409  24.383  0.00  0.00    +0.000 A 
ATOM     24  C   UNL     1      -3.648  13.191  24.008  0.00  0.00    +0.000 A 
ATOM     25  C   UNL     1      -2.893  12.226  23.331  0.00  0.00    +0.000 A 
ATOM     26  C   UNL     1      -1.548  12.462  23.019  0.00  0.00    +0.000 A 
ATOM     27  C   UNL     1      -1.002  13.710  23.342  0.00  0.00    +0.000 A 
ATOM     28  C   UNL     1      -1.746  14.665  24.037  0.00  0.00    +0.000 A 
ENDBRANCH   1  26
BRANCH   5  29
ATOM     29  C   UNL     1       2.144   7.555  19.422  0.00  0.00    +0.000 A 
ATOM     30  C   UNL     1       2.318   6.210  19.779  0.00  0.00    +0.000 A 
ATOM     31  C   UNL     1       3.025   5.346  18.936  0.00  0.00    +0.000 A 
ATOM     32  C   UNL     1       3.560   5.823  17.740  0.00  0.00    +0.000 A 
ATOM     33 CL   UNL     1       4.423   4.756  16.704  0.00  0.00    +0.000 Cl
ATOM     34  C   UNL     1       3.391   7.158  17.377  0.00  0.00    +0.000 A 
ATOM     35  C   UNL     1       2.679   8.022  18.213  0.00  0.00    +0.000 A 
ENDBRANCH   5  29
TORSDOF 4
ENDMDL
MODEL 8
REMARK VINA RESULT:      -7.8      0.805      1.275
REMARK  Name = 
REMARK  5 active torsions:
REMARK  status: ('A' for Active; 'I' for Inactive)
REMARK    1  A    between atoms: C_1  and  C_2
REMARK    2  A    between atoms: C_5  and  C_6
REMARK    3  A    between atoms: C_10  and  C_11
REMARK    4  A    between atoms: C_20  and  C_21
REMARK    5  A    between atoms: C_25  and  N_26
REMARK                            x       y       z     vdW  Elec       q    Type
REMARK                         _______ _______ _______ _____ _____    ______ ____
ROOT
ATOM      1  C   UNL     1      -0.878  11.770  22.481  0.00  0.00    +0.000 A 
ATOM      2  N   UNL     1      -1.115  10.447  22.857  0.00  0.00    +0.000 NA
ATOM      3  C   UNL     1      -0.308   9.774  22.090  0.00  0.00    +0.000 A 
ATOM      4  S   UNL     1       0.033   8.121  21.822  0.00  0.00    +0.000 S 
ATOM      5  C   UNL     1       1.167   8.665  20.554  0.00  0.00    +0.000 A 
ATOM      6  N   UNL     1       1.284   9.956  20.363  0.00  0.00    +0.000 NA
ATOM      7  N   UNL     1       0.431  10.540  21.254  0.00  0.00    +0.000 N 
ATOM      8  C   UNL     1       0.116  11.847  21.497  0.00  0.00    +0.000 A 
ENDROOT
BRANCH   8   9
ATOM      9  C   UNL     1       0.738  12.942  20.834  0.00  0.00    +0.000 A 
ATOM     10  N   UNL     1       0.093  13.906  20.216  0.00  0.00    +0.000 NA
ATOM     11  C   UNL     1       1.050  14.668  19.604  0.00  0.00    +0.000 A 
ATOM     12  C   UNL     1       0.892  15.784  18.775  0.00  0.00    +0.000 A 
ATOM     13  C   UNL     1       2.053  16.374  18.253  0.00  0.00    +0.000 A 
ATOM     14  C   UNL     1       3.331  15.869  18.548  0.00  0.00    +0.000 A 
ATOM     15  C   UNL     1       3.490  14.752  19.378  0.00  0.00    +0.000 A 
ATOM     16  C   UNL     1       2.322  14.183  19.887  0.00  0.00    +0.000 A 
ATOM     17  N   UNL     1       2.095  13.105  20.707  0.00  0.00    +0.000 N 
ATOM     18  H   UNL     1       2.793  12.495  21.110  0.00  0.00    +0.000 HD
BRANCH  13  19
ATOM     19  N   UNL     1       1.923  17.543  17.374  0.00  0.00    +0.000 N 
ATOM     20  O   UNL     1       2.734  17.663  16.446  0.00  0.00    +0.000 OA
ATOM     21  O   UNL     1       1.007  18.343  17.613  0.00  0.00    +0.000 OA
ENDBRANCH  13  19
ENDBRANCH   8   9
BRANCH   1  26
ATOM     22  C   UNL     1      -3.799  16.064  25.018  0.00  0.00    +0.000 C 
ATOM     23  C   UNL     1      -3.067  14.966  24.308  0.00  0.00    +0.000 A 
ATOM     24  C   UNL     1      -3.721  13.811  23.868  0.00  0.00    +0.000 A 
ATOM     25  C   UNL     1      -3.004  12.778  23.253  0.00  0.00    +0.000 A 
ATOM     26  C   UNL     1      -1.619  12.879  23.071  0.00  0.00    +0.000 A 
ATOM     27  C   UNL     1      -0.985  14.066  23.458  0.00  0.00    +0.000 A 
ATOM     28  C   UNL     1      -1.693  15.089  24.092  0.00  0.00    +0.000 A 
ENDBRANCH   1  26
BRANCH   5  29
ATOM     29  C   UNL     1       1.936   7.664  19.783  0.00  0.00    +0.000 A 
ATOM     30  C   UNL     1       2.081   6.340  20.221  0.00  0.00    +0.000 A 
ATOM     31  C   UNL     1       2.789   5.418  19.445  0.00  0.00    +0.000 A 
ATOM     32  C   UNL     1       3.354   5.814  18.234  0.00  0.00    +0.000 A 
ATOM     33 CL   UNL     1       4.218   4.675  17.280  0.00  0.00    +0.000 Cl
ATOM     34  C   UNL     1       3.214   7.128  17.789  0.00  0.00    +0.000 A 
ATOM     35  C   UNL     1       2.501   8.051  18.558  0.00  0.00    +0.000 A 
ENDBRANCH   5  29
TORSDOF 4
ENDMDL
MODEL 9
REMARK VINA RESULT:      -7.8      4.999      7.793
REMARK  Name = 
REMARK  5 active torsions:
REMARK  status: ('A' for Active; 'I' for Inactive)
REMARK    1  A    between atoms: C_1  and  C_2
REMARK    2  A    between atoms: C_5  and  C_6
REMARK    3  A    between atoms: C_10  and  C_11
REMARK    4  A    between atoms: C_20  and  C_21
REMARK    5  A    between atoms: C_25  and  N_26
REMARK                            x       y       z     vdW  Elec       q    Type
REMARK                         _______ _______ _______ _____ _____    ______ ____
ROOT
ATOM      1  C   UNL     1      -0.307  13.673  19.130  0.00  0.00    +0.000 A 
ATOM      2  N   UNL     1      -0.059  15.045  19.050  0.00  0.00    +0.000 NA
ATOM      3  C   UNL     1       1.227  15.100  18.860  0.00  0.00    +0.000 A 
ATOM      4  S   UNL     1       2.390  16.343  18.706  0.00  0.00    +0.000 S 
ATOM      5  C   UNL     1       3.613  15.045  18.598  0.00  0.00    +0.000 A 
ATOM      6  N   UNL     1       3.187  13.807  18.659  0.00  0.00    +0.000 NA
ATOM      7  N   UNL     1       1.833  13.891  18.807  0.00  0.00    +0.000 N 
ATOM      8  C   UNL     1       0.867  12.934  18.946  0.00  0.00    +0.000 A 
ENDROOT
BRANCH   8   9
ATOM      9  C   UNL     1       1.131  11.536  18.891  0.00  0.00    +0.000 A 
ATOM     10  N   UNL     1       0.930  10.697  19.882  0.00  0.00    +0.000 NA
ATOM     11  C   UNL     1       1.437   9.496  19.467  0.00  0.00    +0.000 A 
ATOM     12  C   UNL     1       1.523   8.287  20.165  0.00  0.00    +0.000 A 
ATOM     13  C   UNL     1       2.116   7.198  19.508  0.00  0.00    +0.000 A 
ATOM     14  C   UNL     1       2.607   7.311  18.196  0.00  0.00    +0.000 A 
ATOM     15  C   UNL     1       2.522   8.521  17.496  0.00  0.00    +0.000 A 
ATOM     16  C   UNL     1       1.927   9.589  18.169  0.00  0.00    +0.000 A 
ATOM     17  N   UNL     1       1.683  10.892  17.811  0.00  0.00    +0.000 N 
ATOM     18  H   UNL     1       1.911  11.329  16.929  0.00  0.00    +0.000 HD
BRANCH  13  19
ATOM     19  N   UNL     1       2.227   5.916  20.214  0.00  0.00    +0.000 N 
ATOM     20  O   UNL     1       1.240   5.515  20.846  0.00  0.00    +0.000 OA
ATOM     21  O   UNL     1       3.305   5.308  20.137  0.00  0.00    +0.000 OA
ENDBRANCH  13  19
ENDBRANCH   8   9
BRANCH   1  26
ATOM     22  C   UNL     1      -5.691  11.782  20.051  0.00  0.00    +0.000 C 
ATOM     23  C   UNL     1      -4.277  12.240  19.858  0.00  0.00    +0.000 A 
ATOM     24  C   UNL     1      -3.671  13.144  20.735  0.00  0.00    +0.000 A 
ATOM     25  C   UNL     1      -2.366  13.595  20.504  0.00  0.00    +0.000 A 
ATOM     26  C   UNL     1      -1.644  13.151  19.389  0.00  0.00    +0.000 A 
ATOM     27  C   UNL     1      -2.237  12.197  18.553  0.00  0.00    +0.000 A 
ATOM     28  C   UNL     1      -3.546  11.763  18.768  0.00  0.00    +0.000 A 
ENDBRANCH   1  26
BRANCH   5  29
ATOM     29  C   UNL     1       5.040  15.398  18.431  0.00  0.00    +0.000 A 
ATOM     30  C   UNL     1       5.561  16.618  18.884  0.00  0.00    +0.000 A 
ATOM     31  C   UNL     1       6.923  16.897  18.736  0.00  0.00    +0.000 A 
ATOM     32  C   UNL     1       7.765  15.963  18.134  0.00  0.00    +0.000 A 
ATOM     33 CL   UNL     1       9.440  16.309  17.959  0.00  0.00    +0.000 Cl
ATOM     34  C   UNL     1       7.256  14.747  17.682  0.00  0.00    +0.000 A 
ATOM     35  C   UNL     1       5.897  14.461  17.835  0.00  0.00    +0.000 A 
ENDBRANCH   5  29
TORSDOF 4
ENDMDL
