MODEL 1
REMARK VINA RESULT:      -8.2      0.000      0.000
REMARK  Name = 
REMARK  5 active torsions:
REMARK  status: ('A' for Active; 'I' for Inactive)
REMARK    1  A    between atoms: C_1  and  C_2
REMARK    2  A    between atoms: C_6  and  N_7
REMARK    3  A    between atoms: C_10  and  N_11
REMARK    4  A    between atoms: C_12  and  C_14
REMARK    5  A    between atoms: N_19  and  C_20
REMARK                            x       y       z     vdW  Elec       q    Type
REMARK                         _______ _______ _______ _____ _____    ______ ____
ROOT
ATOM      1  N   UNL     1       3.840   3.565  17.637  0.00  0.00    +0.000 N 
ATOM      2  C   UNL     1       4.345   4.777  17.178  0.00  0.00    +0.000 C 
ATOM      3  O   UNL     1       4.012   5.858  17.648  0.00  0.00    +0.000 OA
ATOM      4  H   UNL     1       4.468   2.776  17.491  0.00  0.00    +0.000 HD
ENDROOT
BRANCH   1  11
ATOM      5  C   UNL     1       0.891   4.199  17.367  0.00  0.00    +0.000 C 
ATOM      6  C   UNL     1       1.565   3.752  18.638  0.00  0.00    +0.000 A 
ATOM      7  C   UNL     1       0.729   3.543  19.760  0.00  0.00    +0.000 A 
ATOM      8  C   UNL     1       1.224   3.057  20.970  0.00  0.00    +0.000 A 
ATOM      9  C   UNL     1       2.576   2.765  21.088  0.00  0.00    +0.000 A 
ATOM     10  C   UNL     1       3.413   2.949  19.978  0.00  0.00    +0.000 A 
ATOM     11  C   UNL     1       2.945   3.452  18.743  0.00  0.00    +0.000 A 
BRANCH  10  12
ATOM     12  N   UNL     1       4.826   2.677  20.165  0.00  0.00    +0.000 N 
ATOM     13  O   UNL     1       5.628   3.560  19.848  0.00  0.00    +0.000 OA
ATOM     14  O   UNL     1       5.127   1.567  20.638  0.00  0.00    +0.000 OA
ENDBRANCH  10  12
ENDBRANCH   1  11
BRANCH   2  15
ATOM     15  C   UNL     1       5.281   4.659  16.076  0.00  0.00    +0.000 A 
ATOM     16  C   UNL     1       5.217   3.849  14.950  0.00  0.00    +0.000 A 
ATOM     17  C   UNL     1       6.211   4.336  14.099  0.00  0.00    +0.000 A 
ATOM     18 BR   UNL     1       6.480   3.720  12.346  0.00  0.00    +0.000 Br
ATOM     19  N   UNL     1       6.914   5.324  14.632  0.00  0.00    +0.000 NA
ATOM     20  N   UNL     1       6.377   5.500  15.872  0.00  0.00    +0.000 N 
BRANCH  20  21
ATOM     21  C   UNL     1       7.013   6.367  16.816  0.00  0.00    +0.000 A 
ATOM     22  N   UNL     1       6.812   7.710  16.647  0.00  0.00    +0.000 NA
ATOM     23  C   UNL     1       7.381   8.545  17.545  0.00  0.00    +0.000 A 
ATOM     24  C   UNL     1       8.137   8.116  18.619  0.00  0.00    +0.000 A 
ATOM     25  C   UNL     1       8.327   6.749  18.785  0.00  0.00    +0.000 A 
ATOM     26  C   UNL     1       7.761   5.847  17.879  0.00  0.00    +0.000 A 
ATOM     27 CL   UNL     1       8.174   4.183  18.101  0.00  0.00    +0.000 Cl
ENDBRANCH  20  21
ENDBRANCH   2  15
TORSDOF 4
ENDMDL
MODEL 2
REMARK VINA RESULT:      -7.6      1.316      2.388
REMARK  Name = 
REMARK  5 active torsions:
REMARK  status: ('A' for Active; 'I' for Inactive)
REMARK    1  A    between atoms: C_1  and  C_2
REMARK    2  A    between atoms: C_6  and  N_7
REMARK    3  A    between atoms: C_10  and  N_11
REMARK    4  A    between atoms: C_12  and  C_14
REMARK    5  A    between atoms: N_19  and  C_20
REMARK                            x       y       z     vdW  Elec       q    Type
REMARK                         _______ _______ _______ _____ _____    ______ ____
ROOT
ATOM      1  N   UNL     1       3.946   3.535  17.976  0.00  0.00    +0.000 N 
ATOM      2  C   UNL     1       4.715   4.669  17.743  0.00  0.00    +0.000 C 
ATOM      3  O   UNL     1       4.687   5.654  18.471  0.00  0.00    +0.000 OA
ATOM      4  H   UNL     1       4.348   2.680  17.595  0.00  0.00    +0.000 HD
ENDROOT
BRANCH   1  11
ATOM      5  C   UNL     1       4.822   1.898  20.369  0.00  0.00    +0.000 C 
ATOM      6  C   UNL     1       3.496   2.604  20.244  0.00  0.00    +0.000 A 
ATOM      7  C   UNL     1       2.641   2.552  21.371  0.00  0.00    +0.000 A 
ATOM      8  C   UNL     1       1.422   3.230  21.404  0.00  0.00    +0.000 A 
ATOM      9  C   UNL     1       1.027   3.981  20.307  0.00  0.00    +0.000 A 
ATOM     10  C   UNL     1       1.872   4.056  19.192  0.00  0.00    +0.000 A 
ATOM     11  C   UNL     1       3.108   3.372  19.120  0.00  0.00    +0.000 A 
BRANCH  10  12
ATOM     12  N   UNL     1       1.393   4.814  18.050  0.00  0.00    +0.000 N 
ATOM     13  O   UNL     1       0.912   4.184  17.104  0.00  0.00    +0.000 OA
ATOM     14  O   UNL     1       1.500   6.051  18.111  0.00  0.00    +0.000 OA
ENDBRANCH  10  12
ENDBRANCH   1  11
BRANCH   2  15
ATOM     15  C   UNL     1       5.534   4.604  16.547  0.00  0.00    +0.000 A 
ATOM     16  C   UNL     1       5.426   3.759  15.452  0.00  0.00    +0.000 A 
ATOM     17  C   UNL     1       6.275   4.309  14.488  0.00  0.00    +0.000 A 
ATOM     18 BR   UNL     1       6.411   3.668  12.728  0.00  0.00    +0.000 Br
ATOM     19  N   UNL     1       6.935   5.371  14.921  0.00  0.00    +0.000 NA
ATOM     20  N   UNL     1       6.519   5.535  16.209  0.00  0.00    +0.000 N 
BRANCH  20  21
ATOM     21  C   UNL     1       7.168   6.483  17.061  0.00  0.00    +0.000 A 
ATOM     22  N   UNL     1       7.006   7.805  16.743  0.00  0.00    +0.000 NA
ATOM     23  C   UNL     1       7.589   8.718  17.551  0.00  0.00    +0.000 A 
ATOM     24  C   UNL     1       8.321   8.390  18.676  0.00  0.00    +0.000 A 
ATOM     25  C   UNL     1       8.472   7.045  18.994  0.00  0.00    +0.000 A 
ATOM     26  C   UNL     1       7.892   6.064  18.184  0.00  0.00    +0.000 A 
ATOM     27 CL   UNL     1       8.256   4.424  18.592  0.00  0.00    +0.000 Cl
ENDBRANCH  20  21
ENDBRANCH   2  15
TORSDOF 4
ENDMDL
MODEL 3
REMARK VINA RESULT:      -7.6      1.508      1.772
REMARK  Name = 
REMARK  5 active torsions:
REMARK  status: ('A' for Active; 'I' for Inactive)
REMARK    1  A    between atoms: C_1  and  C_2
REMARK    2  A    between atoms: C_6  and  N_7
REMARK    3  A    between atoms: C_10  and  N_11
REMARK    4  A    between atoms: C_12  and  C_14
REMARK    5  A    between atoms: N_19  and  C_20
REMARK                            x       y       z     vdW  Elec       q    Type
REMARK                         _______ _______ _______ _____ _____    ______ ____
ROOT
ATOM      1  N   UNL     1       3.684   4.585  17.553  0.00  0.00    +0.000 N 
ATOM      2  C   UNL     1       5.019   4.207  17.637  0.00  0.00    +0.000 C 
ATOM      3  O   UNL     1       5.537   3.822  18.678  0.00  0.00    +0.000 OA
ATOM      4  H   UNL     1       3.281   4.469  16.624  0.00  0.00    +0.000 HD
ENDROOT
BRANCH   1  11
ATOM      5  C   UNL     1       2.839   7.029  19.129  0.00  0.00    +0.000 C 
ATOM      6  C   UNL     1       2.367   5.623  19.397  0.00  0.00    +0.000 A 
ATOM      7  C   UNL     1       1.398   5.462  20.416  0.00  0.00    +0.000 A 
ATOM      8  C   UNL     1       0.829   4.221  20.704  0.00  0.00    +0.000 A 
ATOM      9  C   UNL     1       1.217   3.105  19.976  0.00  0.00    +0.000 A 
ATOM     10  C   UNL     1       2.163   3.254  18.953  0.00  0.00    +0.000 A 
ATOM     11  C   UNL     1       2.767   4.494  18.644  0.00  0.00    +0.000 A 
BRANCH  10  12
ATOM     12  N   UNL     1       2.573   2.050  18.254  0.00  0.00    +0.000 N 
ATOM     13  O   UNL     1       2.215   1.917  17.080  0.00  0.00    +0.000 OA
ATOM     14  O   UNL     1       3.262   1.236  18.892  0.00  0.00    +0.000 OA
ENDBRANCH  10  12
ENDBRANCH   1  11
BRANCH   2  15
ATOM     15  C   UNL     1       5.759   4.332  16.396  0.00  0.00    +0.000 A 
ATOM     16  C   UNL     1       5.693   3.553  15.249  0.00  0.00    +0.000 A 
ATOM     17  C   UNL     1       6.395   4.275  14.282  0.00  0.00    +0.000 A 
ATOM     18 BR   UNL     1       6.498   3.774  12.475  0.00  0.00    +0.000 Br
ATOM     19  N   UNL     1       6.935   5.388  14.753  0.00  0.00    +0.000 NA
ATOM     20  N   UNL     1       6.588   5.409  16.071  0.00  0.00    +0.000 N 
BRANCH  20  21
ATOM     21  C   UNL     1       7.160   6.380  16.952  0.00  0.00    +0.000 A 
ATOM     22  N   UNL     1       6.872   7.692  16.688  0.00  0.00    +0.000 NA
ATOM     23  C   UNL     1       7.380   8.624  17.525  0.00  0.00    +0.000 A 
ATOM     24  C   UNL     1       8.156   8.323  18.627  0.00  0.00    +0.000 A 
ATOM     25  C   UNL     1       8.435   6.987  18.890  0.00  0.00    +0.000 A 
ATOM     26  C   UNL     1       7.935   5.988  18.049  0.00  0.00    +0.000 A 
ATOM     27 CL   UNL     1       8.455   4.374  18.388  0.00  0.00    +0.000 Cl
ENDBRANCH  20  21
ENDBRANCH   2  15
TORSDOF 4
ENDMDL
MODEL 4
REMARK VINA RESULT:      -7.5      1.715      2.047
REMARK  Name = 
REMARK  5 active torsions:
REMARK  status: ('A' for Active; 'I' for Inactive)
REMARK    1  A    between atoms: C_1  and  C_2
REMARK    2  A    between atoms: C_6  and  N_7
REMARK    3  A    between atoms: C_10  and  N_11
REMARK    4  A    between atoms: C_12  and  C_14
REMARK    5  A    between atoms: N_19  and  C_20
REMARK                            x       y       z     vdW  Elec       q    Type
REMARK                         _______ _______ _______ _____ _____    ______ ____
ROOT
ATOM      1  N   UNL     1       4.654   4.240  18.051  0.00  0.00    +0.000 N 
ATOM      2  C   UNL     1       4.262   3.988  16.741  0.00  0.00    +0.000 C 
ATOM      3  O   UNL     1       3.107   3.722  16.430  0.00  0.00    +0.000 OA
ATOM      4  H   UNL     1       5.474   4.840  18.126  0.00  0.00    +0.000 HD
ENDROOT
BRANCH   1  11
ATOM      5  C   UNL     1       3.067   6.739  18.692  0.00  0.00    +0.000 C 
ATOM      6  C   UNL     1       3.000   5.450  19.471  0.00  0.00    +0.000 A 
ATOM      7  C   UNL     1       2.064   5.397  20.530  0.00  0.00    +0.000 A 
ATOM      8  C   UNL     1       1.856   4.234  21.273  0.00  0.00    +0.000 A 
ATOM      9  C   UNL     1       2.583   3.091  20.973  0.00  0.00    +0.000 A 
ATOM     10  C   UNL     1       3.501   3.125  19.915  0.00  0.00    +0.000 A 
ATOM     11  C   UNL     1       3.744   4.289  19.150  0.00  0.00    +0.000 A 
BRANCH  10  12
ATOM     12  N   UNL     1       4.273   1.920  19.672  0.00  0.00    +0.000 N 
ATOM     13  O   UNL     1       3.950   1.216  18.710  0.00  0.00    +0.000 OA
ATOM     14  O   UNL     1       5.211   1.685  20.453  0.00  0.00    +0.000 OA
ENDBRANCH  10  12
ENDBRANCH   1  11
BRANCH   2  15
ATOM     15  C   UNL     1       5.340   4.037  15.771  0.00  0.00    +0.000 A 
ATOM     16  C   UNL     1       5.371   3.567  14.465  0.00  0.00    +0.000 A 
ATOM     17  C   UNL     1       6.528   4.120  13.911  0.00  0.00    +0.000 A 
ATOM     18 BR   UNL     1       7.001   3.955  12.102  0.00  0.00    +0.000 Br
ATOM     19  N   UNL     1       7.234   4.828  14.779  0.00  0.00    +0.000 NA
ATOM     20  N   UNL     1       6.532   4.743  15.945  0.00  0.00    +0.000 N 
BRANCH  20  21
ATOM     21  C   UNL     1       7.097   5.237  17.163  0.00  0.00    +0.000 A 
ATOM     22  N   UNL     1       7.799   4.340  17.921  0.00  0.00    +0.000 NA
ATOM     23  C   UNL     1       8.364   4.794  19.063  0.00  0.00    +0.000 A 
ATOM     24  C   UNL     1       8.280   6.104  19.491  0.00  0.00    +0.000 A 
ATOM     25  C   UNL     1       7.572   7.008  18.709  0.00  0.00    +0.000 A 
ATOM     26  C   UNL     1       6.966   6.584  17.522  0.00  0.00    +0.000 A 
ATOM     27 CL   UNL     1       5.996   7.755  16.699  0.00  0.00    +0.000 Cl
ENDBRANCH  20  21
ENDBRANCH   2  15
TORSDOF 4
ENDMDL
MODEL 5
REMARK VINA RESULT:      -7.3      1.287      2.169
REMARK  Name = 
REMARK  5 active torsions:
REMARK  status: ('A' for Active; 'I' for Inactive)
REMARK    1  A    between atoms: C_1  and  C_2
REMARK    2  A    between atoms: C_6  and  N_7
REMARK    3  A    between atoms: C_10  and  N_11
REMARK    4  A    between atoms: C_12  and  C_14
REMARK    5  A    between atoms: N_19  and  C_20
REMARK                            x       y       z     vdW  Elec       q    Type
REMARK                         _______ _______ _______ _____ _____    ______ ____
ROOT
ATOM      1  N   UNL     1       3.555   4.417  17.362  0.00  0.00    +0.000 N 
ATOM      2  C   UNL     1       4.892   4.050  17.470  0.00  0.00    +0.000 C 
ATOM      3  O   UNL     1       5.395   3.668  18.520  0.00  0.00    +0.000 OA
ATOM      4  H   UNL     1       3.170   4.299  16.426  0.00  0.00    +0.000 HD
ENDROOT
BRANCH   1  11
ATOM      5  C   UNL     1       2.204   1.796  18.052  0.00  0.00    +0.000 C 
ATOM      6  C   UNL     1       1.973   3.102  18.769  0.00  0.00    +0.000 A 
ATOM      7  C   UNL     1       1.116   3.064  19.894  0.00  0.00    +0.000 A 
ATOM      8  C   UNL     1       0.884   4.191  20.683  0.00  0.00    +0.000 A 
ATOM      9  C   UNL     1       1.508   5.389  20.365  0.00  0.00    +0.000 A 
ATOM     10  C   UNL     1       2.374   5.435  19.264  0.00  0.00    +0.000 A 
ATOM     11  C   UNL     1       2.620   4.316  18.437  0.00  0.00    +0.000 A 
BRANCH  10  12
ATOM     12  N   UNL     1       2.963   6.722  18.942  0.00  0.00    +0.000 N 
ATOM     13  O   UNL     1       4.194   6.790  18.879  0.00  0.00    +0.000 OA
ATOM     14  O   UNL     1       2.180   7.668  18.749  0.00  0.00    +0.000 OA
ENDBRANCH  10  12
ENDBRANCH   1  11
BRANCH   2  15
ATOM     15  C   UNL     1       5.653   4.185  16.243  0.00  0.00    +0.000 A 
ATOM     16  C   UNL     1       5.607   3.412  15.090  0.00  0.00    +0.000 A 
ATOM     17  C   UNL     1       6.325   4.141  14.140  0.00  0.00    +0.000 A 
ATOM     18 BR   UNL     1       6.460   3.651  12.332  0.00  0.00    +0.000 Br
ATOM     19  N   UNL     1       6.855   5.252  14.627  0.00  0.00    +0.000 NA
ATOM     20  N   UNL     1       6.485   5.264  15.939  0.00  0.00    +0.000 N 
BRANCH  20  21
ATOM     21  C   UNL     1       7.040   6.232  16.834  0.00  0.00    +0.000 A 
ATOM     22  N   UNL     1       6.714   7.541  16.602  0.00  0.00    +0.000 NA
ATOM     23  C   UNL     1       7.206   8.468  17.455  0.00  0.00    +0.000 A 
ATOM     24  C   UNL     1       8.001   8.164  18.542  0.00  0.00    +0.000 A 
ATOM     25  C   UNL     1       8.319   6.830  18.773  0.00  0.00    +0.000 A 
ATOM     26  C   UNL     1       7.837   5.836  17.915  0.00  0.00    +0.000 A 
ATOM     27 CL   UNL     1       8.404   4.231  18.213  0.00  0.00    +0.000 Cl
ENDBRANCH  20  21
ENDBRANCH   2  15
TORSDOF 4
ENDMDL
MODEL 6
REMARK VINA RESULT:      -7.0      1.627      1.769
REMARK  Name = 
REMARK  5 active torsions:
REMARK  status: ('A' for Active; 'I' for Inactive)
REMARK    1  A    between atoms: C_1  and  C_2
REMARK    2  A    between atoms: C_6  and  N_7
REMARK    3  A    between atoms: C_10  and  N_11
REMARK    4  A    between atoms: C_12  and  C_14
REMARK    5  A    between atoms: N_19  and  C_20
REMARK                            x       y       z     vdW  Elec       q    Type
REMARK                         _______ _______ _______ _____ _____    ______ ____
ROOT
ATOM      1  N   UNL     1       4.616   5.411  17.711  0.00  0.00    +0.000 N 
ATOM      2  C   UNL     1       4.372   4.560  16.639  0.00  0.00    +0.000 C 
ATOM      3  O   UNL     1       3.354   3.885  16.543  0.00  0.00    +0.000 OA
ATOM      4  H   UNL     1       5.230   6.192  17.484  0.00  0.00    +0.000 HD
ENDROOT
BRANCH   1  11
ATOM      5  C   UNL     1       3.000   7.968  17.872  0.00  0.00    +0.000 C 
ATOM      6  C   UNL     1       2.922   6.833  18.861  0.00  0.00    +0.000 A 
ATOM      7  C   UNL     1       1.961   6.956  19.892  0.00  0.00    +0.000 A 
ATOM      8  C   UNL     1       1.742   5.938  20.821  0.00  0.00    +0.000 A 
ATOM      9  C   UNL     1       2.482   4.767  20.741  0.00  0.00    +0.000 A 
ATOM     10  C   UNL     1       3.425   4.626  19.714  0.00  0.00    +0.000 A 
ATOM     11  C   UNL     1       3.680   5.642  18.764  0.00  0.00    +0.000 A 
BRANCH  10  12
ATOM     12  N   UNL     1       4.209   3.404  19.701  0.00  0.00    +0.000 N 
ATOM     13  O   UNL     1       5.438   3.510  19.738  0.00  0.00    +0.000 OA
ATOM     14  O   UNL     1       3.580   2.333  19.658  0.00  0.00    +0.000 OA
ENDBRANCH  10  12
ENDBRANCH   1  11
BRANCH   2  15
ATOM     15  C   UNL     1       5.436   4.513  15.654  0.00  0.00    +0.000 A 
ATOM     16  C   UNL     1       5.528   3.757  14.493  0.00  0.00    +0.000 A 
ATOM     17  C   UNL     1       6.605   4.304  13.792  0.00  0.00    +0.000 A 
ATOM     18 BR   UNL     1       7.098   3.778  12.058  0.00  0.00    +0.000 Br
ATOM     19  N   UNL     1       7.213   5.278  14.451  0.00  0.00    +0.000 NA
ATOM     20  N   UNL     1       6.527   5.384  15.624  0.00  0.00    +0.000 N 
BRANCH  20  21
ATOM     21  C   UNL     1       7.023   6.216  16.676  0.00  0.00    +0.000 A 
ATOM     22  N   UNL     1       6.757   7.556  16.575  0.00  0.00    +0.000 NA
ATOM     23  C   UNL     1       7.193   8.356  17.574  0.00  0.00    +0.000 A 
ATOM     24  C   UNL     1       7.875   7.895  18.684  0.00  0.00    +0.000 A 
ATOM     25  C   UNL     1       8.131   6.532  18.779  0.00  0.00    +0.000 A 
ATOM     26  C   UNL     1       7.704   5.666  17.768  0.00  0.00    +0.000 A 
ATOM     27 CL   UNL     1       8.195   4.015  17.920  0.00  0.00    +0.000 Cl
ENDBRANCH  20  21
ENDBRANCH   2  15
TORSDOF 4
ENDMDL
MODEL 7
REMARK VINA RESULT:      -6.8      1.190      1.639
REMARK  Name = 
REMARK  5 active torsions:
REMARK  status: ('A' for Active; 'I' for Inactive)
REMARK    1  A    between atoms: C_1  and  C_2
REMARK    2  A    between atoms: C_6  and  N_7
REMARK    3  A    between atoms: C_10  and  N_11
REMARK    4  A    between atoms: C_12  and  C_14
REMARK    5  A    between atoms: N_19  and  C_20
REMARK                            x       y       z     vdW  Elec       q    Type
REMARK                         _______ _______ _______ _____ _____    ______ ____
ROOT
ATOM      1  N   UNL     1       3.803   3.320  17.772  0.00  0.00    +0.000 N 
ATOM      2  C   UNL     1       4.155   4.489  17.106  0.00  0.00    +0.000 C 
ATOM      3  O   UNL     1       3.642   5.574  17.349  0.00  0.00    +0.000 OA
ATOM      4  H   UNL     1       4.546   2.624  17.801  0.00  0.00    +0.000 HD
ENDROOT
BRANCH   1  11
ATOM      5  C   UNL     1       0.861   3.898  17.348  0.00  0.00    +0.000 C 
ATOM      6  C   UNL     1       1.491   3.553  18.673  0.00  0.00    +0.000 A 
ATOM      7  C   UNL     1       0.614   3.418  19.775  0.00  0.00    +0.000 A 
ATOM      8  C   UNL     1       1.069   3.026  21.035  0.00  0.00    +0.000 A 
ATOM      9  C   UNL     1       2.418   2.760  21.223  0.00  0.00    +0.000 A 
ATOM     10  C   UNL     1       3.293   2.872  20.135  0.00  0.00    +0.000 A 
ATOM     11  C   UNL     1       2.868   3.278  18.850  0.00  0.00    +0.000 A 
BRANCH  10  12
ATOM     12  N   UNL     1       4.701   2.631  20.394  0.00  0.00    +0.000 N 
ATOM     13  O   UNL     1       5.005   1.599  20.999  0.00  0.00    +0.000 OA
ATOM     14  O   UNL     1       5.504   3.486  19.981  0.00  0.00    +0.000 OA
ENDBRANCH  10  12
ENDBRANCH   1  11
BRANCH   2  15
ATOM     15  C   UNL     1       5.164   4.315  16.078  0.00  0.00    +0.000 A 
ATOM     16  C   UNL     1       5.042   3.756  14.812  0.00  0.00    +0.000 A 
ATOM     17  C   UNL     1       6.226   4.096  14.154  0.00  0.00    +0.000 A 
ATOM     18 BR   UNL     1       6.552   3.739  12.339  0.00  0.00    +0.000 Br
ATOM     19  N   UNL     1       7.080   4.752  14.924  0.00  0.00    +0.000 NA
ATOM     20  N   UNL     1       6.452   4.851  16.130  0.00  0.00    +0.000 N 
BRANCH  20  21
ATOM     21  C   UNL     1       7.159   5.341  17.273  0.00  0.00    +0.000 A 
ATOM     22  N   UNL     1       7.838   4.414  18.017  0.00  0.00    +0.000 NA
ATOM     23  C   UNL     1       8.536   4.860  19.085  0.00  0.00    +0.000 A 
ATOM     24  C   UNL     1       8.608   6.190  19.453  0.00  0.00    +0.000 A 
ATOM     25  C   UNL     1       7.921   7.123  18.685  0.00  0.00    +0.000 A 
ATOM     26  C   UNL     1       7.181   6.708  17.574  0.00  0.00    +0.000 A 
ATOM     27 CL   UNL     1       6.257   7.929  16.773  0.00  0.00    +0.000 Cl
ENDBRANCH  20  21
ENDBRANCH   2  15
TORSDOF 4
ENDMDL
MODEL 8
REMARK VINA RESULT:      -6.7      1.297      1.441
REMARK  Name = 
REMARK  5 active torsions:
REMARK  status: ('A' for Active; 'I' for Inactive)
REMARK    1  A    between atoms: C_1  and  C_2
REMARK    2  A    between atoms: C_6  and  N_7
REMARK    3  A    between atoms: C_10  and  N_11
REMARK    4  A    between atoms: C_12  and  C_14
REMARK    5  A    between atoms: N_19  and  C_20
REMARK                            x       y       z     vdW  Elec       q    Type
REMARK                         _______ _______ _______ _____ _____    ______ ____
ROOT
ATOM      1  N   UNL     1       4.734   4.158  18.066  0.00  0.00    +0.000 N 
ATOM      2  C   UNL     1       4.242   4.190  16.765  0.00  0.00    +0.000 C 
ATOM      3  O   UNL     1       3.045   4.186  16.505  0.00  0.00    +0.000 OA
ATOM      4  H   UNL     1       5.654   4.582  18.168  0.00  0.00    +0.000 HD
ENDROOT
BRANCH   1  11
ATOM      5  C   UNL     1       3.331   6.694  18.943  0.00  0.00    +0.000 C 
ATOM      6  C   UNL     1       3.244   5.369  19.655  0.00  0.00    +0.000 A 
ATOM      7  C   UNL     1       2.376   5.304  20.771  0.00  0.00    +0.000 A 
ATOM      8  C   UNL     1       2.152   4.114  21.464  0.00  0.00    +0.000 A 
ATOM      9  C   UNL     1       2.794   2.954  21.055  0.00  0.00    +0.000 A 
ATOM     10  C   UNL     1       3.643   3.000  19.941  0.00  0.00    +0.000 A 
ATOM     11  C   UNL     1       3.901   4.191  19.225  0.00  0.00    +0.000 A 
BRANCH  10  12
ATOM     12  N   UNL     1       4.330   1.772  19.583  0.00  0.00    +0.000 N 
ATOM     13  O   UNL     1       3.947   1.173  18.574  0.00  0.00    +0.000 OA
ATOM     14  O   UNL     1       5.262   1.413  20.323  0.00  0.00    +0.000 OA
ENDBRANCH  10  12
ENDBRANCH   1  11
BRANCH   2  15
ATOM     15  C   UNL     1       5.265   4.201  15.737  0.00  0.00    +0.000 A 
ATOM     16  C   UNL     1       5.379   3.411  14.601  0.00  0.00    +0.000 A 
ATOM     17  C   UNL     1       6.372   4.024  13.834  0.00  0.00    +0.000 A 
ATOM     18 BR   UNL     1       6.840   3.477  12.100  0.00  0.00    +0.000 Br
ATOM     19  N   UNL     1       6.915   5.075  14.429  0.00  0.00    +0.000 NA
ATOM     20  N   UNL     1       6.270   5.165  15.627  0.00  0.00    +0.000 N 
BRANCH  20  21
ATOM     21  C   UNL     1       6.729   6.080  16.626  0.00  0.00    +0.000 A 
ATOM     22  N   UNL     1       6.300   7.375  16.515  0.00  0.00    +0.000 NA
ATOM     23  C   UNL     1       6.700   8.249  17.465  0.00  0.00    +0.000 A 
ATOM     24  C   UNL     1       7.502   7.904  18.536  0.00  0.00    +0.000 A 
ATOM     25  C   UNL     1       7.925   6.584  18.643  0.00  0.00    +0.000 A 
ATOM     26  C   UNL     1       7.540   5.645  17.681  0.00  0.00    +0.000 A 
ATOM     27 CL   UNL     1       8.233   4.068  17.834  0.00  0.00    +0.000 Cl
ENDBRANCH  20  21
ENDBRANCH   2  15
TORSDOF 4
ENDMDL
MODEL 9
REMARK VINA RESULT:      -6.7      9.581     10.943
REMARK  Name = 
REMARK  5 active torsions:
REMARK  status: ('A' for Active; 'I' for Inactive)
REMARK    1  A    between atoms: C_1  and  C_2
REMARK    2  A    between atoms: C_6  and  N_7
REMARK    3  A    between atoms: C_10  and  N_11
REMARK    4  A    between atoms: C_12  and  C_14
REMARK    5  A    between atoms: N_19  and  C_20
REMARK                            x       y       z     vdW  Elec       q    Type
REMARK                         _______ _______ _______ _____ _____    ______ ____
ROOT
ATOM      1  N   UNL     1      -3.130  12.721  19.225  0.00  0.00    +0.000 N 
ATOM      2  C   UNL     1      -2.034  11.867  19.183  0.00  0.00    +0.000 C 
ATOM      3  O   UNL     1      -2.139  10.647  19.209  0.00  0.00    +0.000 OA
ATOM      4  H   UNL     1      -2.965  13.624  18.782  0.00  0.00    +0.000 HD
ENDROOT
BRANCH   1  11
ATOM      5  C   UNL     1      -4.411  11.522  16.757  0.00  0.00    +0.000 C 
ATOM      6  C   UNL     1      -5.102  11.713  18.082  0.00  0.00    +0.000 A 
ATOM      7  C   UNL     1      -6.424  11.218  18.185  0.00  0.00    +0.000 A 
ATOM      8  C   UNL     1      -7.139  11.267  19.382  0.00  0.00    +0.000 A 
ATOM      9  C   UNL     1      -6.546  11.814  20.511  0.00  0.00    +0.000 A 
ATOM     10  C   UNL     1      -5.231  12.292  20.428  0.00  0.00    +0.000 A 
ATOM     11  C   UNL     1      -4.484  12.268  19.228  0.00  0.00    +0.000 A 
BRANCH  10  12
ATOM     12  N   UNL     1      -4.673  12.899  21.621  0.00  0.00    +0.000 N 
ATOM     13  O   UNL     1      -5.010  14.056  21.888  0.00  0.00    +0.000 OA
ATOM     14  O   UNL     1      -3.893  12.204  22.295  0.00  0.00    +0.000 OA
ENDBRANCH  10  12
ENDBRANCH   1  11
BRANCH   2  15
ATOM     15  C   UNL     1      -0.749  12.539  19.133  0.00  0.00    +0.000 A 
ATOM     16  C   UNL     1      -0.408  13.742  18.530  0.00  0.00    +0.000 A 
ATOM     17  C   UNL     1       0.862  14.045  19.025  0.00  0.00    +0.000 A 
ATOM     18 BR   UNL     1       1.763  15.655  18.675  0.00  0.00    +0.000 Br
ATOM     19  N   UNL     1       1.348  13.105  19.821  0.00  0.00    +0.000 NA
ATOM     20  N   UNL     1       0.379  12.147  19.857  0.00  0.00    +0.000 N 
BRANCH  20  21
ATOM     21  C   UNL     1       0.638  10.884  20.475  0.00  0.00    +0.000 A 
ATOM     22  N   UNL     1       0.409  10.802  21.822  0.00  0.00    +0.000 NA
ATOM     23  C   UNL     1       0.621   9.609  22.421  0.00  0.00    +0.000 A 
ATOM     24  C   UNL     1       1.040   8.477  21.748  0.00  0.00    +0.000 A 
ATOM     25  C   UNL     1       1.260   8.570  20.379  0.00  0.00    +0.000 A 
ATOM     26  C   UNL     1       1.059   9.785  19.717  0.00  0.00    +0.000 A 
ATOM     27 CL   UNL     1       1.494   9.824  18.044  0.00  0.00    +0.000 Cl
ENDBRANCH  20  21
ENDBRANCH   2  15
TORSDOF 4
ENDMDL
