MODEL 1
REMARK VINA RESULT:      -7.9      0.000      0.000
REMARK  Name = 
REMARK  9 active torsions:
REMARK  status: ('A' for Active; 'I' for Inactive)
REMARK    1  A    between atoms: C_1  and  C_2
REMARK    2  A    between atoms: N_4  and  C_5
REMARK    3  A    between atoms: C_5  and  C_6
REMARK    4  A    between atoms: C_5  and  C_7
REMARK    5  A    between atoms: C_7  and  C_8
REMARK    6  A    between atoms: C_11  and  C_12
REMARK    7  A    between atoms: C_13  and  C_14
REMARK    8  A    between atoms: C_17  and  C_18
REMARK    9  A    between atoms: C_18  and  O_20
REMARK                            x       y       z     vdW  Elec       q    Type
REMARK                         _______ _______ _______ _____ _____    ______ ____
ROOT
ATOM      1  C   UNL     1       5.413   4.788  17.240  0.00  0.00    +0.000 A 
ATOM      2  C   UNL     1       6.580   4.767  18.019  0.00  0.00    +0.000 A 
ATOM      3  C   UNL     1       7.340   5.928  18.197  0.00  0.00    +0.000 A 
ATOM      4  C   UNL     1       6.949   7.121  17.591  0.00  0.00    +0.000 A 
ATOM      5  C   UNL     1       5.815   7.141  16.778  0.00  0.00    +0.000 A 
ATOM      6  C   UNL     1       5.056   5.980  16.595  0.00  0.00    +0.000 A 
ENDROOT
BRANCH   4   7
ATOM      7  C   UNL     1       7.688   8.329  17.813  0.00  0.00    +0.000 C 
ATOM      8  C   UNL     1       8.286   9.348  18.025  0.00  0.00    +0.000 C 
BRANCH   8   9
ATOM      9  C   UNL     1       8.999  10.559  18.297  0.00  0.00    +0.000 A 
ATOM     10  C   UNL     1       8.591  11.752  17.699  0.00  0.00    +0.000 A 
ATOM     11  C   UNL     1       9.283  12.935  17.959  0.00  0.00    +0.000 A 
ATOM     12  C   UNL     1      10.395  12.937  18.812  0.00  0.00    +0.000 A 
ATOM     13  C   UNL     1      10.797  11.742  19.424  0.00  0.00    +0.000 A 
ATOM     14  C   UNL     1      10.099  10.554  19.161  0.00  0.00    +0.000 A 
BRANCH  12  15
ATOM     15  C   UNL     1      11.059  14.244  19.065  0.00  0.00    +0.000 C 
ATOM     16  O   UNL     1      10.503  15.309  18.853  0.00  0.00    +0.000 OA
BRANCH  15  17
ATOM     17  O   UNL     1      12.333  14.162  19.499  0.00  0.00    +0.000 OA
ATOM     18  H   UNL     1      12.536  14.643  20.320  0.00  0.00    +0.000 HD
ENDBRANCH  15  17
ENDBRANCH  12  15
ENDBRANCH   8   9
ENDBRANCH   4   7
BRANCH   1  19
ATOM     19  C   UNL     1       4.552   3.548  17.101  0.00  0.00    +0.000 C 
BRANCH  19  20
ATOM     20  C   UNL     1       3.981   3.028  18.440  0.00  0.00    +0.000 C 
ATOM     21  C   UNL     1       3.340   1.649  18.261  0.00  0.00    +0.000 C 
BRANCH  20  25
ATOM     22  C   UNL     1       1.540   4.804  20.747  0.00  0.00    +0.000 C 
ATOM     23  C   UNL     1       2.558   3.784  20.318  0.00  0.00    +0.000 C 
ATOM     24  O   UNL     1       2.947   2.894  21.068  0.00  0.00    +0.000 OA
ATOM     25  N   UNL     1       3.012   3.951  19.028  0.00  0.00    +0.000 N 
ATOM     26  H   UNL     1       2.585   4.657  18.442  0.00  0.00    +0.000 HD
ENDBRANCH  20  25
ENDBRANCH  19  20
ENDBRANCH   1  19
TORSDOF 7
ENDMDL
MODEL 2
REMARK VINA RESULT:      -7.8      0.461      1.269
REMARK  Name = 
REMARK  9 active torsions:
REMARK  status: ('A' for Active; 'I' for Inactive)
REMARK    1  A    between atoms: C_1  and  C_2
REMARK    2  A    between atoms: N_4  and  C_5
REMARK    3  A    between atoms: C_5  and  C_6
REMARK    4  A    between atoms: C_5  and  C_7
REMARK    5  A    between atoms: C_7  and  C_8
REMARK    6  A    between atoms: C_11  and  C_12
REMARK    7  A    between atoms: C_13  and  C_14
REMARK    8  A    between atoms: C_17  and  C_18
REMARK    9  A    between atoms: C_18  and  O_20
REMARK                            x       y       z     vdW  Elec       q    Type
REMARK                         _______ _______ _______ _____ _____    ______ ____
ROOT
ATOM      1  C   UNL     1       5.555   4.741  17.219  0.00  0.00    +0.000 A 
ATOM      2  C   UNL     1       6.761   4.726  17.936  0.00  0.00    +0.000 A 
ATOM      3  C   UNL     1       7.491   5.904  18.129  0.00  0.00    +0.000 A 
ATOM      4  C   UNL     1       7.031   7.108  17.600  0.00  0.00    +0.000 A 
ATOM      5  C   UNL     1       5.855   7.126  16.849  0.00  0.00    +0.000 A 
ATOM      6  C   UNL     1       5.126   5.948  16.650  0.00  0.00    +0.000 A 
ENDROOT
BRANCH   4   7
ATOM      7  C   UNL     1       7.741   8.330  17.841  0.00  0.00    +0.000 C 
ATOM      8  C   UNL     1       8.323   9.353  18.075  0.00  0.00    +0.000 C 
BRANCH   8   9
ATOM      9  C   UNL     1       9.027  10.564  18.371  0.00  0.00    +0.000 A 
ATOM     10  C   UNL     1      10.073  10.548  19.294  0.00  0.00    +0.000 A 
ATOM     11  C   UNL     1      10.762  11.726  19.588  0.00  0.00    +0.000 A 
ATOM     12  C   UNL     1      10.406  12.932  18.969  0.00  0.00    +0.000 A 
ATOM     13  C   UNL     1       9.364  12.945  18.033  0.00  0.00    +0.000 A 
ATOM     14  C   UNL     1       8.675  11.760  17.739  0.00  0.00    +0.000 A 
BRANCH  12  15
ATOM     15  C   UNL     1      11.210  14.137  19.311  0.00  0.00    +0.000 C 
ATOM     16  O   UNL     1      12.332  14.059  19.784  0.00  0.00    +0.000 OA
BRANCH  15  17
ATOM     17  O   UNL     1      10.587  15.315  19.103  0.00  0.00    +0.000 OA
ATOM     18  H   UNL     1      10.879  16.057  19.660  0.00  0.00    +0.000 HD
ENDBRANCH  15  17
ENDBRANCH  12  15
ENDBRANCH   8   9
ENDBRANCH   4   7
BRANCH   1  19
ATOM     19  C   UNL     1       4.729   3.479  17.066  0.00  0.00    +0.000 C 
BRANCH  19  20
ATOM     20  C   UNL     1       3.755   3.222  18.238  0.00  0.00    +0.000 C 
ATOM     21  C   UNL     1       2.708   2.172  17.857  0.00  0.00    +0.000 C 
BRANCH  20  25
ATOM     22  C   UNL     1       1.994   5.906  20.271  0.00  0.00    +0.000 C 
ATOM     23  C   UNL     1       2.695   4.605  19.996  0.00  0.00    +0.000 C 
ATOM     24  O   UNL     1       2.901   3.775  20.876  0.00  0.00    +0.000 OA
ATOM     25  N   UNL     1       3.087   4.444  18.685  0.00  0.00    +0.000 N 
ATOM     26  H   UNL     1       2.811   5.134  17.998  0.00  0.00    +0.000 HD
ENDBRANCH  20  25
ENDBRANCH  19  20
ENDBRANCH   1  19
TORSDOF 7
ENDMDL
MODEL 3
REMARK VINA RESULT:      -7.8      1.078      1.151
REMARK  Name = 
REMARK  9 active torsions:
REMARK  status: ('A' for Active; 'I' for Inactive)
REMARK    1  A    between atoms: C_1  and  C_2
REMARK    2  A    between atoms: N_4  and  C_5
REMARK    3  A    between atoms: C_5  and  C_6
REMARK    4  A    between atoms: C_5  and  C_7
REMARK    5  A    between atoms: C_7  and  C_8
REMARK    6  A    between atoms: C_11  and  C_12
REMARK    7  A    between atoms: C_13  and  C_14
REMARK    8  A    between atoms: C_17  and  C_18
REMARK    9  A    between atoms: C_18  and  O_20
REMARK                            x       y       z     vdW  Elec       q    Type
REMARK                         _______ _______ _______ _____ _____    ______ ____
ROOT
ATOM      1  C   UNL     1       5.775   5.016  17.120  0.00  0.00    +0.000 A 
ATOM      2  C   UNL     1       6.787   4.954  18.090  0.00  0.00    +0.000 A 
ATOM      3  C   UNL     1       7.554   6.084  18.395  0.00  0.00    +0.000 A 
ATOM      4  C   UNL     1       7.326   7.286  17.727  0.00  0.00    +0.000 A 
ATOM      5  C   UNL     1       6.353   7.346  16.729  0.00  0.00    +0.000 A 
ATOM      6  C   UNL     1       5.588   6.216  16.419  0.00  0.00    +0.000 A 
ENDROOT
BRANCH   4   7
ATOM      7  C   UNL     1       8.067   8.464  18.071  0.00  0.00    +0.000 C 
ATOM      8  C   UNL     1       8.661   9.460  18.380  0.00  0.00    +0.000 C 
BRANCH   8   9
ATOM      9  C   UNL     1       9.367  10.644  18.769  0.00  0.00    +0.000 A 
ATOM     10  C   UNL     1       9.488  11.703  17.869  0.00  0.00    +0.000 A 
ATOM     11  C   UNL     1      10.175  12.859  18.240  0.00  0.00    +0.000 A 
ATOM     12  C   UNL     1      10.757  12.964  19.511  0.00  0.00    +0.000 A 
ATOM     13  C   UNL     1      10.624  11.905  20.419  0.00  0.00    +0.000 A 
ATOM     14  C   UNL     1       9.932  10.745  20.043  0.00  0.00    +0.000 A 
BRANCH  12  15
ATOM     15  C   UNL     1      11.444  14.241  19.843  0.00  0.00    +0.000 C 
ATOM     16  O   UNL     1      12.333  14.703  19.147  0.00  0.00    +0.000 OA
BRANCH  15  17
ATOM     17  O   UNL     1      11.043  14.821  20.993  0.00  0.00    +0.000 OA
ATOM     18  H   UNL     1      11.418  15.699  21.181  0.00  0.00    +0.000 HD
ENDBRANCH  15  17
ENDBRANCH  12  15
ENDBRANCH   8   9
ENDBRANCH   4   7
BRANCH   1  19
ATOM     19  C   UNL     1       4.899   3.812  16.837  0.00  0.00    +0.000 C 
BRANCH  19  20
ATOM     20  C   UNL     1       3.678   3.691  17.775  0.00  0.00    +0.000 C 
ATOM     21  C   UNL     1       2.535   2.938  17.089  0.00  0.00    +0.000 C 
BRANCH  20  25
ATOM     22  C   UNL     1       2.367   6.588  19.856  0.00  0.00    +0.000 C 
ATOM     23  C   UNL     1       2.869   5.201  19.561  0.00  0.00    +0.000 C 
ATOM     24  O   UNL     1       2.976   4.346  20.435  0.00  0.00    +0.000 OA
ATOM     25  N   UNL     1       3.202   4.993  18.241  0.00  0.00    +0.000 N 
ATOM     26  H   UNL     1       3.010   5.719  17.562  0.00  0.00    +0.000 HD
ENDBRANCH  20  25
ENDBRANCH  19  20
ENDBRANCH   1  19
TORSDOF 7
ENDMDL
MODEL 4
REMARK VINA RESULT:      -7.7      0.432      1.071
REMARK  Name = 
REMARK  9 active torsions:
REMARK  status: ('A' for Active; 'I' for Inactive)
REMARK    1  A    between atoms: C_1  and  C_2
REMARK    2  A    between atoms: N_4  and  C_5
REMARK    3  A    between atoms: C_5  and  C_6
REMARK    4  A    between atoms: C_5  and  C_7
REMARK    5  A    between atoms: C_7  and  C_8
REMARK    6  A    between atoms: C_11  and  C_12
REMARK    7  A    between atoms: C_13  and  C_14
REMARK    8  A    between atoms: C_17  and  C_18
REMARK    9  A    between atoms: C_18  and  O_20
REMARK                            x       y       z     vdW  Elec       q    Type
REMARK                         _______ _______ _______ _____ _____    ______ ____
ROOT
ATOM      1  C   UNL     1       5.545   4.943  17.288  0.00  0.00    +0.000 A 
ATOM      2  C   UNL     1       5.056   6.181  16.842  0.00  0.00    +0.000 A 
ATOM      3  C   UNL     1       5.786   7.355  17.056  0.00  0.00    +0.000 A 
ATOM      4  C   UNL     1       7.007   7.309  17.726  0.00  0.00    +0.000 A 
ATOM      5  C   UNL     1       7.481   6.090  18.211  0.00  0.00    +0.000 A 
ATOM      6  C   UNL     1       6.750   4.915  18.004  0.00  0.00    +0.000 A 
ENDROOT
BRANCH   4   7
ATOM      7  C   UNL     1       7.790   8.497  17.899  0.00  0.00    +0.000 C 
ATOM      8  C   UNL     1       8.417   9.509  18.053  0.00  0.00    +0.000 C 
BRANCH   8   9
ATOM      9  C   UNL     1       9.156  10.718  18.256  0.00  0.00    +0.000 A 
ATOM     10  C   UNL     1       8.753  11.890  17.614  0.00  0.00    +0.000 A 
ATOM     11  C   UNL     1       9.470  13.072  17.805  0.00  0.00    +0.000 A 
ATOM     12  C   UNL     1      10.601  13.092  18.633  0.00  0.00    +0.000 A 
ATOM     13  C   UNL     1      10.997  11.919  19.288  0.00  0.00    +0.000 A 
ATOM     14  C   UNL     1      10.275  10.733  19.094  0.00  0.00    +0.000 A 
BRANCH  12  15
ATOM     15  C   UNL     1      11.291  14.398  18.812  0.00  0.00    +0.000 C 
ATOM     16  O   UNL     1      11.406  15.205  17.904  0.00  0.00    +0.000 OA
BRANCH  15  17
ATOM     17  O   UNL     1      11.819  14.600  20.037  0.00  0.00    +0.000 OA
ATOM     18  H   UNL     1      11.239  15.036  20.685  0.00  0.00    +0.000 HD
ENDBRANCH  15  17
ENDBRANCH  12  15
ENDBRANCH   8   9
ENDBRANCH   4   7
BRANCH   1  19
ATOM     19  C   UNL     1       4.788   3.662  16.998  0.00  0.00    +0.000 C 
BRANCH  19  20
ATOM     20  C   UNL     1       4.000   3.112  18.208  0.00  0.00    +0.000 C 
ATOM     21  C   UNL     1       3.200   1.867  17.817  0.00  0.00    +0.000 C 
BRANCH  20  25
ATOM     22  C   UNL     1       1.739   5.109  20.518  0.00  0.00    +0.000 C 
ATOM     23  C   UNL     1       2.682   4.016  20.097  0.00  0.00    +0.000 C 
ATOM     24  O   UNL     1       3.040   3.131  20.867  0.00  0.00    +0.000 OA
ATOM     25  N   UNL     1       3.105   4.112  18.790  0.00  0.00    +0.000 N 
ATOM     26  H   UNL     1       2.703   4.821  18.191  0.00  0.00    +0.000 HD
ENDBRANCH  20  25
ENDBRANCH  19  20
ENDBRANCH   1  19
TORSDOF 7
ENDMDL
MODEL 5
REMARK VINA RESULT:      -7.5      1.150      1.362
REMARK  Name = 
REMARK  9 active torsions:
REMARK  status: ('A' for Active; 'I' for Inactive)
REMARK    1  A    between atoms: C_1  and  C_2
REMARK    2  A    between atoms: N_4  and  C_5
REMARK    3  A    between atoms: C_5  and  C_6
REMARK    4  A    between atoms: C_5  and  C_7
REMARK    5  A    between atoms: C_7  and  C_8
REMARK    6  A    between atoms: C_11  and  C_12
REMARK    7  A    between atoms: C_13  and  C_14
REMARK    8  A    between atoms: C_17  and  C_18
REMARK    9  A    between atoms: C_18  and  O_20
REMARK                            x       y       z     vdW  Elec       q    Type
REMARK                         _______ _______ _______ _____ _____    ______ ____
ROOT
ATOM      1  C   UNL     1       5.919   5.166  17.471  0.00  0.00    +0.000 A 
ATOM      2  C   UNL     1       6.903   5.174  18.471  0.00  0.00    +0.000 A 
ATOM      3  C   UNL     1       7.671   6.320  18.707  0.00  0.00    +0.000 A 
ATOM      4  C   UNL     1       7.471   7.467  17.941  0.00  0.00    +0.000 A 
ATOM      5  C   UNL     1       6.526   7.454  16.915  0.00  0.00    +0.000 A 
ATOM      6  C   UNL     1       5.761   6.308  16.673  0.00  0.00    +0.000 A 
ENDROOT
BRANCH   4   7
ATOM      7  C   UNL     1       8.212   8.664  18.213  0.00  0.00    +0.000 C 
ATOM      8  C   UNL     1       8.811   9.683  18.420  0.00  0.00    +0.000 C 
BRANCH   8   9
ATOM      9  C   UNL     1       9.508  10.908  18.670  0.00  0.00    +0.000 A 
ATOM     10  C   UNL     1       9.309  12.002  17.827  0.00  0.00    +0.000 A 
ATOM     11  C   UNL     1       9.986  13.198  18.064  0.00  0.00    +0.000 A 
ATOM     12  C   UNL     1      10.876  13.311  19.142  0.00  0.00    +0.000 A 
ATOM     13  C   UNL     1      11.065  12.217  19.997  0.00  0.00    +0.000 A 
ATOM     14  C   UNL     1      10.383  11.017  19.756  0.00  0.00    +0.000 A 
BRANCH  12  15
ATOM     15  C   UNL     1      11.534  14.630  19.348  0.00  0.00    +0.000 C 
ATOM     16  O   UNL     1      12.332  15.092  18.549  0.00  0.00    +0.000 OA
BRANCH  15  17
ATOM     17  O   UNL     1      11.217  15.250  20.503  0.00  0.00    +0.000 OA
ATOM     18  H   UNL     1      11.540  14.827  21.317  0.00  0.00    +0.000 HD
ENDBRANCH  15  17
ENDBRANCH  12  15
ENDBRANCH   8   9
ENDBRANCH   4   7
BRANCH   1  19
ATOM     19  C   UNL     1       5.041   3.949  17.258  0.00  0.00    +0.000 C 
BRANCH  19  20
ATOM     20  C   UNL     1       3.641   4.065  17.902  0.00  0.00    +0.000 C 
ATOM     21  C   UNL     1       3.108   5.497  17.795  0.00  0.00    +0.000 C 
BRANCH  20  25
ATOM     22  C   UNL     1       2.665   2.758  21.334  0.00  0.00    +0.000 C 
ATOM     23  C   UNL     1       2.503   3.109  19.881  0.00  0.00    +0.000 C 
ATOM     24  O   UNL     1       1.451   2.923  19.278  0.00  0.00    +0.000 OA
ATOM     25  N   UNL     1       3.635   3.639  19.301  0.00  0.00    +0.000 N 
ATOM     26  H   UNL     1       4.439   3.840  19.881  0.00  0.00    +0.000 HD
ENDBRANCH  20  25
ENDBRANCH  19  20
ENDBRANCH   1  19
TORSDOF 7
ENDMDL
MODEL 6
REMARK VINA RESULT:      -7.5      1.365      2.091
REMARK  Name = 
REMARK  9 active torsions:
REMARK  status: ('A' for Active; 'I' for Inactive)
REMARK    1  A    between atoms: C_1  and  C_2
REMARK    2  A    between atoms: N_4  and  C_5
REMARK    3  A    between atoms: C_5  and  C_6
REMARK    4  A    between atoms: C_5  and  C_7
REMARK    5  A    between atoms: C_7  and  C_8
REMARK    6  A    between atoms: C_11  and  C_12
REMARK    7  A    between atoms: C_13  and  C_14
REMARK    8  A    between atoms: C_17  and  C_18
REMARK    9  A    between atoms: C_18  and  O_20
REMARK                            x       y       z     vdW  Elec       q    Type
REMARK                         _______ _______ _______ _____ _____    ______ ____
ROOT
ATOM      1  C   UNL     1       5.975   5.127  16.936  0.00  0.00    +0.000 A 
ATOM      2  C   UNL     1       5.550   6.380  16.470  0.00  0.00    +0.000 A 
ATOM      3  C   UNL     1       6.224   7.547  16.846  0.00  0.00    +0.000 A 
ATOM      4  C   UNL     1       7.325   7.478  17.698  0.00  0.00    +0.000 A 
ATOM      5  C   UNL     1       7.728   6.240  18.201  0.00  0.00    +0.000 A 
ATOM      6  C   UNL     1       7.052   5.072  17.831  0.00  0.00    +0.000 A 
ENDROOT
BRANCH   4   7
ATOM      7  C   UNL     1       8.057   8.660  18.042  0.00  0.00    +0.000 C 
ATOM      8  C   UNL     1       8.650   9.669  18.310  0.00  0.00    +0.000 C 
BRANCH   8   9
ATOM      9  C   UNL     1       9.340  10.881  18.633  0.00  0.00    +0.000 A 
ATOM     10  C   UNL     1      10.164  10.930  19.758  0.00  0.00    +0.000 A 
ATOM     11  C   UNL     1      10.837  12.108  20.079  0.00  0.00    +0.000 A 
ATOM     12  C   UNL     1      10.687  13.253  19.285  0.00  0.00    +0.000 A 
ATOM     13  C   UNL     1       9.870  13.201  18.148  0.00  0.00    +0.000 A 
ATOM     14  C   UNL     1       9.195  12.015  17.827  0.00  0.00    +0.000 A 
BRANCH  12  15
ATOM     15  C   UNL     1      11.464  14.461  19.675  0.00  0.00    +0.000 C 
ATOM     16  O   UNL     1      11.326  15.003  20.759  0.00  0.00    +0.000 OA
BRANCH  15  17
ATOM     17  O   UNL     1      12.295  14.935  18.723  0.00  0.00    +0.000 OA
ATOM     18  H   UNL     1      13.187  14.546  18.703  0.00  0.00    +0.000 HD
ENDBRANCH  15  17
ENDBRANCH  12  15
ENDBRANCH   8   9
ENDBRANCH   4   7
BRANCH   1  19
ATOM     19  C   UNL     1       5.288   3.856  16.477  0.00  0.00    +0.000 C 
BRANCH  19  20
ATOM     20  C   UNL     1       4.140   3.394  17.402  0.00  0.00    +0.000 C 
ATOM     21  C   UNL     1       3.054   4.469  17.503  0.00  0.00    +0.000 C 
BRANCH  20  25
ATOM     22  C   UNL     1       4.681   1.757  20.788  0.00  0.00    +0.000 C 
ATOM     23  C   UNL     1       4.108   1.950  19.411  0.00  0.00    +0.000 C 
ATOM     24  O   UNL     1       3.273   1.185  18.939  0.00  0.00    +0.000 OA
ATOM     25  N   UNL     1       4.612   3.042  18.741  0.00  0.00    +0.000 N 
ATOM     26  H   UNL     1       5.237   3.674  19.225  0.00  0.00    +0.000 HD
ENDBRANCH  20  25
ENDBRANCH  19  20
ENDBRANCH   1  19
TORSDOF 7
ENDMDL
MODEL 7
REMARK VINA RESULT:      -7.5      6.323      8.459
REMARK  Name = 
REMARK  9 active torsions:
REMARK  status: ('A' for Active; 'I' for Inactive)
REMARK    1  A    between atoms: C_1  and  C_2
REMARK    2  A    between atoms: N_4  and  C_5
REMARK    3  A    between atoms: C_5  and  C_6
REMARK    4  A    between atoms: C_5  and  C_7
REMARK    5  A    between atoms: C_7  and  C_8
REMARK    6  A    between atoms: C_11  and  C_12
REMARK    7  A    between atoms: C_13  and  C_14
REMARK    8  A    between atoms: C_17  and  C_18
REMARK    9  A    between atoms: C_18  and  O_20
REMARK                            x       y       z     vdW  Elec       q    Type
REMARK                         _______ _______ _______ _____ _____    ______ ____
ROOT
ATOM      1  C   UNL     1       4.436   5.097  16.831  0.00  0.00    +0.000 A 
ATOM      2  C   UNL     1       3.564   4.552  17.786  0.00  0.00    +0.000 A 
ATOM      3  C   UNL     1       2.844   5.383  18.652  0.00  0.00    +0.000 A 
ATOM      4  C   UNL     1       2.993   6.767  18.579  0.00  0.00    +0.000 A 
ATOM      5  C   UNL     1       3.889   7.316  17.662  0.00  0.00    +0.000 A 
ATOM      6  C   UNL     1       4.615   6.487  16.800  0.00  0.00    +0.000 A 
ENDROOT
BRANCH   4   7
ATOM      7  C   UNL     1       2.217   7.629  19.422  0.00  0.00    +0.000 C 
ATOM      8  C   UNL     1       1.551   8.362  20.099  0.00  0.00    +0.000 C 
BRANCH   8   9
ATOM      9  C   UNL     1       0.739   9.229  20.898  0.00  0.00    +0.000 A 
ATOM     10  C   UNL     1       0.132  10.342  20.313  0.00  0.00    +0.000 A 
ATOM     11  C   UNL     1      -0.658  11.192  21.087  0.00  0.00    +0.000 A 
ATOM     12  C   UNL     1      -0.844  10.944  22.454  0.00  0.00    +0.000 A 
ATOM     13  C   UNL     1      -0.246   9.820  23.038  0.00  0.00    +0.000 A 
ATOM     14  C   UNL     1       0.548   8.967  22.258  0.00  0.00    +0.000 A 
BRANCH  12  15
ATOM     15  C   UNL     1      -1.728  11.878  23.202  0.00  0.00    +0.000 C 
ATOM     16  O   UNL     1      -2.882  11.600  23.483  0.00  0.00    +0.000 OA
BRANCH  15  17
ATOM     17  O   UNL     1      -1.172  13.070  23.503  0.00  0.00    +0.000 OA
ATOM     18  H   UNL     1      -1.325  13.786  22.863  0.00  0.00    +0.000 HD
ENDBRANCH  15  17
ENDBRANCH  12  15
ENDBRANCH   8   9
ENDBRANCH   4   7
BRANCH   1  19
ATOM     19  C   UNL     1       5.165   4.203  15.848  0.00  0.00    +0.000 C 
BRANCH  19  20
ATOM     20  C   UNL     1       6.701   4.208  16.016  0.00  0.00    +0.000 C 
ATOM     21  C   UNL     1       7.096   4.686  17.417  0.00  0.00    +0.000 C 
BRANCH  20  25
ATOM     22  C   UNL     1       8.017   5.685  12.772  0.00  0.00    +0.000 C 
ATOM     23  C   UNL     1       7.236   4.760  13.664  0.00  0.00    +0.000 C 
ATOM     24  O   UNL     1       6.540   3.854  13.216  0.00  0.00    +0.000 OA
ATOM     25  N   UNL     1       7.368   5.031  15.008  0.00  0.00    +0.000 N 
ATOM     26  H   UNL     1       8.024   5.742  15.306  0.00  0.00    +0.000 HD
ENDBRANCH  20  25
ENDBRANCH  19  20
ENDBRANCH   1  19
TORSDOF 7
ENDMDL
MODEL 8
REMARK VINA RESULT:      -7.5      1.119      1.629
REMARK  Name = 
REMARK  9 active torsions:
REMARK  status: ('A' for Active; 'I' for Inactive)
REMARK    1  A    between atoms: C_1  and  C_2
REMARK    2  A    between atoms: N_4  and  C_5
REMARK    3  A    between atoms: C_5  and  C_6
REMARK    4  A    between atoms: C_5  and  C_7
REMARK    5  A    between atoms: C_7  and  C_8
REMARK    6  A    between atoms: C_11  and  C_12
REMARK    7  A    between atoms: C_13  and  C_14
REMARK    8  A    between atoms: C_17  and  C_18
REMARK    9  A    between atoms: C_18  and  O_20
REMARK                            x       y       z     vdW  Elec       q    Type
REMARK                         _______ _______ _______ _____ _____    ______ ____
ROOT
ATOM      1  C   UNL     1       5.958   5.096  17.662  0.00  0.00    +0.000 A 
ATOM      2  C   UNL     1       6.956   5.227  18.640  0.00  0.00    +0.000 A 
ATOM      3  C   UNL     1       7.693   6.410  18.754  0.00  0.00    +0.000 A 
ATOM      4  C   UNL     1       7.449   7.474  17.887  0.00  0.00    +0.000 A 
ATOM      5  C   UNL     1       6.490   7.337  16.883  0.00  0.00    +0.000 A 
ATOM      6  C   UNL     1       5.755   6.153  16.763  0.00  0.00    +0.000 A 
ENDROOT
BRANCH   4   7
ATOM      7  C   UNL     1       8.158   8.711  18.032  0.00  0.00    +0.000 C 
ATOM      8  C   UNL     1       8.723   9.761  18.164  0.00  0.00    +0.000 C 
BRANCH   8   9
ATOM      9  C   UNL     1       9.389  11.016  18.341  0.00  0.00    +0.000 A 
ATOM     10  C   UNL     1      10.541  11.083  19.126  0.00  0.00    +0.000 A 
ATOM     11  C   UNL     1      11.194  12.303  19.304  0.00  0.00    +0.000 A 
ATOM     12  C   UNL     1      10.698  13.470  18.707  0.00  0.00    +0.000 A 
ATOM     13  C   UNL     1       9.550  13.400  17.907  0.00  0.00    +0.000 A 
ATOM     14  C   UNL     1       8.896  12.173  17.730  0.00  0.00    +0.000 A 
BRANCH  12  15
ATOM     15  C   UNL     1      11.470  14.725  18.917  0.00  0.00    +0.000 C 
ATOM     16  O   UNL     1      11.893  15.393  17.988  0.00  0.00    +0.000 OA
BRANCH  15  17
ATOM     17  O   UNL     1      11.704  15.040  20.208  0.00  0.00    +0.000 OA
ATOM     18  H   UNL     1      11.597  15.977  20.444  0.00  0.00    +0.000 HD
ENDBRANCH  15  17
ENDBRANCH  12  15
ENDBRANCH   8   9
ENDBRANCH   4   7
BRANCH   1  19
ATOM     19  C   UNL     1       5.113   3.840  17.580  0.00  0.00    +0.000 C 
BRANCH  19  20
ATOM     20  C   UNL     1       3.664   4.026  18.084  0.00  0.00    +0.000 C 
ATOM     21  C   UNL     1       3.159   5.440  17.788  0.00  0.00    +0.000 C 
BRANCH  20  25
ATOM     22  C   UNL     1       2.576   2.708  21.478  0.00  0.00    +0.000 C 
ATOM     23  C   UNL     1       2.596   2.849  19.981  0.00  0.00    +0.000 C 
ATOM     24  O   UNL     1       1.843   2.207  19.255  0.00  0.00    +0.000 OA
ATOM     25  N   UNL     1       3.532   3.744  19.514  0.00  0.00    +0.000 N 
ATOM     26  H   UNL     1       4.061   4.297  20.176  0.00  0.00    +0.000 HD
ENDBRANCH  20  25
ENDBRANCH  19  20
ENDBRANCH   1  19
TORSDOF 7
ENDMDL
MODEL 9
REMARK VINA RESULT:      -7.4      3.572     10.374
REMARK  Name = 
REMARK  9 active torsions:
REMARK  status: ('A' for Active; 'I' for Inactive)
REMARK    1  A    between atoms: C_1  and  C_2
REMARK    2  A    between atoms: N_4  and  C_5
REMARK    3  A    between atoms: C_5  and  C_6
REMARK    4  A    between atoms: C_5  and  C_7
REMARK    5  A    between atoms: C_7  and  C_8
REMARK    6  A    between atoms: C_11  and  C_12
REMARK    7  A    between atoms: C_13  and  C_14
REMARK    8  A    between atoms: C_17  and  C_18
REMARK    9  A    between atoms: C_18  and  O_20
REMARK                            x       y       z     vdW  Elec       q    Type
REMARK                         _______ _______ _______ _____ _____    ______ ____
ROOT
ATOM      1  C   UNL     1      10.810  13.076  19.537  0.00  0.00    +0.000 A 
ATOM      2  C   UNL     1      10.614  12.734  18.190  0.00  0.00    +0.000 A 
ATOM      3  C   UNL     1       9.979  11.537  17.842  0.00  0.00    +0.000 A 
ATOM      4  C   UNL     1       9.540  10.662  18.835  0.00  0.00    +0.000 A 
ATOM      5  C   UNL     1       9.770  10.972  20.176  0.00  0.00    +0.000 A 
ATOM      6  C   UNL     1      10.410  12.166  20.526  0.00  0.00    +0.000 A 
ENDROOT
BRANCH   4   7
ATOM      7  C   UNL     1       8.837   9.461  18.492  0.00  0.00    +0.000 C 
ATOM      8  C   UNL     1       8.221   8.469  18.219  0.00  0.00    +0.000 C 
BRANCH   8   9
ATOM      9  C   UNL     1       7.470   7.296  17.885  0.00  0.00    +0.000 A 
ATOM     10  C   UNL     1       6.493   7.360  16.891  0.00  0.00    +0.000 A 
ATOM     11  C   UNL     1       5.757   6.221  16.563  0.00  0.00    +0.000 A 
ATOM     12  C   UNL     1       5.984   5.010  17.230  0.00  0.00    +0.000 A 
ATOM     13  C   UNL     1       6.974   4.942  18.219  0.00  0.00    +0.000 A 
ATOM     14  C   UNL     1       7.712   6.088  18.547  0.00  0.00    +0.000 A 
BRANCH  12  15
ATOM     15  C   UNL     1       5.181   3.833  16.799  0.00  0.00    +0.000 C 
ATOM     16  O   UNL     1       4.107   3.555  17.307  0.00  0.00    +0.000 OA
BRANCH  15  17
ATOM     17  O   UNL     1       5.752   3.075  15.841  0.00  0.00    +0.000 OA
ATOM     18  H   UNL     1       5.282   2.255  15.608  0.00  0.00    +0.000 HD
ENDBRANCH  15  17
ENDBRANCH  12  15
ENDBRANCH   8   9
ENDBRANCH   4   7
BRANCH   1  19
ATOM     19  C   UNL     1      11.437  14.402  19.916  0.00  0.00    +0.000 C 
BRANCH  19  20
ATOM     20  C   UNL     1      10.869  15.610  19.137  0.00  0.00    +0.000 C 
ATOM     21  C   UNL     1      11.821  16.807  19.216  0.00  0.00    +0.000 C 
BRANCH  20  25
ATOM     22  C   UNL     1       7.179  16.476  19.406  0.00  0.00    +0.000 C 
ATOM     23  C   UNL     1       8.457  16.014  18.762  0.00  0.00    +0.000 C 
ATOM     24  O   UNL     1       8.507  15.670  17.585  0.00  0.00    +0.000 OA
ATOM     25  N   UNL     1       9.542  16.003  19.610  0.00  0.00    +0.000 N 
ATOM     26  H   UNL     1       9.443  16.377  20.544  0.00  0.00    +0.000 HD
ENDBRANCH  20  25
ENDBRANCH  19  20
ENDBRANCH   1  19
TORSDOF 7
ENDMDL
