MODEL 1
REMARK VINA RESULT:      -8.0      0.000      0.000
REMARK  Name = 
REMARK  11 active torsions:
REMARK  status: ('A' for Active; 'I' for Inactive)
REMARK    1  A    between atoms: C_1  and  O_2
REMARK    2  A    between atoms: O_2  and  C_3
REMARK    3  A    between atoms: C_6  and  C_7
REMARK    4  A    between atoms: C_7  and  N_8
REMARK    5  A    between atoms: N_8  and  C_9
REMARK    6  A    between atoms: C_9  and  C_10
REMARK    7  A    between atoms: C_9  and  C_16
REMARK    8  A    between atoms: C_10  and  C_11
REMARK    9  A    between atoms: C_19  and  C_20
REMARK   10  A    between atoms: C_24  and  O_25
REMARK   11  A    between atoms: O_25  and  C_26
REMARK                            x       y       z     vdW  Elec       q    Type
REMARK                         _______ _______ _______ _____ _____    ______ ____
ROOT
ATOM      1  C   UNL     1       2.993   6.303  18.524  0.00  0.00    +0.000 C 
ENDROOT
BRANCH   1   2
ATOM      2  C   UNL     1       2.289   7.628  18.797  0.00  0.00    +0.000 A 
ATOM      3  C   UNL     1       2.189   8.615  17.802  0.00  0.00    +0.000 A 
ATOM      4  C   UNL     1       1.550   9.825  18.083  0.00  0.00    +0.000 A 
ATOM      5  C   UNL     1       1.029  10.062  19.362  0.00  0.00    +0.000 A 
ATOM      6  C   UNL     1       0.351  11.359  19.694  0.00  0.00    +0.000 C 
ATOM      7  C   UNL     1       1.153   9.064  20.333  0.00  0.00    +0.000 A 
ATOM      8  N   UNL     1       1.766   7.887  20.032  0.00  0.00    +0.000 NA
ENDBRANCH   1   2
BRANCH   1   9
ATOM      9  N   UNL     1       3.777   5.881  19.709  0.00  0.00    +0.000 NA
ATOM     10  H   UNL     1       4.298   6.711  20.078  0.00  0.00    +0.000 HD
BRANCH   9  11
ATOM     11  C   UNL     1       4.772   4.802  19.474  0.00  0.00    +0.000 C 
BRANCH  11  15
ATOM     12  C   UNL     1       6.873   5.340  15.716  0.00  0.00    +0.000 A 
ATOM     13  C   UNL     1       5.957   4.277  15.902  0.00  0.00    +0.000 A 
ATOM     14  C   UNL     1       5.270   4.111  17.100  0.00  0.00    +0.000 A 
ATOM     15  C   UNL     1       5.484   4.987  18.163  0.00  0.00    +0.000 A 
ATOM     16  C   UNL     1       6.378   6.039  18.004  0.00  0.00    +0.000 A 
ATOM     17  C   UNL     1       7.070   6.255  16.808  0.00  0.00    +0.000 A 
BRANCH  12  19
ATOM     18  C   UNL     1       7.247   4.745  13.361  0.00  0.00    +0.000 C 
ATOM     19  O   UNL     1       7.532   5.468  14.521  0.00  0.00    +0.000 OA
ENDBRANCH  12  19
BRANCH  17  20
ATOM     20  O   UNL     1       7.866   7.351  16.846  0.00  0.00    +0.000 OA
ATOM     21  C   UNL     1       7.884   8.460  17.647  0.00  0.00    +0.000 C 
ENDBRANCH  17  20
ENDBRANCH  11  15
ENDBRANCH   9  11
ENDBRANCH   1   9
BRANCH   1  22
ATOM     22  C   UNL     1       1.968   5.216  18.078  0.00  0.00    +0.000 C 
BRANCH  22  23
ATOM     23  C   UNL     1       1.748   4.118  19.085  0.00  0.00    +0.000 A 
ATOM     24  C   UNL     1       2.060   2.771  18.821  0.00  0.00    +0.000 A 
ATOM     25  C   UNL     1       1.818   1.925  19.893  0.00  0.00    +0.000 A 
ATOM     26  S   UNL     1       1.210   2.837  21.164  0.00  0.00    +0.000 S 
ATOM     27  C   UNL     1       1.250   4.316  20.371  0.00  0.00    +0.000 A 
ENDBRANCH  22  23
ENDBRANCH   1  22
TORSDOF 8
ENDMDL
MODEL 2
REMARK VINA RESULT:      -7.7      3.300      6.664
REMARK  Name = 
REMARK  11 active torsions:
REMARK  status: ('A' for Active; 'I' for Inactive)
REMARK    1  A    between atoms: C_1  and  O_2
REMARK    2  A    between atoms: O_2  and  C_3
REMARK    3  A    between atoms: C_6  and  C_7
REMARK    4  A    between atoms: C_7  and  N_8
REMARK    5  A    between atoms: N_8  and  C_9
REMARK    6  A    between atoms: C_9  and  C_10
REMARK    7  A    between atoms: C_9  and  C_16
REMARK    8  A    between atoms: C_10  and  C_11
REMARK    9  A    between atoms: C_19  and  C_20
REMARK   10  A    between atoms: C_24  and  O_25
REMARK   11  A    between atoms: O_25  and  C_26
REMARK                            x       y       z     vdW  Elec       q    Type
REMARK                         _______ _______ _______ _____ _____    ______ ____
ROOT
ATOM      1  C   UNL     1       6.032   4.424  16.844  0.00  0.00    +0.000 C 
ENDROOT
BRANCH   1   2
ATOM      2  C   UNL     1       6.778   5.655  17.348  0.00  0.00    +0.000 A 
ATOM      3  C   UNL     1       7.603   5.589  18.483  0.00  0.00    +0.000 A 
ATOM      4  C   UNL     1       8.264   6.736  18.931  0.00  0.00    +0.000 A 
ATOM      5  C   UNL     1       8.088   7.954  18.260  0.00  0.00    +0.000 A 
ATOM      6  C   UNL     1       8.775   9.203  18.729  0.00  0.00    +0.000 C 
ATOM      7  C   UNL     1       7.253   7.988  17.140  0.00  0.00    +0.000 A 
ATOM      8  N   UNL     1       6.631   6.856  16.713  0.00  0.00    +0.000 NA
ENDBRANCH   1   2
BRANCH   1   9
ATOM      9  N   UNL     1       5.219   3.831  17.932  0.00  0.00    +0.000 NA
ATOM     10  H   UNL     1       5.511   2.833  18.061  0.00  0.00    +0.000 HD
BRANCH   9  11
ATOM     11  C   UNL     1       3.749   3.837  17.717  0.00  0.00    +0.000 C 
BRANCH  11  15
ATOM     12  C   UNL     1       1.781   6.899  20.079  0.00  0.00    +0.000 A 
ATOM     13  C   UNL     1       1.836   5.553  20.516  0.00  0.00    +0.000 A 
ATOM     14  C   UNL     1       2.480   4.573  19.770  0.00  0.00    +0.000 A 
ATOM     15  C   UNL     1       3.077   4.892  18.551  0.00  0.00    +0.000 A 
ATOM     16  C   UNL     1       3.035   6.206  18.101  0.00  0.00    +0.000 A 
ATOM     17  C   UNL     1       2.420   7.227  18.833  0.00  0.00    +0.000 A 
BRANCH  12  19
ATOM     18  C   UNL     1       1.736   8.649  21.805  0.00  0.00    +0.000 C 
ATOM     19  O   UNL     1       1.134   7.836  20.843  0.00  0.00    +0.000 OA
ENDBRANCH  12  19
BRANCH  17  20
ATOM     20  O   UNL     1       2.518   8.440  18.238  0.00  0.00    +0.000 OA
ATOM     21  C   UNL     1       1.603   9.421  17.970  0.00  0.00    +0.000 C 
ENDBRANCH  17  20
ENDBRANCH  11  15
ENDBRANCH   9  11
ENDBRANCH   1   9
BRANCH   1  22
ATOM     22  C   UNL     1       5.173   4.775  15.592  0.00  0.00    +0.000 C 
BRANCH  22  23
ATOM     23  C   UNL     1       5.777   4.344  14.281  0.00  0.00    +0.000 A 
ATOM     24  C   UNL     1       5.095   3.525  13.363  0.00  0.00    +0.000 A 
ATOM     25  C   UNL     1       5.812   3.278  12.201  0.00  0.00    +0.000 A 
ATOM     26  S   UNL     1       7.291   4.063  12.312  0.00  0.00    +0.000 S 
ATOM     27  C   UNL     1       7.039   4.729  13.832  0.00  0.00    +0.000 A 
ENDBRANCH  22  23
ENDBRANCH   1  22
TORSDOF 8
ENDMDL
MODEL 3
REMARK VINA RESULT:      -7.7      3.242      7.001
REMARK  Name = 
REMARK  11 active torsions:
REMARK  status: ('A' for Active; 'I' for Inactive)
REMARK    1  A    between atoms: C_1  and  O_2
REMARK    2  A    between atoms: O_2  and  C_3
REMARK    3  A    between atoms: C_6  and  C_7
REMARK    4  A    between atoms: C_7  and  N_8
REMARK    5  A    between atoms: N_8  and  C_9
REMARK    6  A    between atoms: C_9  and  C_10
REMARK    7  A    between atoms: C_9  and  C_16
REMARK    8  A    between atoms: C_10  and  C_11
REMARK    9  A    between atoms: C_19  and  C_20
REMARK   10  A    between atoms: C_24  and  O_25
REMARK   11  A    between atoms: O_25  and  C_26
REMARK                            x       y       z     vdW  Elec       q    Type
REMARK                         _______ _______ _______ _____ _____    ______ ____
ROOT
ATOM      1  C   UNL     1       3.611   5.963  18.285  0.00  0.00    +0.000 C 
ENDROOT
BRANCH   1   2
ATOM      2  C   UNL     1       4.414   5.514  17.068  0.00  0.00    +0.000 A 
ATOM      3  C   UNL     1       4.927   6.448  16.153  0.00  0.00    +0.000 A 
ATOM      4  C   UNL     1       5.647   6.009  15.040  0.00  0.00    +0.000 A 
ATOM      5  C   UNL     1       5.839   4.637  14.826  0.00  0.00    +0.000 A 
ATOM      6  C   UNL     1       6.596   4.138  13.629  0.00  0.00    +0.000 C 
ATOM      7  C   UNL     1       5.307   3.732  15.749  0.00  0.00    +0.000 A 
ATOM      8  N   UNL     1       4.622   4.184  16.834  0.00  0.00    +0.000 NA
ENDBRANCH   1   2
BRANCH   1   9
ATOM      9  N   UNL     1       3.400   7.429  18.253  0.00  0.00    +0.000 NA
ATOM     10  H   UNL     1       3.768   7.839  19.144  0.00  0.00    +0.000 HD
BRANCH   9  11
ATOM     11  C   UNL     1       1.990   7.876  18.110  0.00  0.00    +0.000 C 
BRANCH  11  15
ATOM     12  C   UNL     1       0.611  10.076  21.586  0.00  0.00    +0.000 A 
ATOM     13  C   UNL     1       1.065   8.739  21.693  0.00  0.00    +0.000 A 
ATOM     14  C   UNL     1       1.523   8.037  20.584  0.00  0.00    +0.000 A 
ATOM     15  C   UNL     1       1.528   8.633  19.323  0.00  0.00    +0.000 A 
ATOM     16  C   UNL     1       1.087   9.944  19.194  0.00  0.00    +0.000 A 
ATOM     17  C   UNL     1       0.642  10.694  20.288  0.00  0.00    +0.000 A 
BRANCH  12  19
ATOM     18  C   UNL     1      -1.171  10.855  23.089  0.00  0.00    +0.000 C 
ATOM     19  O   UNL     1       0.165  10.733  22.703  0.00  0.00    +0.000 OA
ENDBRANCH  12  19
BRANCH  17  20
ATOM     20  O   UNL     1       0.288  11.959  19.956  0.00  0.00    +0.000 OA
ATOM     21  C   UNL     1       0.714  12.818  18.980  0.00  0.00    +0.000 C 
ENDBRANCH  17  20
ENDBRANCH  11  15
ENDBRANCH   9  11
ENDBRANCH   1   9
BRANCH   1  22
ATOM     22  C   UNL     1       2.268   5.177  18.380  0.00  0.00    +0.000 C 
BRANCH  22  23
ATOM     23  C   UNL     1       2.187   4.222  19.541  0.00  0.00    +0.000 A 
ATOM     24  C   UNL     1       3.268   3.414  19.939  0.00  0.00    +0.000 A 
ATOM     25  C   UNL     1       2.998   2.634  21.054  0.00  0.00    +0.000 A 
ATOM     26  S   UNL     1       1.422   2.935  21.544  0.00  0.00    +0.000 S 
ATOM     27  C   UNL     1       1.064   4.060  20.351  0.00  0.00    +0.000 A 
ENDBRANCH  22  23
ENDBRANCH   1  22
TORSDOF 8
ENDMDL
MODEL 4
REMARK VINA RESULT:      -7.7      3.206      7.023
REMARK  Name = 
REMARK  11 active torsions:
REMARK  status: ('A' for Active; 'I' for Inactive)
REMARK    1  A    between atoms: C_1  and  O_2
REMARK    2  A    between atoms: O_2  and  C_3
REMARK    3  A    between atoms: C_6  and  C_7
REMARK    4  A    between atoms: C_7  and  N_8
REMARK    5  A    between atoms: N_8  and  C_9
REMARK    6  A    between atoms: C_9  and  C_10
REMARK    7  A    between atoms: C_9  and  C_16
REMARK    8  A    between atoms: C_10  and  C_11
REMARK    9  A    between atoms: C_19  and  C_20
REMARK   10  A    between atoms: C_24  and  O_25
REMARK   11  A    between atoms: O_25  and  C_26
REMARK                            x       y       z     vdW  Elec       q    Type
REMARK                         _______ _______ _______ _____ _____    ______ ____
ROOT
ATOM      1  C   UNL     1       3.465   5.909  18.212  0.00  0.00    +0.000 C 
ENDROOT
BRANCH   1   2
ATOM      2  C   UNL     1       4.317   5.440  17.038  0.00  0.00    +0.000 A 
ATOM      3  C   UNL     1       4.602   4.078  16.846  0.00  0.00    +0.000 A 
ATOM      4  C   UNL     1       5.396   3.677  15.769  0.00  0.00    +0.000 A 
ATOM      5  C   UNL     1       5.925   4.635  14.893  0.00  0.00    +0.000 A 
ATOM      6  C   UNL     1       6.793   4.232  13.736  0.00  0.00    +0.000 C 
ATOM      7  C   UNL     1       5.631   5.984  15.116  0.00  0.00    +0.000 A 
ATOM      8  N   UNL     1       4.843   6.349  16.163  0.00  0.00    +0.000 NA
ENDBRANCH   1   2
BRANCH   1   9
ATOM      9  N   UNL     1       3.438   7.390  18.272  0.00  0.00    +0.000 NA
ATOM     10  H   UNL     1       3.761   7.692  19.222  0.00  0.00    +0.000 HD
BRANCH   9  11
ATOM     11  C   UNL     1       2.114   8.022  18.033  0.00  0.00    +0.000 C 
BRANCH  11  15
ATOM     12  C   UNL     1       0.662  10.149  21.525  0.00  0.00    +0.000 A 
ATOM     13  C   UNL     1       1.093   8.803  21.609  0.00  0.00    +0.000 A 
ATOM     14  C   UNL     1       1.575   8.123  20.495  0.00  0.00    +0.000 A 
ATOM     15  C   UNL     1       1.626   8.753  19.252  0.00  0.00    +0.000 A 
ATOM     16  C   UNL     1       1.208  10.074  19.145  0.00  0.00    +0.000 A 
ATOM     17  C   UNL     1       0.741  10.801  20.245  0.00  0.00    +0.000 A 
BRANCH  12  19
ATOM     18  C   UNL     1      -1.080  10.612  23.196  0.00  0.00    +0.000 C 
ATOM     19  O   UNL     1       0.192  10.782  22.645  0.00  0.00    +0.000 OA
ENDBRANCH  12  19
BRANCH  17  20
ATOM     20  O   UNL     1       0.415  12.079  19.937  0.00  0.00    +0.000 OA
ATOM     21  C   UNL     1       0.962  13.286  20.276  0.00  0.00    +0.000 C 
ENDBRANCH  17  20
ENDBRANCH  11  15
ENDBRANCH   9  11
ENDBRANCH   1   9
BRANCH   1  22
ATOM     22  C   UNL     1       2.034   5.297  18.134  0.00  0.00    +0.000 C 
BRANCH  22  23
ATOM     23  C   UNL     1       1.764   4.213  19.143  0.00  0.00    +0.000 A 
ATOM     24  C   UNL     1       1.460   2.890  18.774  0.00  0.00    +0.000 A 
ATOM     25  C   UNL     1       1.284   2.038  19.856  0.00  0.00    +0.000 A 
ATOM     26  S   UNL     1       1.496   2.921  21.267  0.00  0.00    +0.000 S 
ATOM     27  C   UNL     1       1.816   4.392  20.524  0.00  0.00    +0.000 A 
ENDBRANCH  22  23
ENDBRANCH   1  22
TORSDOF 8
ENDMDL
MODEL 5
REMARK VINA RESULT:      -7.6      3.197      7.046
REMARK  Name = 
REMARK  11 active torsions:
REMARK  status: ('A' for Active; 'I' for Inactive)
REMARK    1  A    between atoms: C_1  and  O_2
REMARK    2  A    between atoms: O_2  and  C_3
REMARK    3  A    between atoms: C_6  and  C_7
REMARK    4  A    between atoms: C_7  and  N_8
REMARK    5  A    between atoms: N_8  and  C_9
REMARK    6  A    between atoms: C_9  and  C_10
REMARK    7  A    between atoms: C_9  and  C_16
REMARK    8  A    between atoms: C_10  and  C_11
REMARK    9  A    between atoms: C_19  and  C_20
REMARK   10  A    between atoms: C_24  and  O_25
REMARK   11  A    between atoms: O_25  and  C_26
REMARK                            x       y       z     vdW  Elec       q    Type
REMARK                         _______ _______ _______ _____ _____    ______ ____
ROOT
ATOM      1  C   UNL     1       4.352   5.905  18.315  0.00  0.00    +0.000 C 
ENDROOT
BRANCH   1   2
ATOM      2  C   UNL     1       4.928   5.399  16.997  0.00  0.00    +0.000 A 
ATOM      3  C   UNL     1       5.110   6.265  15.905  0.00  0.00    +0.000 A 
ATOM      4  C   UNL     1       5.627   5.772  14.705  0.00  0.00    +0.000 A 
ATOM      5  C   UNL     1       5.945   4.412  14.584  0.00  0.00    +0.000 A 
ATOM      6  C   UNL     1       6.488   3.855  13.300  0.00  0.00    +0.000 C 
ATOM      7  C   UNL     1       5.743   3.575  15.685  0.00  0.00    +0.000 A 
ATOM      8  N   UNL     1       5.252   4.080  16.849  0.00  0.00    +0.000 NA
ENDBRANCH   1   2
BRANCH   1   9
ATOM      9  N   UNL     1       2.966   6.391  18.121  0.00  0.00    +0.000 NA
ATOM     10  H   UNL     1       2.550   5.895  17.298  0.00  0.00    +0.000 HD
BRANCH   9  11
ATOM     11  C   UNL     1       2.822   7.850  17.878  0.00  0.00    +0.000 C 
BRANCH  11  15
ATOM     12  C   UNL     1       0.198   9.703  20.796  0.00  0.00    +0.000 A 
ATOM     13  C   UNL     1       0.951   8.545  21.112  0.00  0.00    +0.000 A 
ATOM     14  C   UNL     1       1.805   7.959  20.184  0.00  0.00    +0.000 A 
ATOM     15  C   UNL     1       1.927   8.492  18.902  0.00  0.00    +0.000 A 
ATOM     16  C   UNL     1       1.198   9.627  18.569  0.00  0.00    +0.000 A 
ATOM     17  C   UNL     1       0.348  10.262  19.480  0.00  0.00    +0.000 A 
BRANCH  12  19
ATOM     18  C   UNL     1      -0.612   9.957  23.102  0.00  0.00    +0.000 C 
ATOM     19  O   UNL     1      -0.634  10.249  21.737  0.00  0.00    +0.000 OA
ENDBRANCH  12  19
BRANCH  17  20
ATOM     20  O   UNL     1      -0.243  11.370  18.970  0.00  0.00    +0.000 OA
ATOM     21  C   UNL     1      -1.454  11.587  18.373  0.00  0.00    +0.000 C 
ENDBRANCH  17  20
ENDBRANCH  11  15
ENDBRANCH   9  11
ENDBRANCH   1   9
BRANCH   1  22
ATOM     22  C   UNL     1       4.441   4.802  19.414  0.00  0.00    +0.000 C 
BRANCH  22  23
ATOM     23  C   UNL     1       3.147   4.078  19.676  0.00  0.00    +0.000 A 
ATOM     24  C   UNL     1       2.335   4.352  20.792  0.00  0.00    +0.000 A 
ATOM     25  C   UNL     1       1.167   3.603  20.826  0.00  0.00    +0.000 A 
ATOM     26  S   UNL     1       1.141   2.597  19.484  0.00  0.00    +0.000 S 
ATOM     27  C   UNL     1       2.608   3.101  18.841  0.00  0.00    +0.000 A 
ENDBRANCH  22  23
ENDBRANCH   1  22
TORSDOF 8
ENDMDL
MODEL 6
REMARK VINA RESULT:      -7.6      2.686      6.447
REMARK  Name = 
REMARK  11 active torsions:
REMARK  status: ('A' for Active; 'I' for Inactive)
REMARK    1  A    between atoms: C_1  and  O_2
REMARK    2  A    between atoms: O_2  and  C_3
REMARK    3  A    between atoms: C_6  and  C_7
REMARK    4  A    between atoms: C_7  and  N_8
REMARK    5  A    between atoms: N_8  and  C_9
REMARK    6  A    between atoms: C_9  and  C_10
REMARK    7  A    between atoms: C_9  and  C_16
REMARK    8  A    between atoms: C_10  and  C_11
REMARK    9  A    between atoms: C_19  and  C_20
REMARK   10  A    between atoms: C_24  and  O_25
REMARK   11  A    between atoms: O_25  and  C_26
REMARK                            x       y       z     vdW  Elec       q    Type
REMARK                         _______ _______ _______ _____ _____    ______ ____
ROOT
ATOM      1  C   UNL     1       4.945   4.137  18.015  0.00  0.00    +0.000 C 
ENDROOT
BRANCH   1   2
ATOM      2  C   UNL     1       5.602   4.356  16.656  0.00  0.00    +0.000 A 
ATOM      3  C   UNL     1       4.962   3.965  15.468  0.00  0.00    +0.000 A 
ATOM      4  C   UNL     1       5.593   4.166  14.238  0.00  0.00    +0.000 A 
ATOM      5  C   UNL     1       6.872   4.737  14.192  0.00  0.00    +0.000 A 
ATOM      6  C   UNL     1       7.578   4.950  12.884  0.00  0.00    +0.000 C 
ATOM      7  C   UNL     1       7.487   5.107  15.391  0.00  0.00    +0.000 A 
ATOM      8  N   UNL     1       6.847   4.915  16.577  0.00  0.00    +0.000 NA
ENDBRANCH   1   2
BRANCH   1   9
ATOM      9  N   UNL     1       4.496   5.429  18.586  0.00  0.00    +0.000 NA
ATOM     10  H   UNL     1       3.950   5.237  19.459  0.00  0.00    +0.000 HD
BRANCH   9  11
ATOM     11  C   UNL     1       3.640   6.263  17.703  0.00  0.00    +0.000 C 
BRANCH  11  15
ATOM     12  C   UNL     1       1.262   9.113  19.951  0.00  0.00    +0.000 A 
ATOM     13  C   UNL     1       1.547   7.824  20.464  0.00  0.00    +0.000 A 
ATOM     14  C   UNL     1       2.322   6.915  19.753  0.00  0.00    +0.000 A 
ATOM     15  C   UNL     1       2.827   7.248  18.497  0.00  0.00    +0.000 A 
ATOM     16  C   UNL     1       2.561   8.507  17.973  0.00  0.00    +0.000 A 
ATOM     17  C   UNL     1       1.808   9.460  18.666  0.00  0.00    +0.000 A 
BRANCH  12  19
ATOM     18  C   UNL     1      -0.763  10.460  20.304  0.00  0.00    +0.000 C 
ATOM     19  O   UNL     1       0.492   9.980  20.681  0.00  0.00    +0.000 OA
ENDBRANCH  12  19
BRANCH  17  20
ATOM     20  O   UNL     1       1.692  10.633  17.998  0.00  0.00    +0.000 OA
ATOM     21  C   UNL     1       2.150  11.897  18.252  0.00  0.00    +0.000 C 
ENDBRANCH  17  20
ENDBRANCH  11  15
ENDBRANCH   9  11
ENDBRANCH   1   9
BRANCH   1  22
ATOM     22  C   UNL     1       3.780   3.107  17.903  0.00  0.00    +0.000 C 
BRANCH  22  23
ATOM     23  C   UNL     1       2.861   3.075  19.095  0.00  0.00    +0.000 A 
ATOM     24  C   UNL     1       1.497   3.413  19.012  0.00  0.00    +0.000 A 
ATOM     25  C   UNL     1       0.818   3.280  20.215  0.00  0.00    +0.000 A 
ATOM     26  S   UNL     1       1.903   2.756  21.383  0.00  0.00    +0.000 S 
ATOM     27  C   UNL     1       3.245   2.686  20.377  0.00  0.00    +0.000 A 
ENDBRANCH  22  23
ENDBRANCH   1  22
TORSDOF 8
ENDMDL
MODEL 7
REMARK VINA RESULT:      -7.6      0.820      1.050
REMARK  Name = 
REMARK  11 active torsions:
REMARK  status: ('A' for Active; 'I' for Inactive)
REMARK    1  A    between atoms: C_1  and  O_2
REMARK    2  A    between atoms: O_2  and  C_3
REMARK    3  A    between atoms: C_6  and  C_7
REMARK    4  A    between atoms: C_7  and  N_8
REMARK    5  A    between atoms: N_8  and  C_9
REMARK    6  A    between atoms: C_9  and  C_10
REMARK    7  A    between atoms: C_9  and  C_16
REMARK    8  A    between atoms: C_10  and  C_11
REMARK    9  A    between atoms: C_19  and  C_20
REMARK   10  A    between atoms: C_24  and  O_25
REMARK   11  A    between atoms: O_25  and  C_26
REMARK                            x       y       z     vdW  Elec       q    Type
REMARK                         _______ _______ _______ _____ _____    ______ ____
ROOT
ATOM      1  C   UNL     1       2.397   6.559  19.374  0.00  0.00    +0.000 C 
ENDROOT
BRANCH   1   2
ATOM      2  C   UNL     1       1.973   8.013  19.205  0.00  0.00    +0.000 A 
ATOM      3  C   UNL     1       2.273   8.726  18.032  0.00  0.00    +0.000 A 
ATOM      4  C   UNL     1       1.883  10.062  17.909  0.00  0.00    +0.000 A 
ATOM      5  C   UNL     1       1.212  10.696  18.964  0.00  0.00    +0.000 A 
ATOM      6  C   UNL     1       0.796  12.135  18.863  0.00  0.00    +0.000 C 
ATOM      7  C   UNL     1       0.937   9.963  20.122  0.00  0.00    +0.000 A 
ATOM      8  N   UNL     1       1.313   8.659  20.213  0.00  0.00    +0.000 NA
ENDBRANCH   1   2
BRANCH   1   9
ATOM      9  N   UNL     1       3.835   6.477  19.723  0.00  0.00    +0.000 NA
ATOM     10  H   UNL     1       4.353   7.209  19.181  0.00  0.00    +0.000 HD
BRANCH   9  11
ATOM     11  C   UNL     1       4.494   5.174  19.449  0.00  0.00    +0.000 C 
BRANCH  11  15
ATOM     12  C   UNL     1       6.806   5.292  15.779  0.00  0.00    +0.000 A 
ATOM     13  C   UNL     1       5.805   4.313  15.987  0.00  0.00    +0.000 A 
ATOM     14  C   UNL     1       5.051   4.282  17.155  0.00  0.00    +0.000 A 
ATOM     15  C   UNL     1       5.279   5.214  18.167  0.00  0.00    +0.000 A 
ATOM     16  C   UNL     1       6.257   6.184  17.985  0.00  0.00    +0.000 A 
ATOM     17  C   UNL     1       7.019   6.266  16.816  0.00  0.00    +0.000 A 
BRANCH  12  19
ATOM     18  C   UNL     1       7.107   4.733  13.404  0.00  0.00    +0.000 C 
ATOM     19  O   UNL     1       7.529   5.287  14.614  0.00  0.00    +0.000 OA
ENDBRANCH  12  19
BRANCH  17  20
ATOM     20  O   UNL     1       7.893   7.301  16.823  0.00  0.00    +0.000 OA
ATOM     21  C   UNL     1       8.049   8.381  17.648  0.00  0.00    +0.000 C 
ENDBRANCH  17  20
ENDBRANCH  11  15
ENDBRANCH   9  11
ENDBRANCH   1   9
BRANCH   1  22
ATOM     22  C   UNL     1       1.495   5.839  20.422  0.00  0.00    +0.000 C 
BRANCH  22  23
ATOM     23  C   UNL     1       1.514   4.336  20.334  0.00  0.00    +0.000 A 
ATOM     24  C   UNL     1       1.837   3.515  21.429  0.00  0.00    +0.000 A 
ATOM     25  C   UNL     1       1.758   2.158  21.147  0.00  0.00    +0.000 A 
ATOM     26  S   UNL     1       1.297   1.974  19.545  0.00  0.00    +0.000 S 
ATOM     27  C   UNL     1       1.189   3.611  19.189  0.00  0.00    +0.000 A 
ENDBRANCH  22  23
ENDBRANCH   1  22
TORSDOF 8
ENDMDL
MODEL 8
REMARK VINA RESULT:      -7.6      2.881      6.438
REMARK  Name = 
REMARK  11 active torsions:
REMARK  status: ('A' for Active; 'I' for Inactive)
REMARK    1  A    between atoms: C_1  and  O_2
REMARK    2  A    between atoms: O_2  and  C_3
REMARK    3  A    between atoms: C_6  and  C_7
REMARK    4  A    between atoms: C_7  and  N_8
REMARK    5  A    between atoms: N_8  and  C_9
REMARK    6  A    between atoms: C_9  and  C_10
REMARK    7  A    between atoms: C_9  and  C_16
REMARK    8  A    between atoms: C_10  and  C_11
REMARK    9  A    between atoms: C_19  and  C_20
REMARK   10  A    between atoms: C_24  and  O_25
REMARK   11  A    between atoms: O_25  and  C_26
REMARK                            x       y       z     vdW  Elec       q    Type
REMARK                         _______ _______ _______ _____ _____    ______ ____
ROOT
ATOM      1  C   UNL     1       5.152   4.499  19.066  0.00  0.00    +0.000 C 
ENDROOT
BRANCH   1   2
ATOM      2  C   UNL     1       5.641   4.587  17.624  0.00  0.00    +0.000 A 
ATOM      3  C   UNL     1       4.968   3.919  16.587  0.00  0.00    +0.000 A 
ATOM      4  C   UNL     1       5.445   4.005  15.277  0.00  0.00    +0.000 A 
ATOM      5  C   UNL     1       6.606   4.741  15.002  0.00  0.00    +0.000 A 
ATOM      6  C   UNL     1       7.148   4.837  13.605  0.00  0.00    +0.000 C 
ATOM      7  C   UNL     1       7.259   5.386  16.056  0.00  0.00    +0.000 A 
ATOM      8  N   UNL     1       6.767   5.299  17.322  0.00  0.00    +0.000 NA
ENDBRANCH   1   2
BRANCH   1   9
ATOM      9  N   UNL     1       4.106   5.518  19.320  0.00  0.00    +0.000 NA
ATOM     10  H   UNL     1       3.286   5.049  19.772  0.00  0.00    +0.000 HD
BRANCH   9  11
ATOM     11  C   UNL     1       3.599   6.236  18.121  0.00  0.00    +0.000 C 
BRANCH  11  15
ATOM     12  C   UNL     1       1.057   9.558  19.273  0.00  0.00    +0.000 A 
ATOM     13  C   UNL     1       1.589   9.457  17.965  0.00  0.00    +0.000 A 
ATOM     14  C   UNL     1       2.391   8.385  17.588  0.00  0.00    +0.000 A 
ATOM     15  C   UNL     1       2.708   7.384  18.505  0.00  0.00    +0.000 A 
ATOM     16  C   UNL     1       2.197   7.462  19.795  0.00  0.00    +0.000 A 
ATOM     17  C   UNL     1       1.366   8.509  20.207  0.00  0.00    +0.000 A 
BRANCH  12  19
ATOM     18  C   UNL     1      -1.104  10.722  19.393  0.00  0.00    +0.000 C 
ATOM     19  O   UNL     1       0.272  10.632  19.606  0.00  0.00    +0.000 OA
ENDBRANCH  12  19
BRANCH  17  20
ATOM     20  O   UNL     1       0.949   8.382  21.489  0.00  0.00    +0.000 OA
ATOM     21  C   UNL     1       1.019   9.209  22.577  0.00  0.00    +0.000 C 
ENDBRANCH  17  20
ENDBRANCH  11  15
ENDBRANCH   9  11
ENDBRANCH   1   9
BRANCH   1  22
ATOM     22  C   UNL     1       4.660   3.056  19.394  0.00  0.00    +0.000 C 
BRANCH  22  23
ATOM     23  C   UNL     1       3.250   2.983  19.917  0.00  0.00    +0.000 A 
ATOM     24  C   UNL     1       2.126   2.958  19.071  0.00  0.00    +0.000 A 
ATOM     25  C   UNL     1       0.922   2.849  19.751  0.00  0.00    +0.000 A 
ATOM     26  S   UNL     1       1.244   2.792  21.397  0.00  0.00    +0.000 S 
ATOM     27  C   UNL     1       2.914   2.901  21.267  0.00  0.00    +0.000 A 
ENDBRANCH  22  23
ENDBRANCH   1  22
TORSDOF 8
ENDMDL
MODEL 9
REMARK VINA RESULT:      -7.5      1.458      2.049
REMARK  Name = 
REMARK  11 active torsions:
REMARK  status: ('A' for Active; 'I' for Inactive)
REMARK    1  A    between atoms: C_1  and  O_2
REMARK    2  A    between atoms: O_2  and  C_3
REMARK    3  A    between atoms: C_6  and  C_7
REMARK    4  A    between atoms: C_7  and  N_8
REMARK    5  A    between atoms: N_8  and  C_9
REMARK    6  A    between atoms: C_9  and  C_10
REMARK    7  A    between atoms: C_9  and  C_16
REMARK    8  A    between atoms: C_10  and  C_11
REMARK    9  A    between atoms: C_19  and  C_20
REMARK   10  A    between atoms: C_24  and  O_25
REMARK   11  A    between atoms: O_25  and  C_26
REMARK                            x       y       z     vdW  Elec       q    Type
REMARK                         _______ _______ _______ _____ _____    ______ ____
ROOT
ATOM      1  C   UNL     1       2.777   6.760  18.433  0.00  0.00    +0.000 C 
ENDROOT
BRANCH   1   2
ATOM      2  C   UNL     1       2.024   8.032  18.806  0.00  0.00    +0.000 A 
ATOM      3  C   UNL     1       1.810   9.051  17.862  0.00  0.00    +0.000 A 
ATOM      4  C   UNL     1       1.129  10.213  18.234  0.00  0.00    +0.000 A 
ATOM      5  C   UNL     1       0.677  10.369  19.552  0.00  0.00    +0.000 A 
ATOM      6  C   UNL     1      -0.045  11.613  19.981  0.00  0.00    +0.000 C 
ATOM      7  C   UNL     1       0.914   9.341  20.470  0.00  0.00    +0.000 A 
ATOM      8  N   UNL     1       1.567   8.213  20.081  0.00  0.00    +0.000 NA
ENDBRANCH   1   2
BRANCH   1   9
ATOM      9  N   UNL     1       4.019   7.091  17.696  0.00  0.00    +0.000 NA
ATOM     10  H   UNL     1       3.809   7.089  16.670  0.00  0.00    +0.000 HD
BRANCH   9  11
ATOM     11  C   UNL     1       5.166   6.171  17.914  0.00  0.00    +0.000 C 
BRANCH  11  15
ATOM     12  C   UNL     1       6.151   3.915  14.342  0.00  0.00    +0.000 A 
ATOM     13  C   UNL     1       5.037   3.571  15.146  0.00  0.00    +0.000 A 
ATOM     14  C   UNL     1       4.709   4.302  16.283  0.00  0.00    +0.000 A 
ATOM     15  C   UNL     1       5.489   5.391  16.671  0.00  0.00    +0.000 A 
ATOM     16  C   UNL     1       6.587   5.747  15.897  0.00  0.00    +0.000 A 
ATOM     17  C   UNL     1       6.936   5.054  14.733  0.00  0.00    +0.000 A 
BRANCH  12  19
ATOM     18  C   UNL     1       5.712   3.173  12.040  0.00  0.00    +0.000 C 
ATOM     19  O   UNL     1       6.442   3.168  13.230  0.00  0.00    +0.000 OA
ENDBRANCH  12  19
BRANCH  17  20
ATOM     20  O   UNL     1       8.016   5.580  14.107  0.00  0.00    +0.000 OA
ATOM     21  C   UNL     1       8.352   5.714  12.788  0.00  0.00    +0.000 C 
ENDBRANCH  17  20
ENDBRANCH  11  15
ENDBRANCH   9  11
ENDBRANCH   1   9
BRANCH   1  22
ATOM     22  C   UNL     1       3.058   5.895  19.700  0.00  0.00    +0.000 C 
BRANCH  22  23
ATOM     23  C   UNL     1       2.324   4.580  19.731  0.00  0.00    +0.000 A 
ATOM     24  C   UNL     1       2.095   3.867  20.922  0.00  0.00    +0.000 A 
ATOM     25  C   UNL     1       1.367   2.700  20.738  0.00  0.00    +0.000 A 
ATOM     26  S   UNL     1       1.014   2.545  19.105  0.00  0.00    +0.000 S 
ATOM     27  C   UNL     1       1.776   3.957  18.612  0.00  0.00    +0.000 A 
ENDBRANCH  22  23
ENDBRANCH   1  22
TORSDOF 8
ENDMDL
