MODEL 1
REMARK VINA RESULT:      -8.2      0.000      0.000
REMARK  Name = 
REMARK  2 active torsions:
REMARK  status: ('A' for Active; 'I' for Inactive)
REMARK    1  A    between atoms: N_12  and  C_13
REMARK    2  A    between atoms: C_13  and  C_14
REMARK                            x       y       z     vdW  Elec       q    Type
REMARK                         _______ _______ _______ _____ _____    ______ ____
ROOT
ATOM      1  O   UNL     1       5.508   7.050  15.819  0.00  0.00    +0.000 OA
ATOM      2  C   UNL     1       5.346   6.380  16.821  0.00  0.00    +0.000 C 
ATOM      3  C   UNL     1       4.232   6.556  17.756  0.00  0.00    +0.000 A 
ATOM      4  C   UNL     1       3.194   7.468  17.765  0.00  0.00    +0.000 A 
ATOM      5  C   UNL     1       2.245   7.341  18.786  0.00  0.00    +0.000 A 
ATOM      6  C   UNL     1       2.361   6.321  19.747  0.00  0.00    +0.000 A 
ATOM      7  F   UNL     1       1.425   6.216  20.699  0.00  0.00    +0.000 F 
ATOM      8  C   UNL     1       3.417   5.416  19.731  0.00  0.00    +0.000 A 
ATOM      9  C   UNL     1       4.345   5.570  18.720  0.00  0.00    +0.000 A 
ATOM     10  C   UNL     1       5.551   4.800  18.430  0.00  0.00    +0.000 C 
ATOM     11  O   UNL     1       5.947   3.891  19.130  0.00  0.00    +0.000 OA
ATOM     12  N   UNL     1       6.082   5.328  17.287  0.00  0.00    +0.000 N 
ENDROOT
BRANCH  12  13
ATOM     13  C   UNL     1       7.232   4.765  16.602  0.00  0.00    +0.000 C 
BRANCH  13  14
ATOM     14  C   UNL     1       6.988   4.636  15.111  0.00  0.00    +0.000 A 
ATOM     15  C   UNL     1       5.990   3.792  14.627  0.00  0.00    +0.000 A 
ATOM     16  C   UNL     1       5.886   3.591  13.253  0.00  0.00    +0.000 A 
ATOM     17  C   UNL     1       6.761   4.250  12.399  0.00  0.00    +0.000 A 
ATOM     18  C   UNL     1       7.695   5.106  12.957  0.00  0.00    +0.000 A 
ATOM     19  N   UNL     1       7.824   5.311  14.284  0.00  0.00    +0.000 NA
ENDBRANCH  13  14
ENDBRANCH  12  13
TORSDOF 2
ENDMDL
MODEL 2
REMARK VINA RESULT:      -7.9      2.913      4.134
REMARK  Name = 
REMARK  2 active torsions:
REMARK  status: ('A' for Active; 'I' for Inactive)
REMARK    1  A    between atoms: N_12  and  C_13
REMARK    2  A    between atoms: C_13  and  C_14
REMARK                            x       y       z     vdW  Elec       q    Type
REMARK                         _______ _______ _______ _____ _____    ______ ____
ROOT
ATOM      1  O   UNL     1       4.724   3.337  16.358  0.00  0.00    +0.000 OA
ATOM      2  C   UNL     1       4.058   4.018  17.113  0.00  0.00    +0.000 C 
ATOM      3  C   UNL     1       3.146   3.476  18.123  0.00  0.00    +0.000 A 
ATOM      4  C   UNL     1       2.807   2.170  18.427  0.00  0.00    +0.000 A 
ATOM      5  C   UNL     1       1.927   1.976  19.499  0.00  0.00    +0.000 A 
ATOM      6  C   UNL     1       1.429   3.073  20.223  0.00  0.00    +0.000 A 
ATOM      7  F   UNL     1       0.605   2.850  21.255  0.00  0.00    +0.000 F 
ATOM      8  C   UNL     1       1.772   4.382  19.899  0.00  0.00    +0.000 A 
ATOM      9  C   UNL     1       2.631   4.547  18.831  0.00  0.00    +0.000 A 
ATOM     10  C   UNL     1       3.173   5.769  18.245  0.00  0.00    +0.000 C 
ATOM     11  O   UNL     1       2.867   6.882  18.621  0.00  0.00    +0.000 OA
ATOM     12  N   UNL     1       4.018   5.377  17.245  0.00  0.00    +0.000 N 
ENDROOT
BRANCH  12  13
ATOM     13  C   UNL     1       4.846   6.299  16.487  0.00  0.00    +0.000 C 
BRANCH  13  14
ATOM     14  C   UNL     1       6.145   6.605  17.208  0.00  0.00    +0.000 A 
ATOM     15  C   UNL     1       6.672   5.705  18.133  0.00  0.00    +0.000 A 
ATOM     16  C   UNL     1       7.788   6.079  18.876  0.00  0.00    +0.000 A 
ATOM     17  C   UNL     1       8.362   7.327  18.665  0.00  0.00    +0.000 A 
ATOM     18  C   UNL     1       7.805   8.144  17.697  0.00  0.00    +0.000 A 
ATOM     19  N   UNL     1       6.718   7.811  16.969  0.00  0.00    +0.000 NA
ENDBRANCH  13  14
ENDBRANCH  12  13
TORSDOF 2
ENDMDL
MODEL 3
REMARK VINA RESULT:      -7.8      1.915      2.466
REMARK  Name = 
REMARK  2 active torsions:
REMARK  status: ('A' for Active; 'I' for Inactive)
REMARK    1  A    between atoms: N_12  and  C_13
REMARK    2  A    between atoms: C_13  and  C_14
REMARK                            x       y       z     vdW  Elec       q    Type
REMARK                         _______ _______ _______ _____ _____    ______ ____
ROOT
ATOM      1  O   UNL     1       2.925   7.150  17.919  0.00  0.00    +0.000 OA
ATOM      2  C   UNL     1       3.473   6.202  18.449  0.00  0.00    +0.000 C 
ATOM      3  C   UNL     1       2.790   5.234  19.310  0.00  0.00    +0.000 A 
ATOM      4  C   UNL     1       1.476   5.170  19.735  0.00  0.00    +0.000 A 
ATOM      5  C   UNL     1       1.117   4.073  20.527  0.00  0.00    +0.000 A 
ATOM      6  C   UNL     1       2.065   3.088  20.856  0.00  0.00    +0.000 A 
ATOM      7  F   UNL     1       1.682   2.041  21.599  0.00  0.00    +0.000 F 
ATOM      8  C   UNL     1       3.386   3.171  20.429  0.00  0.00    +0.000 A 
ATOM      9  C   UNL     1       3.717   4.269  19.660  0.00  0.00    +0.000 A 
ATOM     10  C   UNL     1       4.996   4.645  19.067  0.00  0.00    +0.000 C 
ATOM     11  O   UNL     1       6.021   4.017  19.236  0.00  0.00    +0.000 OA
ATOM     12  N   UNL     1       4.772   5.790  18.355  0.00  0.00    +0.000 N 
ENDROOT
BRANCH  12  13
ATOM     13  C   UNL     1       5.776   6.426  17.521  0.00  0.00    +0.000 C 
BRANCH  13  14
ATOM     14  C   UNL     1       5.971   5.681  16.215  0.00  0.00    +0.000 A 
ATOM     15  C   UNL     1       4.954   4.882  15.695  0.00  0.00    +0.000 A 
ATOM     16  C   UNL     1       5.216   4.104  14.571  0.00  0.00    +0.000 A 
ATOM     17  C   UNL     1       6.474   4.157  13.983  0.00  0.00    +0.000 A 
ATOM     18  C   UNL     1       7.415   5.009  14.534  0.00  0.00    +0.000 A 
ATOM     19  N   UNL     1       7.191   5.767  15.628  0.00  0.00    +0.000 NA
ENDBRANCH  13  14
ENDBRANCH  12  13
TORSDOF 2
ENDMDL
MODEL 4
REMARK VINA RESULT:      -7.8      1.222      2.127
REMARK  Name = 
REMARK  2 active torsions:
REMARK  status: ('A' for Active; 'I' for Inactive)
REMARK    1  A    between atoms: N_12  and  C_13
REMARK    2  A    between atoms: C_13  and  C_14
REMARK                            x       y       z     vdW  Elec       q    Type
REMARK                         _______ _______ _______ _____ _____    ______ ____
ROOT
ATOM      1  O   UNL     1       4.547   3.072  17.276  0.00  0.00    +0.000 OA
ATOM      2  C   UNL     1       4.660   4.278  17.165  0.00  0.00    +0.000 C 
ATOM      3  C   UNL     1       3.678   5.245  17.660  0.00  0.00    +0.000 A 
ATOM      4  C   UNL     1       2.462   5.057  18.290  0.00  0.00    +0.000 A 
ATOM      5  C   UNL     1       1.769   6.206  18.691  0.00  0.00    +0.000 A 
ATOM      6  C   UNL     1       2.309   7.483  18.458  0.00  0.00    +0.000 A 
ATOM      7  F   UNL     1       1.629   8.561  18.871  0.00  0.00    +0.000 F 
ATOM      8  C   UNL     1       3.529   7.657  17.813  0.00  0.00    +0.000 A 
ATOM      9  C   UNL     1       4.186   6.509  17.418  0.00  0.00    +0.000 A 
ATOM     10  C   UNL     1       5.462   6.350  16.728  0.00  0.00    +0.000 C 
ATOM     11  O   UNL     1       6.130   7.285  16.338  0.00  0.00    +0.000 OA
ATOM     12  N   UNL     1       5.683   5.005  16.626  0.00  0.00    +0.000 N 
ENDROOT
BRANCH  12  13
ATOM     13  C   UNL     1       6.908   4.431  16.098  0.00  0.00    +0.000 C 
BRANCH  13  14
ATOM     14  C   UNL     1       6.959   4.518  14.585  0.00  0.00    +0.000 A 
ATOM     15  C   UNL     1       6.170   3.678  13.800  0.00  0.00    +0.000 A 
ATOM     16  C   UNL     1       6.345   3.687  12.419  0.00  0.00    +0.000 A 
ATOM     17  C   UNL     1       7.281   4.545  11.855  0.00  0.00    +0.000 A 
ATOM     18  C   UNL     1       7.992   5.379  12.700  0.00  0.00    +0.000 A 
ATOM     19  N   UNL     1       7.851   5.384  14.042  0.00  0.00    +0.000 NA
ENDBRANCH  13  14
ENDBRANCH  12  13
TORSDOF 2
ENDMDL
MODEL 5
REMARK VINA RESULT:      -7.6      3.452      6.012
REMARK  Name = 
REMARK  2 active torsions:
REMARK  status: ('A' for Active; 'I' for Inactive)
REMARK    1  A    between atoms: N_12  and  C_13
REMARK    2  A    between atoms: C_13  and  C_14
REMARK                            x       y       z     vdW  Elec       q    Type
REMARK                         _______ _______ _______ _____ _____    ______ ____
ROOT
ATOM      1  O   UNL     1       5.629   3.540  19.302  0.00  0.00    +0.000 OA
ATOM      2  C   UNL     1       5.510   4.542  18.624  0.00  0.00    +0.000 C 
ATOM      3  C   UNL     1       6.490   5.630  18.586  0.00  0.00    +0.000 A 
ATOM      4  C   UNL     1       7.676   5.803  19.274  0.00  0.00    +0.000 A 
ATOM      5  C   UNL     1       8.424   6.947  18.973  0.00  0.00    +0.000 A 
ATOM      6  C   UNL     1       7.972   7.863  18.006  0.00  0.00    +0.000 A 
ATOM      7  F   UNL     1       8.722   8.938  17.729  0.00  0.00    +0.000 F 
ATOM      8  C   UNL     1       6.771   7.681  17.329  0.00  0.00    +0.000 A 
ATOM      9  C   UNL     1       6.047   6.550  17.652  0.00  0.00    +0.000 A 
ATOM     10  C   UNL     1       4.767   6.077  17.134  0.00  0.00    +0.000 C 
ATOM     11  O   UNL     1       4.103   6.697  16.330  0.00  0.00    +0.000 OA
ATOM     12  N   UNL     1       4.521   4.879  17.744  0.00  0.00    +0.000 N 
ENDROOT
BRANCH  12  13
ATOM     13  C   UNL     1       3.392   4.027  17.413  0.00  0.00    +0.000 C 
BRANCH  13  14
ATOM     14  C   UNL     1       2.509   3.776  18.619  0.00  0.00    +0.000 A 
ATOM     15  C   UNL     1       1.998   4.842  19.359  0.00  0.00    +0.000 A 
ATOM     16  C   UNL     1       1.309   4.575  20.538  0.00  0.00    +0.000 A 
ATOM     17  C   UNL     1       1.127   3.257  20.939  0.00  0.00    +0.000 A 
ATOM     18  C   UNL     1       1.627   2.255  20.126  0.00  0.00    +0.000 A 
ATOM     19  N   UNL     1       2.307   2.485  18.983  0.00  0.00    +0.000 NA
ENDBRANCH  13  14
ENDBRANCH  12  13
TORSDOF 2
ENDMDL
MODEL 6
REMARK VINA RESULT:      -7.5      2.065      3.108
REMARK  Name = 
REMARK  2 active torsions:
REMARK  status: ('A' for Active; 'I' for Inactive)
REMARK    1  A    between atoms: N_12  and  C_13
REMARK    2  A    between atoms: C_13  and  C_14
REMARK                            x       y       z     vdW  Elec       q    Type
REMARK                         _______ _______ _______ _____ _____    ______ ____
ROOT
ATOM      1  O   UNL     1       6.337   4.010  18.837  0.00  0.00    +0.000 OA
ATOM      2  C   UNL     1       5.177   4.374  18.831  0.00  0.00    +0.000 C 
ATOM      3  C   UNL     1       4.117   3.758  19.632  0.00  0.00    +0.000 A 
ATOM      4  C   UNL     1       4.147   2.679  20.496  0.00  0.00    +0.000 A 
ATOM      5  C   UNL     1       2.956   2.363  21.159  0.00  0.00    +0.000 A 
ATOM      6  C   UNL     1       1.794   3.126  20.947  0.00  0.00    +0.000 A 
ATOM      7  F   UNL     1       0.677   2.808  21.613  0.00  0.00    +0.000 F 
ATOM      8  C   UNL     1       1.777   4.204  20.067  0.00  0.00    +0.000 A 
ATOM      9  C   UNL     1       2.961   4.488  19.417  0.00  0.00    +0.000 A 
ATOM     10  C   UNL     1       3.269   5.533  18.446  0.00  0.00    +0.000 C 
ATOM     11  O   UNL     1       2.442   6.309  18.016  0.00  0.00    +0.000 OA
ATOM     12  N   UNL     1       4.600   5.412  18.156  0.00  0.00    +0.000 N 
ENDROOT
BRANCH  12  13
ATOM     13  C   UNL     1       5.324   6.344  17.309  0.00  0.00    +0.000 C 
BRANCH  13  14
ATOM     14  C   UNL     1       5.798   5.683  16.029  0.00  0.00    +0.000 A 
ATOM     15  C   UNL     1       4.929   4.897  15.273  0.00  0.00    +0.000 A 
ATOM     16  C   UNL     1       5.433   4.194  14.182  0.00  0.00    +0.000 A 
ATOM     17  C   UNL     1       6.780   4.309  13.860  0.00  0.00    +0.000 A 
ATOM     18  C   UNL     1       7.566   5.145  14.634  0.00  0.00    +0.000 A 
ATOM     19  N   UNL     1       7.106   5.830  15.702  0.00  0.00    +0.000 NA
ENDBRANCH  13  14
ENDBRANCH  12  13
TORSDOF 2
ENDMDL
MODEL 7
REMARK VINA RESULT:      -7.5      3.078      4.129
REMARK  Name = 
REMARK  2 active torsions:
REMARK  status: ('A' for Active; 'I' for Inactive)
REMARK    1  A    between atoms: N_12  and  C_13
REMARK    2  A    between atoms: C_13  and  C_14
REMARK                            x       y       z     vdW  Elec       q    Type
REMARK                         _______ _______ _______ _____ _____    ______ ____
ROOT
ATOM      1  O   UNL     1       2.978   7.209  18.721  0.00  0.00    +0.000 OA
ATOM      2  C   UNL     1       3.164   6.094  18.274  0.00  0.00    +0.000 C 
ATOM      3  C   UNL     1       2.428   4.903  18.702  0.00  0.00    +0.000 A 
ATOM      4  C   UNL     1       1.446   4.743  19.662  0.00  0.00    +0.000 A 
ATOM      5  C   UNL     1       0.895   3.463  19.802  0.00  0.00    +0.000 A 
ATOM      6  C   UNL     1       1.333   2.404  18.986  0.00  0.00    +0.000 A 
ATOM      7  F   UNL     1       0.771   1.197  19.132  0.00  0.00    +0.000 F 
ATOM      8  C   UNL     1       2.329   2.578  18.031  0.00  0.00    +0.000 A 
ATOM      9  C   UNL     1       2.863   3.846  17.922  0.00  0.00    +0.000 A 
ATOM     10  C   UNL     1       3.907   4.350  17.034  0.00  0.00    +0.000 C 
ATOM     11  O   UNL     1       4.521   3.646  16.259  0.00  0.00    +0.000 OA
ATOM     12  N   UNL     1       4.021   5.688  17.290  0.00  0.00    +0.000 N 
ENDROOT
BRANCH  12  13
ATOM     13  C   UNL     1       4.879   6.580  16.531  0.00  0.00    +0.000 C 
BRANCH  13  14
ATOM     14  C   UNL     1       6.192   6.834  17.245  0.00  0.00    +0.000 A 
ATOM     15  C   UNL     1       6.699   5.903  18.151  0.00  0.00    +0.000 A 
ATOM     16  C   UNL     1       7.832   6.230  18.890  0.00  0.00    +0.000 A 
ATOM     17  C   UNL     1       8.442   7.463  18.694  0.00  0.00    +0.000 A 
ATOM     18  C   UNL     1       7.903   8.312  17.744  0.00  0.00    +0.000 A 
ATOM     19  N   UNL     1       6.801   8.025  17.020  0.00  0.00    +0.000 NA
ENDBRANCH  13  14
ENDBRANCH  12  13
TORSDOF 2
ENDMDL
MODEL 8
REMARK VINA RESULT:      -7.5      1.086      2.324
REMARK  Name = 
REMARK  2 active torsions:
REMARK  status: ('A' for Active; 'I' for Inactive)
REMARK    1  A    between atoms: N_12  and  C_13
REMARK    2  A    between atoms: C_13  and  C_14
REMARK                            x       y       z     vdW  Elec       q    Type
REMARK                         _______ _______ _______ _____ _____    ______ ____
ROOT
ATOM      1  O   UNL     1       5.287   2.914  19.394  0.00  0.00    +0.000 OA
ATOM      2  C   UNL     1       4.949   4.031  19.054  0.00  0.00    +0.000 C 
ATOM      3  C   UNL     1       3.770   4.728  19.572  0.00  0.00    +0.000 A 
ATOM      4  C   UNL     1       2.802   4.321  20.471  0.00  0.00    +0.000 A 
ATOM      5  C   UNL     1       1.812   5.254  20.805  0.00  0.00    +0.000 A 
ATOM      6  C   UNL     1       1.827   6.543  20.243  0.00  0.00    +0.000 A 
ATOM      7  F   UNL     1       0.876   7.417  20.600  0.00  0.00    +0.000 F 
ATOM      8  C   UNL     1       2.802   6.935  19.332  0.00  0.00    +0.000 A 
ATOM      9  C   UNL     1       3.759   5.993  19.011  0.00  0.00    +0.000 A 
ATOM     10  C   UNL     1       4.897   6.086  18.102  0.00  0.00    +0.000 C 
ATOM     11  O   UNL     1       5.129   7.063  17.421  0.00  0.00    +0.000 OA
ATOM     12  N   UNL     1       5.562   4.895  18.190  0.00  0.00    +0.000 N 
ENDROOT
BRANCH  12  13
ATOM     13  C   UNL     1       6.822   4.628  17.520  0.00  0.00    +0.000 C 
BRANCH  13  14
ATOM     14  C   UNL     1       6.653   4.570  16.014  0.00  0.00    +0.000 A 
ATOM     15  C   UNL     1       5.674   3.759  15.441  0.00  0.00    +0.000 A 
ATOM     16  C   UNL     1       5.638   3.623  14.056  0.00  0.00    +0.000 A 
ATOM     17  C   UNL     1       6.561   4.312  13.278  0.00  0.00    +0.000 A 
ATOM     18  C   UNL     1       7.472   5.131  13.922  0.00  0.00    +0.000 A 
ATOM     19  N   UNL     1       7.535   5.275  15.263  0.00  0.00    +0.000 NA
ENDBRANCH  13  14
ENDBRANCH  12  13
TORSDOF 2
ENDMDL
MODEL 9
REMARK VINA RESULT:      -7.4      3.041      3.968
REMARK  Name = 
REMARK  2 active torsions:
REMARK  status: ('A' for Active; 'I' for Inactive)
REMARK    1  A    between atoms: N_12  and  C_13
REMARK    2  A    between atoms: C_13  and  C_14
REMARK                            x       y       z     vdW  Elec       q    Type
REMARK                         _______ _______ _______ _____ _____    ______ ____
ROOT
ATOM      1  O   UNL     1       2.362   3.525  16.388  0.00  0.00    +0.000 OA
ATOM      2  C   UNL     1       2.884   3.461  17.484  0.00  0.00    +0.000 C 
ATOM      3  C   UNL     1       2.154   3.216  18.730  0.00  0.00    +0.000 A 
ATOM      4  C   UNL     1       0.803   3.045  18.968  0.00  0.00    +0.000 A 
ATOM      5  C   UNL     1       0.419   2.773  20.287  0.00  0.00    +0.000 A 
ATOM      6  C   UNL     1       1.383   2.677  21.306  0.00  0.00    +0.000 A 
ATOM      7  F   UNL     1       0.983   2.396  22.553  0.00  0.00    +0.000 F 
ATOM      8  C   UNL     1       2.738   2.861  21.053  0.00  0.00    +0.000 A 
ATOM      9  C   UNL     1       3.089   3.139  19.747  0.00  0.00    +0.000 A 
ATOM     10  C   UNL     1       4.403   3.384  19.162  0.00  0.00    +0.000 C 
ATOM     11  O   UNL     1       5.426   3.430  19.814  0.00  0.00    +0.000 OA
ATOM     12  N   UNL     1       4.205   3.552  17.820  0.00  0.00    +0.000 N 
ENDROOT
BRANCH  12  13
ATOM     13  C   UNL     1       5.286   3.707  16.863  0.00  0.00    +0.000 C 
BRANCH  13  14
ATOM     14  C   UNL     1       5.982   5.045  17.017  0.00  0.00    +0.000 A 
ATOM     15  C   UNL     1       7.249   5.123  17.595  0.00  0.00    +0.000 A 
ATOM     16  C   UNL     1       7.798   6.377  17.848  0.00  0.00    +0.000 A 
ATOM     17  C   UNL     1       7.084   7.517  17.501  0.00  0.00    +0.000 A 
ATOM     18  C   UNL     1       5.852   7.354  16.891  0.00  0.00    +0.000 A 
ATOM     19  N   UNL     1       5.292   6.151  16.642  0.00  0.00    +0.000 NA
ENDBRANCH  13  14
ENDBRANCH  12  13
TORSDOF 2
ENDMDL
