MODEL 1
REMARK VINA RESULT:      -9.1      0.000      0.000
REMARK  Name = 
REMARK  4 active torsions:
REMARK  status: ('A' for Active; 'I' for Inactive)
REMARK    1  A    between atoms: N_2  and  C_4
REMARK    2  A    between atoms: C_8  and  C_9
REMARK    3  A    between atoms: N_10  and  C_11
REMARK    4  A    between atoms: C_14  and  N_15
REMARK                            x       y       z     vdW  Elec       q    Type
REMARK                         _______ _______ _______ _____ _____    ______ ____
ROOT
ATOM      1  N   UNL     1      -0.496  11.458  21.113  0.00  0.00    +0.000 N 
ATOM      2  C   UNL     1      -0.054  12.738  21.484  0.00  0.00    +0.000 A 
ATOM      3  N   UNL     1       1.140  13.171  21.111  0.00  0.00    +0.000 NA
ATOM      4  C   UNL     1       1.566  14.312  21.614  0.00  0.00    +0.000 A 
ATOM      5  N   UNL     1       2.841  14.716  21.315  0.00  0.00    +0.000 N 
ATOM      6  C   UNL     1       3.433  15.909  21.907  0.00  0.00    +0.000 C 
ATOM      7  C   UNL     1       3.822  16.902  20.802  0.00  0.00    +0.000 C 
ATOM      8  O   UNL     1       4.642  16.288  19.791  0.00  0.00    +0.000 OA
ATOM      9  C   UNL     1       3.941  15.191  19.183  0.00  0.00    +0.000 C 
ATOM     10  C   UNL     1       3.595  14.110  20.218  0.00  0.00    +0.000 C 
ATOM     11  N   UNL     1       0.824  15.040  22.428  0.00  0.00    +0.000 NA
ATOM     12  C   UNL     1      -0.390  14.586  22.721  0.00  0.00    +0.000 A 
ATOM     13  N   UNL     1      -1.165  15.333  23.563  0.00  0.00    +0.000 N 
ATOM     14  C   UNL     1      -0.684  16.584  24.146  0.00  0.00    +0.000 C 
ATOM     15  C   UNL     1      -0.908  16.554  25.666  0.00  0.00    +0.000 C 
ATOM     16  O   UNL     1      -2.276  16.258  25.996  0.00  0.00    +0.000 OA
ATOM     17  C   UNL     1      -2.655  14.977  25.459  0.00  0.00    +0.000 C 
ATOM     18  C   UNL     1      -2.522  14.944  23.929  0.00  0.00    +0.000 C 
ATOM     19  N   UNL     1      -0.864  13.432  22.266  0.00  0.00    +0.000 NA
ATOM     20  H   UNL     1      -1.347  11.257  21.619  0.00  0.00    +0.000 HD
ENDROOT
BRANCH   1  24
ATOM     21  C   UNL     1       1.782   8.077  19.911  0.00  0.00    +0.000 A 
ATOM     22  C   UNL     1       1.425   9.072  18.999  0.00  0.00    +0.000 A 
ATOM     23  C   UNL     1       0.686  10.197  19.403  0.00  0.00    +0.000 A 
ATOM     24  C   UNL     1       0.269  10.343  20.731  0.00  0.00    +0.000 A 
ATOM     25  C   UNL     1       0.664   9.354  21.634  0.00  0.00    +0.000 A 
ATOM     26  C   UNL     1       1.370   8.222  21.231  0.00  0.00    +0.000 A 
BRANCH  21  28
ATOM     27  C   UNL     1       2.943   6.971  18.229  0.00  0.00    +0.000 C 
ATOM     28  N   UNL     1       2.524   6.975  19.452  0.00  0.00    +0.000 NA
BRANCH  27  33
ATOM     29  C   UNL     1       5.733   4.888  16.806  0.00  0.00    +0.000 A 
ATOM     30  C   UNL     1       5.095   3.643  16.671  0.00  0.00    +0.000 A 
ATOM     31  C   UNL     1       3.753   3.508  17.032  0.00  0.00    +0.000 A 
ATOM     32  C   UNL     1       3.053   4.607  17.528  0.00  0.00    +0.000 A 
ATOM     33  C   UNL     1       3.698   5.842  17.665  0.00  0.00    +0.000 A 
ATOM     34  C   UNL     1       5.038   5.995  17.300  0.00  0.00    +0.000 A 
BRANCH  29  36
ATOM     35  O   UNL     1       7.421   5.808  15.512  0.00  0.00    +0.000 OA
ATOM     36  N   UNL     1       7.144   5.026  16.429  0.00  0.00    +0.000 N 
ATOM     37  O   UNL     1       7.977   4.349  17.050  0.00  0.00    +0.000 OA
ENDBRANCH  29  36
ENDBRANCH  27  33
ENDBRANCH  21  28
ENDBRANCH   1  24
TORSDOF 4
ENDMDL
MODEL 2
REMARK VINA RESULT:      -9.0      1.718      2.096
REMARK  Name = 
REMARK  4 active torsions:
REMARK  status: ('A' for Active; 'I' for Inactive)
REMARK    1  A    between atoms: N_2  and  C_4
REMARK    2  A    between atoms: C_8  and  C_9
REMARK    3  A    between atoms: N_10  and  C_11
REMARK    4  A    between atoms: C_14  and  N_15
REMARK                            x       y       z     vdW  Elec       q    Type
REMARK                         _______ _______ _______ _____ _____    ______ ____
ROOT
ATOM      1  N   UNL     1      -0.656  10.568  19.877  0.00  0.00    +0.000 N 
ATOM      2  C   UNL     1      -0.483  11.899  20.290  0.00  0.00    +0.000 A 
ATOM      3  N   UNL     1       0.616  12.564  19.970  0.00  0.00    +0.000 NA
ATOM      4  C   UNL     1       0.796  13.751  20.512  0.00  0.00    +0.000 A 
ATOM      5  N   UNL     1       1.977  14.402  20.268  0.00  0.00    +0.000 N 
ATOM      6  C   UNL     1       2.308  15.671  20.906  0.00  0.00    +0.000 C 
ATOM      7  C   UNL     1       2.531  16.750  19.838  0.00  0.00    +0.000 C 
ATOM      8  O   UNL     1       3.486  16.334  18.844  0.00  0.00    +0.000 OA
ATOM      9  C   UNL     1       3.031  15.140  18.188  0.00  0.00    +0.000 C 
ATOM     10  C   UNL     1       2.868  13.985  19.186  0.00  0.00    +0.000 C 
ATOM     11  N   UNL     1      -0.099  14.300  21.313  0.00  0.00    +0.000 NA
ATOM     12  C   UNL     1      -1.210  13.612  21.553  0.00  0.00    +0.000 A 
ATOM     13  N   UNL     1      -2.142  14.172  22.381  0.00  0.00    +0.000 N 
ATOM     14  C   UNL     1      -1.931  15.475  23.008  0.00  0.00    +0.000 C 
ATOM     15  C   UNL     1      -2.193  15.361  24.518  0.00  0.00    +0.000 C 
ATOM     16  O   UNL     1      -3.488  14.796  24.791  0.00  0.00    +0.000 OA
ATOM     17  C   UNL     1      -3.593  13.482  24.214  0.00  0.00    +0.000 C 
ATOM     18  C   UNL     1      -3.408  13.518  22.689  0.00  0.00    +0.000 C 
ATOM     19  N   UNL     1      -1.436  12.401  21.057  0.00  0.00    +0.000 NA
ATOM     20  H   UNL     1      -1.468  10.192  20.347  0.00  0.00    +0.000 HD
ENDROOT
BRANCH   1  24
ATOM     21  C   UNL     1       2.335   7.753  18.781  0.00  0.00    +0.000 A 
ATOM     22  C   UNL     1       1.833   7.809  20.083  0.00  0.00    +0.000 A 
ATOM     23  C   UNL     1       0.832   8.729  20.438  0.00  0.00    +0.000 A 
ATOM     24  C   UNL     1       0.322   9.633  19.499  0.00  0.00    +0.000 A 
ATOM     25  C   UNL     1       0.813   9.540  18.195  0.00  0.00    +0.000 A 
ATOM     26  C   UNL     1       1.827   8.650  17.847  0.00  0.00    +0.000 A 
BRANCH  21  28
ATOM     27  C   UNL     1       4.287   7.149  17.675  0.00  0.00    +0.000 C 
ATOM     28  N   UNL     1       3.333   6.811  18.481  0.00  0.00    +0.000 NA
BRANCH  27  33
ATOM     29  C   UNL     1       6.661   5.088  15.611  0.00  0.00    +0.000 A 
ATOM     30  C   UNL     1       7.430   4.478  16.616  0.00  0.00    +0.000 A 
ATOM     31  C   UNL     1       7.148   4.738  17.959  0.00  0.00    +0.000 A 
ATOM     32  C   UNL     1       6.108   5.603  18.296  0.00  0.00    +0.000 A 
ATOM     33  C   UNL     1       5.351   6.211  17.287  0.00  0.00    +0.000 A 
ATOM     34  C   UNL     1       5.615   5.954  15.940  0.00  0.00    +0.000 A 
BRANCH  29  36
ATOM     35  O   UNL     1       6.327   3.913  13.640  0.00  0.00    +0.000 OA
ATOM     36  N   UNL     1       6.962   4.815  14.200  0.00  0.00    +0.000 N 
ATOM     37  O   UNL     1       7.835   5.504  13.652  0.00  0.00    +0.000 OA
ENDBRANCH  29  36
ENDBRANCH  27  33
ENDBRANCH  21  28
ENDBRANCH   1  24
TORSDOF 4
ENDMDL
MODEL 3
REMARK VINA RESULT:      -9.0      0.657      1.147
REMARK  Name = 
REMARK  4 active torsions:
REMARK  status: ('A' for Active; 'I' for Inactive)
REMARK    1  A    between atoms: N_2  and  C_4
REMARK    2  A    between atoms: C_8  and  C_9
REMARK    3  A    between atoms: N_10  and  C_11
REMARK    4  A    between atoms: C_14  and  N_15
REMARK                            x       y       z     vdW  Elec       q    Type
REMARK                         _______ _______ _______ _____ _____    ______ ____
ROOT
ATOM      1  N   UNL     1      -0.607  11.641  21.501  0.00  0.00    +0.000 N 
ATOM      2  C   UNL     1      -0.144  12.952  21.695  0.00  0.00    +0.000 A 
ATOM      3  N   UNL     1       0.897  13.405  21.013  0.00  0.00    +0.000 NA
ATOM      4  C   UNL     1       1.385  14.583  21.345  0.00  0.00    +0.000 A 
ATOM      5  N   UNL     1       2.523  15.014  20.715  0.00  0.00    +0.000 N 
ATOM      6  C   UNL     1       3.192  16.255  21.088  0.00  0.00    +0.000 C 
ATOM      7  C   UNL     1       3.244  17.203  19.882  0.00  0.00    +0.000 C 
ATOM      8  O   UNL     1       3.808  16.566  18.720  0.00  0.00    +0.000 OA
ATOM      9  C   UNL     1       3.026  15.417  18.356  0.00  0.00    +0.000 C 
ATOM     10  C   UNL     1       3.002  14.379  19.487  0.00  0.00    +0.000 C 
ATOM     11  N   UNL     1       0.840  15.327  22.290  0.00  0.00    +0.000 NA
ATOM     12  C   UNL     1      -0.238  14.848  22.901  0.00  0.00    +0.000 A 
ATOM     13  N   UNL     1      -0.809  15.611  23.882  0.00  0.00    +0.000 N 
ATOM     14  C   UNL     1      -0.252  16.905  24.272  0.00  0.00    +0.000 C 
ATOM     15  C   UNL     1      -0.083  16.944  25.800  0.00  0.00    +0.000 C 
ATOM     16  O   UNL     1      -1.309  16.619  26.478  0.00  0.00    +0.000 OA
ATOM     17  C   UNL     1      -1.753  15.301  26.108  0.00  0.00    +0.000 C 
ATOM     18  C   UNL     1      -2.010  15.195  24.596  0.00  0.00    +0.000 C 
ATOM     19  N   UNL     1      -0.760  13.657  22.629  0.00  0.00    +0.000 NA
ATOM     20  H   UNL     1      -1.293  11.438  22.215  0.00  0.00    +0.000 HD
ENDROOT
BRANCH   1  24
ATOM     21  C   UNL     1       1.529   8.299  19.972  0.00  0.00    +0.000 A 
ATOM     22  C   UNL     1       1.262   8.426  21.336  0.00  0.00    +0.000 A 
ATOM     23  C   UNL     1       0.540   9.524  21.836  0.00  0.00    +0.000 A 
ATOM     24  C   UNL     1       0.086  10.534  20.982  0.00  0.00    +0.000 A 
ATOM     25  C   UNL     1       0.335  10.373  19.617  0.00  0.00    +0.000 A 
ATOM     26  C   UNL     1       1.076   9.302  19.121  0.00  0.00    +0.000 A 
BRANCH  21  28
ATOM     27  C   UNL     1       2.926   7.270  18.426  0.00  0.00    +0.000 C 
ATOM     28  N   UNL     1       2.252   7.179  19.526  0.00  0.00    +0.000 NA
BRANCH  27  33
ATOM     29  C   UNL     1       5.723   5.164  17.054  0.00  0.00    +0.000 A 
ATOM     30  C   UNL     1       5.079   3.924  16.909  0.00  0.00    +0.000 A 
ATOM     31  C   UNL     1       3.729   3.800  17.247  0.00  0.00    +0.000 A 
ATOM     32  C   UNL     1       3.029   4.904  17.730  0.00  0.00    +0.000 A 
ATOM     33  C   UNL     1       3.682   6.135  17.877  0.00  0.00    +0.000 A 
ATOM     34  C   UNL     1       5.028   6.277  17.535  0.00  0.00    +0.000 A 
BRANCH  29  36
ATOM     35  O   UNL     1       7.908   4.390  17.066  0.00  0.00    +0.000 OA
ATOM     36  N   UNL     1       7.142   5.290  16.701  0.00  0.00    +0.000 N 
ATOM     37  O   UNL     1       7.491   6.292  16.058  0.00  0.00    +0.000 OA
ENDBRANCH  29  36
ENDBRANCH  27  33
ENDBRANCH  21  28
ENDBRANCH   1  24
TORSDOF 4
ENDMDL
MODEL 4
REMARK VINA RESULT:      -9.0      1.918      2.099
REMARK  Name = 
REMARK  4 active torsions:
REMARK  status: ('A' for Active; 'I' for Inactive)
REMARK    1  A    between atoms: N_2  and  C_4
REMARK    2  A    between atoms: C_8  and  C_9
REMARK    3  A    between atoms: N_10  and  C_11
REMARK    4  A    between atoms: C_14  and  N_15
REMARK                            x       y       z     vdW  Elec       q    Type
REMARK                         _______ _______ _______ _____ _____    ______ ____
ROOT
ATOM      1  N   UNL     1      -0.690  10.878  19.452  0.00  0.00    +0.000 N 
ATOM      2  C   UNL     1      -0.526  12.232  19.785  0.00  0.00    +0.000 A 
ATOM      3  N   UNL     1       0.615  12.853  19.527  0.00  0.00    +0.000 NA
ATOM      4  C   UNL     1       0.771  14.073  19.998  0.00  0.00    +0.000 A 
ATOM      5  N   UNL     1       1.986  14.684  19.824  0.00  0.00    +0.000 N 
ATOM      6  C   UNL     1       2.283  15.990  20.400  0.00  0.00    +0.000 C 
ATOM      7  C   UNL     1       2.635  16.985  19.284  0.00  0.00    +0.000 C 
ATOM      8  O   UNL     1       3.670  16.481  18.420  0.00  0.00    +0.000 OA
ATOM      9  C   UNL     1       3.251  15.249  17.810  0.00  0.00    +0.000 C 
ATOM     10  C   UNL     1       2.966  14.173  18.867  0.00  0.00    +0.000 C 
ATOM     11  N   UNL     1      -0.183  14.694  20.667  0.00  0.00    +0.000 NA
ATOM     12  C   UNL     1      -1.328  14.045  20.846  0.00  0.00    +0.000 A 
ATOM     13  N   UNL     1      -2.322  14.680  21.538  0.00  0.00    +0.000 N 
ATOM     14  C   UNL     1      -2.141  16.022  22.087  0.00  0.00    +0.000 C 
ATOM     15  C   UNL     1      -2.549  16.023  23.569  0.00  0.00    +0.000 C 
ATOM     16  O   UNL     1      -3.877  15.502  23.754  0.00  0.00    +0.000 OA
ATOM     17  C   UNL     1      -3.959  14.151  23.265  0.00  0.00    +0.000 C 
ATOM     18  C   UNL     1      -3.627  14.072  21.767  0.00  0.00    +0.000 C 
ATOM     19  N   UNL     1      -1.536  12.805  20.417  0.00  0.00    +0.000 NA
ATOM     20  H   UNL     1      -1.552  10.551  19.867  0.00  0.00    +0.000 HD
ENDROOT
BRANCH   1  24
ATOM     21  C   UNL     1       2.265   7.900  18.764  0.00  0.00    +0.000 A 
ATOM     22  C   UNL     1       1.752   8.669  17.717  0.00  0.00    +0.000 A 
ATOM     23  C   UNL     1       0.788   9.665  17.950  0.00  0.00    +0.000 A 
ATOM     24  C   UNL     1       0.297   9.901  19.239  0.00  0.00    +0.000 A 
ATOM     25  C   UNL     1       0.845   9.144  20.277  0.00  0.00    +0.000 A 
ATOM     26  C   UNL     1       1.779   8.136  20.046  0.00  0.00    +0.000 A 
BRANCH  21  28
ATOM     27  C   UNL     1       4.227   7.235  17.712  0.00  0.00    +0.000 C 
ATOM     28  N   UNL     1       3.230   6.921  18.473  0.00  0.00    +0.000 NA
BRANCH  27  33
ATOM     29  C   UNL     1       6.573   5.114  15.677  0.00  0.00    +0.000 A 
ATOM     30  C   UNL     1       7.283   4.452  16.692  0.00  0.00    +0.000 A 
ATOM     31  C   UNL     1       6.971   4.697  18.031  0.00  0.00    +0.000 A 
ATOM     32  C   UNL     1       5.960   5.600  18.354  0.00  0.00    +0.000 A 
ATOM     33  C   UNL     1       5.261   6.259  17.336  0.00  0.00    +0.000 A 
ATOM     34  C   UNL     1       5.555   6.019  15.992  0.00  0.00    +0.000 A 
BRANCH  29  36
ATOM     35  O   UNL     1       7.843   5.493  13.775  0.00  0.00    +0.000 OA
ATOM     36  N   UNL     1       6.905   4.856  14.270  0.00  0.00    +0.000 N 
ATOM     37  O   UNL     1       6.226   4.017  13.660  0.00  0.00    +0.000 OA
ENDBRANCH  29  36
ENDBRANCH  27  33
ENDBRANCH  21  28
ENDBRANCH   1  24
TORSDOF 4
ENDMDL
MODEL 5
REMARK VINA RESULT:      -8.7      2.001      2.312
REMARK  Name = 
REMARK  4 active torsions:
REMARK  status: ('A' for Active; 'I' for Inactive)
REMARK    1  A    between atoms: N_2  and  C_4
REMARK    2  A    between atoms: C_8  and  C_9
REMARK    3  A    between atoms: N_10  and  C_11
REMARK    4  A    between atoms: C_14  and  N_15
REMARK                            x       y       z     vdW  Elec       q    Type
REMARK                         _______ _______ _______ _____ _____    ______ ____
ROOT
ATOM      1  N   UNL     1      -1.209  11.151  19.433  0.00  0.00    +0.000 N 
ATOM      2  C   UNL     1      -1.103  12.497  19.815  0.00  0.00    +0.000 A 
ATOM      3  N   UNL     1       0.026  13.163  19.627  0.00  0.00    +0.000 NA
ATOM      4  C   UNL     1       0.122  14.371  20.142  0.00  0.00    +0.000 A 
ATOM      5  N   UNL     1       1.322  15.025  20.040  0.00  0.00    +0.000 N 
ATOM      6  C   UNL     1       1.552  16.321  20.669  0.00  0.00    +0.000 C 
ATOM      7  C   UNL     1       1.918  17.361  19.601  0.00  0.00    +0.000 C 
ATOM      8  O   UNL     1       3.006  16.918  18.768  0.00  0.00    +0.000 OA
ATOM      9  C   UNL     1       2.653  15.695  18.102  0.00  0.00    +0.000 C 
ATOM     10  C   UNL     1       2.359  14.577  19.112  0.00  0.00    +0.000 C 
ATOM     11  N   UNL     1      -0.880  14.940  20.787  0.00  0.00    +0.000 NA
ATOM     12  C   UNL     1      -2.010  14.249  20.895  0.00  0.00    +0.000 A 
ATOM     13  N   UNL     1      -3.052  14.830  21.562  0.00  0.00    +0.000 N 
ATOM     14  C   UNL     1      -2.939  16.159  22.161  0.00  0.00    +0.000 C 
ATOM     15  C   UNL     1      -3.410  16.098  23.623  0.00  0.00    +0.000 C 
ATOM     16  O   UNL     1      -4.727  15.530  23.733  0.00  0.00    +0.000 OA
ATOM     17  C   UNL     1      -4.743  14.194  23.199  0.00  0.00    +0.000 C 
ATOM     18  C   UNL     1      -4.345  14.174  21.715  0.00  0.00    +0.000 C 
ATOM     19  N   UNL     1      -2.158  13.018  20.420  0.00  0.00    +0.000 NA
ATOM     20  H   UNL     1      -2.077  10.784  19.800  0.00  0.00    +0.000 HD
ENDROOT
BRANCH   1  24
ATOM     21  C   UNL     1       1.927   8.336  18.873  0.00  0.00    +0.000 A 
ATOM     22  C   UNL     1       1.394   8.585  20.139  0.00  0.00    +0.000 A 
ATOM     23  C   UNL     1       0.345   9.504  20.319  0.00  0.00    +0.000 A 
ATOM     24  C   UNL     1      -0.182  10.213  19.234  0.00  0.00    +0.000 A 
ATOM     25  C   UNL     1       0.342   9.926  17.972  0.00  0.00    +0.000 A 
ATOM     26  C   UNL     1       1.402   9.039  17.794  0.00  0.00    +0.000 A 
BRANCH  21  28
ATOM     27  C   UNL     1       3.585   7.301  17.617  0.00  0.00    +0.000 C 
ATOM     28  N   UNL     1       2.973   7.405  18.751  0.00  0.00    +0.000 NA
BRANCH  27  33
ATOM     29  C   UNL     1       6.208   5.181  15.952  0.00  0.00    +0.000 A 
ATOM     30  C   UNL     1       6.771   4.530  17.063  0.00  0.00    +0.000 A 
ATOM     31  C   UNL     1       6.270   4.782  18.342  0.00  0.00    +0.000 A 
ATOM     32  C   UNL     1       5.218   5.681  18.512  0.00  0.00    +0.000 A 
ATOM     33  C   UNL     1       4.667   6.329  17.400  0.00  0.00    +0.000 A 
ATOM     34  C   UNL     1       5.151   6.081  16.113  0.00  0.00    +0.000 A 
BRANCH  29  36
ATOM     35  O   UNL     1       7.794   5.475  14.288  0.00  0.00    +0.000 OA
ATOM     36  N   UNL     1       6.739   4.916  14.610  0.00  0.00    +0.000 N 
ATOM     37  O   UNL     1       6.098   4.148  13.876  0.00  0.00    +0.000 OA
ENDBRANCH  29  36
ENDBRANCH  27  33
ENDBRANCH  21  28
ENDBRANCH   1  24
TORSDOF 4
ENDMDL
MODEL 6
REMARK VINA RESULT:      -8.7      1.385      1.629
REMARK  Name = 
REMARK  4 active torsions:
REMARK  status: ('A' for Active; 'I' for Inactive)
REMARK    1  A    between atoms: N_2  and  C_4
REMARK    2  A    between atoms: C_8  and  C_9
REMARK    3  A    between atoms: N_10  and  C_11
REMARK    4  A    between atoms: C_14  and  N_15
REMARK                            x       y       z     vdW  Elec       q    Type
REMARK                         _______ _______ _______ _____ _____    ______ ____
ROOT
ATOM      1  N   UNL     1      -1.269  11.605  20.136  0.00  0.00    +0.000 N 
ATOM      2  C   UNL     1      -1.051  12.951  20.470  0.00  0.00    +0.000 A 
ATOM      3  N   UNL     1       0.073  13.557  20.119  0.00  0.00    +0.000 NA
ATOM      4  C   UNL     1       0.292  14.767  20.590  0.00  0.00    +0.000 A 
ATOM      5  N   UNL     1       1.498  15.360  20.316  0.00  0.00    +0.000 N 
ATOM      6  C   UNL     1       1.869  16.652  20.879  0.00  0.00    +0.000 C 
ATOM      7  C   UNL     1       2.138  17.656  19.748  0.00  0.00    +0.000 C 
ATOM      8  O   UNL     1       3.084  17.146  18.790  0.00  0.00    +0.000 OA
ATOM      9  C   UNL     1       2.591  15.930  18.204  0.00  0.00    +0.000 C 
ATOM     10  C   UNL     1       2.380  14.845  19.270  0.00  0.00    +0.000 C 
ATOM     11  N   UNL     1      -0.588  15.395  21.347  0.00  0.00    +0.000 NA
ATOM     12  C   UNL     1      -1.724  14.763  21.619  0.00  0.00    +0.000 A 
ATOM     13  N   UNL     1      -2.641  15.405  22.403  0.00  0.00    +0.000 N 
ATOM     14  C   UNL     1      -2.388  16.737  22.951  0.00  0.00    +0.000 C 
ATOM     15  C   UNL     1      -2.664  16.725  24.463  0.00  0.00    +0.000 C 
ATOM     16  O   UNL     1      -3.979  16.224  24.758  0.00  0.00    +0.000 OA
ATOM     17  C   UNL     1      -4.129  14.881  24.262  0.00  0.00    +0.000 C 
ATOM     18  C   UNL     1      -3.932  14.817  22.740  0.00  0.00    +0.000 C 
ATOM     19  N   UNL     1      -1.991  13.533  21.195  0.00  0.00    +0.000 NA
ATOM     20  H   UNL     1      -2.097  11.288  20.622  0.00  0.00    +0.000 HD
ENDROOT
BRANCH   1  24
ATOM     21  C   UNL     1       1.626   8.624  19.241  0.00  0.00    +0.000 A 
ATOM     22  C   UNL     1       1.127   8.785  20.535  0.00  0.00    +0.000 A 
ATOM     23  C   UNL     1       0.157   9.760  20.824  0.00  0.00    +0.000 A 
ATOM     24  C   UNL     1      -0.323  10.614  19.825  0.00  0.00    +0.000 A 
ATOM     25  C   UNL     1       0.164  10.416  18.531  0.00  0.00    +0.000 A 
ATOM     26  C   UNL     1       1.148   9.471  18.246  0.00  0.00    +0.000 A 
BRANCH  21  28
ATOM     27  C   UNL     1       2.524   6.939  17.916  0.00  0.00    +0.000 C 
ATOM     28  N   UNL     1       2.592   7.631  19.007  0.00  0.00    +0.000 NA
BRANCH  27  33
ATOM     29  C   UNL     1       5.704   5.098  17.113  0.00  0.00    +0.000 A 
ATOM     30  C   UNL     1       5.251   3.768  17.118  0.00  0.00    +0.000 A 
ATOM     31  C   UNL     1       3.905   3.494  17.367  0.00  0.00    +0.000 A 
ATOM     32  C   UNL     1       3.017   4.540  17.614  0.00  0.00    +0.000 A 
ATOM     33  C   UNL     1       3.478   5.862  17.613  0.00  0.00    +0.000 A 
ATOM     34  C   UNL     1       4.820   6.153  17.358  0.00  0.00    +0.000 A 
BRANCH  29  36
ATOM     35  O   UNL     1       7.421   6.528  16.498  0.00  0.00    +0.000 OA
ATOM     36  N   UNL     1       7.120   5.383  16.855  0.00  0.00    +0.000 N 
ATOM     37  O   UNL     1       7.933   4.458  17.007  0.00  0.00    +0.000 OA
ENDBRANCH  29  36
ENDBRANCH  27  33
ENDBRANCH  21  28
ENDBRANCH   1  24
TORSDOF 4
ENDMDL
MODEL 7
REMARK VINA RESULT:      -8.6      1.207      1.353
REMARK  Name = 
REMARK  4 active torsions:
REMARK  status: ('A' for Active; 'I' for Inactive)
REMARK    1  A    between atoms: N_2  and  C_4
REMARK    2  A    between atoms: C_8  and  C_9
REMARK    3  A    between atoms: N_10  and  C_11
REMARK    4  A    between atoms: C_14  and  N_15
REMARK                            x       y       z     vdW  Elec       q    Type
REMARK                         _______ _______ _______ _____ _____    ______ ____
ROOT
ATOM      1  N   UNL     1      -0.924  11.438  20.185  0.00  0.00    +0.000 N 
ATOM      2  C   UNL     1      -0.738  12.772  20.581  0.00  0.00    +0.000 A 
ATOM      3  N   UNL     1       0.319  13.454  20.169  0.00  0.00    +0.000 NA
ATOM      4  C   UNL     1       0.526  14.645  20.693  0.00  0.00    +0.000 A 
ATOM      5  N   UNL     1       1.672  15.314  20.349  0.00  0.00    +0.000 N 
ATOM      6  C   UNL     1       2.035  16.589  20.956  0.00  0.00    +0.000 C 
ATOM      7  C   UNL     1       2.150  17.669  19.871  0.00  0.00    +0.000 C 
ATOM      8  O   UNL     1       3.025  17.266  18.801  0.00  0.00    +0.000 OA
ATOM      9  C   UNL     1       2.535  16.062  18.187  0.00  0.00    +0.000 C 
ATOM     10  C   UNL     1       2.475  14.908  19.197  0.00  0.00    +0.000 C 
ATOM     11  N   UNL     1      -0.307  15.181  21.566  0.00  0.00    +0.000 NA
ATOM     12  C   UNL     1      -1.383  14.477  21.899  0.00  0.00    +0.000 A 
ATOM     13  N   UNL     1      -2.251  15.023  22.802  0.00  0.00    +0.000 N 
ATOM     14  C   UNL     1      -2.009  16.332  23.407  0.00  0.00    +0.000 C 
ATOM     15  C   UNL     1      -2.141  16.217  24.934  0.00  0.00    +0.000 C 
ATOM     16  O   UNL     1      -3.398  15.633  25.316  0.00  0.00    +0.000 OA
ATOM     17  C   UNL     1      -3.532  14.316  24.751  0.00  0.00    +0.000 C 
ATOM     18  C   UNL     1      -3.476  14.350  23.216  0.00  0.00    +0.000 C 
ATOM     19  N   UNL     1      -1.631  13.261  21.425  0.00  0.00    +0.000 NA
ATOM     20  H   UNL     1      -1.687  11.050  20.723  0.00  0.00    +0.000 HD
ENDROOT
BRANCH   1  24
ATOM     21  C   UNL     1       1.939   8.639  18.756  0.00  0.00    +0.000 A 
ATOM     22  C   UNL     1       1.348   9.572  17.902  0.00  0.00    +0.000 A 
ATOM     23  C   UNL     1       0.415  10.508  18.381  0.00  0.00    +0.000 A 
ATOM     24  C   UNL     1       0.034  10.517  19.728  0.00  0.00    +0.000 A 
ATOM     25  C   UNL     1       0.660   9.598  20.572  0.00  0.00    +0.000 A 
ATOM     26  C   UNL     1       1.563   8.649  20.095  0.00  0.00    +0.000 A 
BRANCH  21  28
ATOM     27  C   UNL     1       2.576   6.469  18.221  0.00  0.00    +0.000 C 
ATOM     28  N   UNL     1       2.868   7.729  18.224  0.00  0.00    +0.000 NA
BRANCH  27  33
ATOM     29  C   UNL     1       5.702   4.775  16.995  0.00  0.00    +0.000 A 
ATOM     30  C   UNL     1       5.241   3.460  16.816  0.00  0.00    +0.000 A 
ATOM     31  C   UNL     1       3.906   3.150  17.083  0.00  0.00    +0.000 A 
ATOM     32  C   UNL     1       3.037   4.146  17.530  0.00  0.00    +0.000 A 
ATOM     33  C   UNL     1       3.507   5.452  17.711  0.00  0.00    +0.000 A 
ATOM     34  C   UNL     1       4.838   5.780  17.440  0.00  0.00    +0.000 A 
BRANCH  29  36
ATOM     35  O   UNL     1       7.974   4.392  17.248  0.00  0.00    +0.000 OA
ATOM     36  N   UNL     1       7.107   5.097  16.717  0.00  0.00    +0.000 N 
ATOM     37  O   UNL     1       7.343   6.057  15.968  0.00  0.00    +0.000 OA
ENDBRANCH  29  36
ENDBRANCH  27  33
ENDBRANCH  21  28
ENDBRANCH   1  24
TORSDOF 4
ENDMDL
MODEL 8
REMARK VINA RESULT:      -8.6      3.109      4.699
REMARK  Name = 
REMARK  4 active torsions:
REMARK  status: ('A' for Active; 'I' for Inactive)
REMARK    1  A    between atoms: N_2  and  C_4
REMARK    2  A    between atoms: C_8  and  C_9
REMARK    3  A    between atoms: N_10  and  C_11
REMARK    4  A    between atoms: C_14  and  N_15
REMARK                            x       y       z     vdW  Elec       q    Type
REMARK                         _______ _______ _______ _____ _____    ______ ____
ROOT
ATOM      1  N   UNL     1      -1.059  11.549  23.043  0.00  0.00    +0.000 N 
ATOM      2  C   UNL     1      -2.114  12.459  22.875  0.00  0.00    +0.000 A 
ATOM      3  N   UNL     1      -2.901  12.387  21.813  0.00  0.00    +0.000 NA
ATOM      4  C   UNL     1      -3.774  13.356  21.627  0.00  0.00    +0.000 A 
ATOM      5  N   UNL     1      -4.521  13.343  20.477  0.00  0.00    +0.000 N 
ATOM      6  C   UNL     1      -5.436  14.426  20.138  0.00  0.00    +0.000 C 
ATOM      7  C   UNL     1      -6.865  13.879  20.003  0.00  0.00    +0.000 C 
ATOM      8  O   UNL     1      -6.929  12.760  19.100  0.00  0.00    +0.000 OA
ATOM      9  C   UNL     1      -6.082  11.697  19.567  0.00  0.00    +0.000 C 
ATOM     10  C   UNL     1      -4.616  12.146  19.643  0.00  0.00    +0.000 C 
ATOM     11  N   UNL     1      -3.912  14.350  22.484  0.00  0.00    +0.000 NA
ATOM     12  C   UNL     1      -3.137  14.340  23.563  0.00  0.00    +0.000 A 
ATOM     13  N   UNL     1      -3.271  15.366  24.457  0.00  0.00    +0.000 N 
ATOM     14  C   UNL     1      -4.219  16.458  24.238  0.00  0.00    +0.000 C 
ATOM     15  C   UNL     1      -3.492  17.801  24.407  0.00  0.00    +0.000 C 
ATOM     16  O   UNL     1      -2.808  17.880  25.670  0.00  0.00    +0.000 OA
ATOM     17  C   UNL     1      -1.835  16.825  25.780  0.00  0.00    +0.000 C 
ATOM     18  C   UNL     1      -2.493  15.439  25.687  0.00  0.00    +0.000 C 
ATOM     19  N   UNL     1      -2.221  13.406  23.792  0.00  0.00    +0.000 NA
ATOM     20  H   UNL     1      -0.489  11.863  23.816  0.00  0.00    +0.000 HD
ENDROOT
BRANCH   1  24
ATOM     21  C   UNL     1       0.964   9.198  20.136  0.00  0.00    +0.000 A 
ATOM     22  C   UNL     1       0.431   8.622  21.291  0.00  0.00    +0.000 A 
ATOM     23  C   UNL     1      -0.252   9.400  22.242  0.00  0.00    +0.000 A 
ATOM     24  C   UNL     1      -0.401  10.780  22.068  0.00  0.00    +0.000 A 
ATOM     25  C   UNL     1       0.110  11.331  20.891  0.00  0.00    +0.000 A 
ATOM     26  C   UNL     1       0.815  10.569  19.961  0.00  0.00    +0.000 A 
BRANCH  21  28
ATOM     27  C   UNL     1       2.108   7.241  19.626  0.00  0.00    +0.000 C 
ATOM     28  N   UNL     1       1.634   8.372  19.217  0.00  0.00    +0.000 NA
BRANCH  27  33
ATOM     29  C   UNL     1       4.505   5.943  17.034  0.00  0.00    +0.000 A 
ATOM     30  C   UNL     1       4.272   4.560  17.123  0.00  0.00    +0.000 A 
ATOM     31  C   UNL     1       3.319   4.073  18.020  0.00  0.00    +0.000 A 
ATOM     32  C   UNL     1       2.606   4.960  18.826  0.00  0.00    +0.000 A 
ATOM     33  C   UNL     1       2.849   6.336  18.734  0.00  0.00    +0.000 A 
ATOM     34  C   UNL     1       3.793   6.839  17.836  0.00  0.00    +0.000 A 
BRANCH  29  36
ATOM     35  O   UNL     1       5.105   7.014  15.067  0.00  0.00    +0.000 OA
ATOM     36  N   UNL     1       5.509   6.451  16.092  0.00  0.00    +0.000 N 
ATOM     37  O   UNL     1       6.705   6.286  16.378  0.00  0.00    +0.000 OA
ENDBRANCH  29  36
ENDBRANCH  27  33
ENDBRANCH  21  28
ENDBRANCH   1  24
TORSDOF 4
ENDMDL
MODEL 9
REMARK VINA RESULT:      -8.5      3.741      5.538
REMARK  Name = 
REMARK  4 active torsions:
REMARK  status: ('A' for Active; 'I' for Inactive)
REMARK    1  A    between atoms: N_2  and  C_4
REMARK    2  A    between atoms: C_8  and  C_9
REMARK    3  A    between atoms: N_10  and  C_11
REMARK    4  A    between atoms: C_14  and  N_15
REMARK                            x       y       z     vdW  Elec       q    Type
REMARK                         _______ _______ _______ _____ _____    ______ ____
ROOT
ATOM      1  N   UNL     1      -1.698  12.042  23.280  0.00  0.00    +0.000 N 
ATOM      2  C   UNL     1      -2.801  12.820  22.896  0.00  0.00    +0.000 A 
ATOM      3  N   UNL     1      -3.495  12.513  21.811  0.00  0.00    +0.000 NA
ATOM      4  C   UNL     1      -4.419  13.362  21.410  0.00  0.00    +0.000 A 
ATOM      5  N   UNL     1      -5.071  13.102  20.232  0.00  0.00    +0.000 N 
ATOM      6  C   UNL     1      -6.033  14.035  19.659  0.00  0.00    +0.000 C 
ATOM      7  C   UNL     1      -7.403  13.354  19.524  0.00  0.00    +0.000 C 
ATOM      8  O   UNL     1      -7.314  12.103  18.816  0.00  0.00    +0.000 OA
ATOM      9  C   UNL     1      -6.431  11.204  19.507  0.00  0.00    +0.000 C 
ATOM     10  C   UNL     1      -5.013  11.783  19.604  0.00  0.00    +0.000 C 
ATOM     11  N   UNL     1      -4.696  14.465  22.080  0.00  0.00    +0.000 NA
ATOM     12  C   UNL     1      -4.009  14.693  23.194  0.00  0.00    +0.000 A 
ATOM     13  N   UNL     1      -4.288  15.834  23.895  0.00  0.00    +0.000 N 
ATOM     14  C   UNL     1      -5.293  16.792  23.437  0.00  0.00    +0.000 C 
ATOM     15  C   UNL     1      -4.681  18.202  23.428  0.00  0.00    +0.000 C 
ATOM     16  O   UNL     1      -4.106  18.540  24.702  0.00  0.00    +0.000 OA
ATOM     17  C   UNL     1      -3.071  17.602  25.050  0.00  0.00    +0.000 C 
ATOM     18  C   UNL     1      -3.616  16.168  25.144  0.00  0.00    +0.000 C 
ATOM     19  N   UNL     1      -3.048  13.889  23.634  0.00  0.00    +0.000 NA
ATOM     20  H   UNL     1      -1.215  12.522  24.027  0.00  0.00    +0.000 HD
ENDROOT
BRANCH   1  24
ATOM     21  C   UNL     1       0.708   9.431  20.942  0.00  0.00    +0.000 A 
ATOM     22  C   UNL     1       0.012   8.969  22.061  0.00  0.00    +0.000 A 
ATOM     23  C   UNL     1      -0.796   9.831  22.822  0.00  0.00    +0.000 A 
ATOM     24  C   UNL     1      -0.911  11.186  22.491  0.00  0.00    +0.000 A 
ATOM     25  C   UNL     1      -0.235  11.621  21.350  0.00  0.00    +0.000 A 
ATOM     26  C   UNL     1       0.592  10.777  20.611  0.00  0.00    +0.000 A 
BRANCH  21  28
ATOM     27  C   UNL     1       1.454   7.270  20.527  0.00  0.00    +0.000 C 
ATOM     28  N   UNL     1       1.498   8.524  20.215  0.00  0.00    +0.000 NA
BRANCH  27  33
ATOM     29  C   UNL     1       3.367   4.122  19.769  0.00  0.00    +0.000 A 
ATOM     30  C   UNL     1       3.768   4.365  18.445  0.00  0.00    +0.000 A 
ATOM     31  C   UNL     1       3.420   5.566  17.823  0.00  0.00    +0.000 A 
ATOM     32  C   UNL     1       2.674   6.517  18.518  0.00  0.00    +0.000 A 
ATOM     33  C   UNL     1       2.274   6.264  19.836  0.00  0.00    +0.000 A 
ATOM     34  C   UNL     1       2.621   5.071  20.474  0.00  0.00    +0.000 A 
BRANCH  29  36
ATOM     35  O   UNL     1       4.767   2.295  20.042  0.00  0.00    +0.000 OA
ATOM     36  N   UNL     1       3.731   2.856  20.418  0.00  0.00    +0.000 N 
ATOM     37  O   UNL     1       2.978   2.424  21.303  0.00  0.00    +0.000 OA
ENDBRANCH  29  36
ENDBRANCH  27  33
ENDBRANCH  21  28
ENDBRANCH   1  24
TORSDOF 4
ENDMDL
