MODEL 1
REMARK VINA RESULT:      -8.1      0.000      0.000
REMARK  Name = 
REMARK  10 active torsions:
REMARK  status: ('A' for Active; 'I' for Inactive)
REMARK    1  A    between atoms: C_1  and  O_2
REMARK    2  A    between atoms: O_2  and  C_3
REMARK    3  A    between atoms: C_6  and  C_7
REMARK    4  A    between atoms: N_11  and  C_12
REMARK    5  A    between atoms: C_12  and  C_13
REMARK    6  A    between atoms: N_15  and  C_16
REMARK    7  A    between atoms: C_19  and  C_20
REMARK    8  A    between atoms: C_20  and  C_21
REMARK    9  A    between atoms: C_33  and  O_34
REMARK   10  A    between atoms: O_34  and  C_35
REMARK                            x       y       z     vdW  Elec       q    Type
REMARK                         _______ _______ _______ _____ _____    ______ ____
ROOT
ATOM      1  C   UNL     1      -2.609  13.044  20.342  0.00  0.00    +0.000 C 
ATOM      2  C   UNL     1      -2.049  11.658  20.085  0.00  0.00    +0.000 C 
ATOM      3  C   UNL     1      -1.127  11.770  18.916  0.00  0.00    +0.000 C 
ATOM      4  O   UNL     1      -1.535  12.092  17.808  0.00  0.00    +0.000 OA
ATOM      5  N   UNL     1       0.221  11.716  19.245  0.00  0.00    +0.000 N 
ATOM      6  C   UNL     1       0.892  12.937  19.073  0.00  0.00    +0.000 A 
ATOM      7  C   UNL     1       2.154  12.855  18.395  0.00  0.00    +0.000 A 
ATOM      8  C   UNL     1       2.870  13.989  18.098  0.00  0.00    +0.000 A 
ATOM      9  C   UNL     1       2.355  15.214  18.508  0.00  0.00    +0.000 A 
ATOM     10  C   UNL     1       1.124  15.305  19.218  0.00  0.00    +0.000 A 
ATOM     11  C   UNL     1       0.326  14.166  19.502  0.00  0.00    +0.000 A 
ATOM     12  S   UNL     1      -1.153  14.358  20.683  0.00  0.00    +0.000 S 
ENDROOT
BRANCH   1  16
ATOM     13  C   UNL     1      -6.025  12.921  23.241  0.00  0.00    +0.000 A 
ATOM     14  C   UNL     1      -4.693  13.007  23.693  0.00  0.00    +0.000 A 
ATOM     15  C   UNL     1      -3.584  13.017  22.811  0.00  0.00    +0.000 A 
ATOM     16  C   UNL     1      -3.754  12.920  21.428  0.00  0.00    +0.000 A 
ATOM     17  C   UNL     1      -5.094  12.638  21.014  0.00  0.00    +0.000 A 
ATOM     18  C   UNL     1      -6.223  12.637  21.889  0.00  0.00    +0.000 A 
BRANCH  13  20
ATOM     19  C   UNL     1      -7.807  14.305  23.965  0.00  0.00    +0.000 C 
ATOM     20  O   UNL     1      -7.086  13.074  24.099  0.00  0.00    +0.000 OA
ENDBRANCH  13  20
BRANCH  18  21
ATOM     21  O   UNL     1      -7.396  12.356  21.229  0.00  0.00    +0.000 OA
ATOM     22  C   UNL     1      -7.906  11.028  21.181  0.00  0.00    +0.000 C 
ENDBRANCH  18  21
ENDBRANCH   1  16
BRANCH   5  23
ATOM     23  C   UNL     1       0.848  10.737  20.123  0.00  0.00    +0.000 C 
BRANCH  23  24
ATOM     24  C   UNL     1       1.205   9.453  19.379  0.00  0.00    +0.000 C 
ATOM     25  O   UNL     1       0.941   9.335  18.184  0.00  0.00    +0.000 OA
ATOM     26  N   UNL     1       1.745   8.451  20.171  0.00  0.00    +0.000 N 
ATOM     27  H   UNL     1       1.525   8.502  21.161  0.00  0.00    +0.000 HD
BRANCH  26  28
ATOM     28  C   UNL     1       2.083   7.199  19.641  0.00  0.00    +0.000 A 
ATOM     29  C   UNL     1       1.835   6.018  20.354  0.00  0.00    +0.000 A 
ATOM     30  C   UNL     1       2.274   4.791  19.853  0.00  0.00    +0.000 A 
ATOM     31  C   UNL     1       2.974   4.734  18.645  0.00  0.00    +0.000 A 
ATOM     32  C   UNL     1       3.168   5.921  17.918  0.00  0.00    +0.000 A 
ATOM     33  C   UNL     1       2.688   7.143  18.395  0.00  0.00    +0.000 A 
BRANCH  31  34
ATOM     34  C   UNL     1       3.541   3.475  18.076  0.00  0.00    +0.000 C 
ATOM     35  C   UNL     1       2.721   2.214  18.008  0.00  0.00    +0.000 C 
ATOM     36  O   UNL     1       4.692   3.481  17.629  0.00  0.00    +0.000 OA
ENDBRANCH  31  34
ENDBRANCH  26  28
ENDBRANCH  23  24
ENDBRANCH   5  23
TORSDOF 7
ENDMDL
MODEL 2
REMARK VINA RESULT:      -7.8      0.954      1.797
REMARK  Name = 
REMARK  10 active torsions:
REMARK  status: ('A' for Active; 'I' for Inactive)
REMARK    1  A    between atoms: C_1  and  O_2
REMARK    2  A    between atoms: O_2  and  C_3
REMARK    3  A    between atoms: C_6  and  C_7
REMARK    4  A    between atoms: N_11  and  C_12
REMARK    5  A    between atoms: C_12  and  C_13
REMARK    6  A    between atoms: N_15  and  C_16
REMARK    7  A    between atoms: C_19  and  C_20
REMARK    8  A    between atoms: C_20  and  C_21
REMARK    9  A    between atoms: C_33  and  O_34
REMARK   10  A    between atoms: O_34  and  C_35
REMARK                            x       y       z     vdW  Elec       q    Type
REMARK                         _______ _______ _______ _____ _____    ______ ____
ROOT
ATOM      1  C   UNL     1      -2.384  13.285  20.081  0.00  0.00    +0.000 C 
ATOM      2  C   UNL     1      -1.982  11.855  19.775  0.00  0.00    +0.000 C 
ATOM      3  C   UNL     1      -1.012  11.908  18.641  0.00  0.00    +0.000 C 
ATOM      4  O   UNL     1      -1.340  12.324  17.537  0.00  0.00    +0.000 OA
ATOM      5  N   UNL     1       0.307  11.680  19.007  0.00  0.00    +0.000 N 
ATOM      6  C   UNL     1       1.122  12.820  18.912  0.00  0.00    +0.000 A 
ATOM      7  C   UNL     1       2.390  12.619  18.270  0.00  0.00    +0.000 A 
ATOM      8  C   UNL     1       3.243  13.672  18.048  0.00  0.00    +0.000 A 
ATOM      9  C   UNL     1       2.861  14.930  18.501  0.00  0.00    +0.000 A 
ATOM     10  C   UNL     1       1.625  15.135  19.177  0.00  0.00    +0.000 A 
ATOM     11  C   UNL     1       0.690  14.088  19.383  0.00  0.00    +0.000 A 
ATOM     12  S   UNL     1      -0.797  14.401  20.527  0.00  0.00    +0.000 S 
ENDROOT
BRANCH   1  16
ATOM     13  C   UNL     1      -5.543  13.025  23.250  0.00  0.00    +0.000 A 
ATOM     14  C   UNL     1      -5.834  12.708  21.908  0.00  0.00    +0.000 A 
ATOM     15  C   UNL     1      -4.872  12.807  20.872  0.00  0.00    +0.000 A 
ATOM     16  C   UNL     1      -3.573  13.251  21.126  0.00  0.00    +0.000 A 
ATOM     17  C   UNL     1      -3.365  13.749  22.450  0.00  0.00    +0.000 A 
ATOM     18  C   UNL     1      -4.319  13.644  23.509  0.00  0.00    +0.000 A 
BRANCH  13  20
ATOM     19  C   UNL     1      -7.529  13.696  24.356  0.00  0.00    +0.000 C 
ATOM     20  O   UNL     1      -6.439  12.770  24.259  0.00  0.00    +0.000 OA
ENDBRANCH  13  20
BRANCH  18  21
ATOM     21  O   UNL     1      -3.857  14.186  24.685  0.00  0.00    +0.000 OA
ATOM     22  C   UNL     1      -3.590  15.579  24.792  0.00  0.00    +0.000 C 
ENDBRANCH  18  21
ENDBRANCH   1  16
BRANCH   5  23
ATOM     23  C   UNL     1       0.784  10.596  19.855  0.00  0.00    +0.000 C 
BRANCH  23  24
ATOM     24  C   UNL     1       1.191   9.372  19.039  0.00  0.00    +0.000 C 
ATOM     25  O   UNL     1       0.825   9.258  17.871  0.00  0.00    +0.000 OA
ATOM     26  N   UNL     1       1.897   8.410  19.744  0.00  0.00    +0.000 N 
ATOM     27  H   UNL     1       1.769   8.415  20.751  0.00  0.00    +0.000 HD
BRANCH  26  28
ATOM     28  C   UNL     1       2.301   7.210  19.143  0.00  0.00    +0.000 A 
ATOM     29  C   UNL     1       1.833   5.973  19.607  0.00  0.00    +0.000 A 
ATOM     30  C   UNL     1       2.328   4.787  19.061  0.00  0.00    +0.000 A 
ATOM     31  C   UNL     1       3.303   4.825  18.062  0.00  0.00    +0.000 A 
ATOM     32  C   UNL     1       3.723   6.075  17.573  0.00  0.00    +0.000 A 
ATOM     33  C   UNL     1       3.194   7.261  18.083  0.00  0.00    +0.000 A 
BRANCH  31  34
ATOM     34  C   UNL     1       3.939   3.607  17.478  0.00  0.00    +0.000 C 
ATOM     35  C   UNL     1       3.522   2.227  17.916  0.00  0.00    +0.000 C 
ATOM     36  O   UNL     1       4.798   3.736  16.601  0.00  0.00    +0.000 OA
ENDBRANCH  31  34
ENDBRANCH  26  28
ENDBRANCH  23  24
ENDBRANCH   5  23
TORSDOF 7
ENDMDL
MODEL 3
REMARK VINA RESULT:      -7.7      0.704      1.062
REMARK  Name = 
REMARK  10 active torsions:
REMARK  status: ('A' for Active; 'I' for Inactive)
REMARK    1  A    between atoms: C_1  and  O_2
REMARK    2  A    between atoms: O_2  and  C_3
REMARK    3  A    between atoms: C_6  and  C_7
REMARK    4  A    between atoms: N_11  and  C_12
REMARK    5  A    between atoms: C_12  and  C_13
REMARK    6  A    between atoms: N_15  and  C_16
REMARK    7  A    between atoms: C_19  and  C_20
REMARK    8  A    between atoms: C_20  and  C_21
REMARK    9  A    between atoms: C_33  and  O_34
REMARK   10  A    between atoms: O_34  and  C_35
REMARK                            x       y       z     vdW  Elec       q    Type
REMARK                         _______ _______ _______ _____ _____    ______ ____
ROOT
ATOM      1  C   UNL     1      -2.668  12.876  20.464  0.00  0.00    +0.000 C 
ATOM      2  C   UNL     1      -2.090  11.482  20.310  0.00  0.00    +0.000 C 
ATOM      3  C   UNL     1      -1.147  11.527  19.153  0.00  0.00    +0.000 C 
ATOM      4  O   UNL     1      -1.536  11.771  18.018  0.00  0.00    +0.000 OA
ATOM      5  N   UNL     1       0.195  11.509  19.510  0.00  0.00    +0.000 N 
ATOM      6  C   UNL     1       0.857  12.724  19.270  0.00  0.00    +0.000 A 
ATOM      7  C   UNL     1       2.134  12.612  18.623  0.00  0.00    +0.000 A 
ATOM      8  C   UNL     1       2.844  13.731  18.265  0.00  0.00    +0.000 A 
ATOM      9  C   UNL     1       2.309  14.975  18.584  0.00  0.00    +0.000 A 
ATOM     10  C   UNL     1       1.064  15.099  19.263  0.00  0.00    +0.000 A 
ATOM     11  C   UNL     1       0.272  13.973  19.607  0.00  0.00    +0.000 A 
ATOM     12  S   UNL     1      -1.231  14.225  20.745  0.00  0.00    +0.000 S 
ENDROOT
BRANCH   1  16
ATOM     13  C   UNL     1      -6.111  12.950  23.333  0.00  0.00    +0.000 A 
ATOM     14  C   UNL     1      -4.783  12.858  23.796  0.00  0.00    +0.000 A 
ATOM     15  C   UNL     1      -3.669  12.800  22.921  0.00  0.00    +0.000 A 
ATOM     16  C   UNL     1      -3.832  12.812  21.534  0.00  0.00    +0.000 A 
ATOM     17  C   UNL     1      -5.190  12.708  21.096  0.00  0.00    +0.000 A 
ATOM     18  C   UNL     1      -6.323  12.777  21.964  0.00  0.00    +0.000 A 
BRANCH  13  20
ATOM     19  C   UNL     1      -7.915  14.358  23.949  0.00  0.00    +0.000 C 
ATOM     20  O   UNL     1      -7.158  13.165  24.194  0.00  0.00    +0.000 OA
ENDBRANCH  13  20
BRANCH  18  21
ATOM     21  O   UNL     1      -7.512  12.671  21.282  0.00  0.00    +0.000 OA
ATOM     22  C   UNL     1      -7.537  12.630  19.860  0.00  0.00    +0.000 C 
ENDBRANCH  18  21
ENDBRANCH   1  16
BRANCH   5  23
ATOM     23  C   UNL     1       0.814  10.597  20.462  0.00  0.00    +0.000 C 
BRANCH  23  24
ATOM     24  C   UNL     1       1.217   9.279  19.808  0.00  0.00    +0.000 C 
ATOM     25  O   UNL     1       1.000   9.090  18.612  0.00  0.00    +0.000 OA
ATOM     26  N   UNL     1       1.740   8.333  20.675  0.00  0.00    +0.000 N 
ATOM     27  H   UNL     1       1.482   8.436  21.652  0.00  0.00    +0.000 HD
BRANCH  26  28
ATOM     28  C   UNL     1       2.115   7.058  20.230  0.00  0.00    +0.000 A 
ATOM     29  C   UNL     1       3.045   6.896  19.195  0.00  0.00    +0.000 A 
ATOM     30  C   UNL     1       3.326   5.621  18.698  0.00  0.00    +0.000 A 
ATOM     31  C   UNL     1       2.672   4.502  19.220  0.00  0.00    +0.000 A 
ATOM     32  C   UNL     1       1.781   4.678  20.293  0.00  0.00    +0.000 A 
ATOM     33  C   UNL     1       1.535   5.946  20.823  0.00  0.00    +0.000 A 
BRANCH  31  34
ATOM     34  C   UNL     1       2.858   3.116  18.697  0.00  0.00    +0.000 C 
ATOM     35  C   UNL     1       2.275   2.699  17.372  0.00  0.00    +0.000 C 
ATOM     36  O   UNL     1       3.528   2.311  19.352  0.00  0.00    +0.000 OA
ENDBRANCH  31  34
ENDBRANCH  26  28
ENDBRANCH  23  24
ENDBRANCH   5  23
TORSDOF 7
ENDMDL
MODEL 4
REMARK VINA RESULT:      -7.3      1.266      1.497
REMARK  Name = 
REMARK  10 active torsions:
REMARK  status: ('A' for Active; 'I' for Inactive)
REMARK    1  A    between atoms: C_1  and  O_2
REMARK    2  A    between atoms: O_2  and  C_3
REMARK    3  A    between atoms: C_6  and  C_7
REMARK    4  A    between atoms: N_11  and  C_12
REMARK    5  A    between atoms: C_12  and  C_13
REMARK    6  A    between atoms: N_15  and  C_16
REMARK    7  A    between atoms: C_19  and  C_20
REMARK    8  A    between atoms: C_20  and  C_21
REMARK    9  A    between atoms: C_33  and  O_34
REMARK   10  A    between atoms: O_34  and  C_35
REMARK                            x       y       z     vdW  Elec       q    Type
REMARK                         _______ _______ _______ _____ _____    ______ ____
ROOT
ATOM      1  C   UNL     1      -2.526  13.490  20.448  0.00  0.00    +0.000 C 
ATOM      2  C   UNL     1      -2.059  12.050  20.539  0.00  0.00    +0.000 C 
ATOM      3  C   UNL     1      -1.119  11.824  19.401  0.00  0.00    +0.000 C 
ATOM      4  O   UNL     1      -1.491  11.901  18.238  0.00  0.00    +0.000 OA
ATOM      5  N   UNL     1       0.218  11.763  19.771  0.00  0.00    +0.000 N 
ATOM      6  C   UNL     1       0.973  12.863  19.335  0.00  0.00    +0.000 A 
ATOM      7  C   UNL     1       2.235  12.544  18.730  0.00  0.00    +0.000 A 
ATOM      8  C   UNL     1       3.030  13.528  18.195  0.00  0.00    +0.000 A 
ATOM      9  C   UNL     1       2.595  14.845  18.292  0.00  0.00    +0.000 A 
ATOM     10  C   UNL     1       1.366  15.179  18.927  0.00  0.00    +0.000 A 
ATOM     11  C   UNL     1       0.489  14.193  19.449  0.00  0.00    +0.000 A 
ATOM     12  S   UNL     1      -0.987  14.752  20.511  0.00  0.00    +0.000 S 
ENDROOT
BRANCH   1  16
ATOM     13  C   UNL     1      -5.996  14.232  23.187  0.00  0.00    +0.000 A 
ATOM     14  C   UNL     1      -4.676  14.509  23.597  0.00  0.00    +0.000 A 
ATOM     15  C   UNL     1      -3.550  14.260  22.773  0.00  0.00    +0.000 A 
ATOM     16  C   UNL     1      -3.689  13.699  21.502  0.00  0.00    +0.000 A 
ATOM     17  C   UNL     1      -5.011  13.250  21.193  0.00  0.00    +0.000 A 
ATOM     18  C   UNL     1      -6.158  13.505  22.006  0.00  0.00    +0.000 A 
BRANCH  13  20
ATOM     19  C   UNL     1      -7.759  15.793  23.450  0.00  0.00    +0.000 C 
ATOM     20  O   UNL     1      -7.078  14.628  23.933  0.00  0.00    +0.000 OA
ENDBRANCH  13  20
BRANCH  18  21
ATOM     21  O   UNL     1      -7.308  12.979  21.468  0.00  0.00    +0.000 OA
ATOM     22  C   UNL     1      -7.888  13.538  20.295  0.00  0.00    +0.000 C 
ENDBRANCH  18  21
ENDBRANCH   1  16
BRANCH   5  23
ATOM     23  C   UNL     1       0.767  10.980  20.870  0.00  0.00    +0.000 C 
BRANCH  23  24
ATOM     24  C   UNL     1       0.727   9.483  20.578  0.00  0.00    +0.000 C 
ATOM     25  O   UNL     1      -0.234   8.806  20.941  0.00  0.00    +0.000 OA
ATOM     26  N   UNL     1       1.868   8.975  19.977  0.00  0.00    +0.000 N 
ATOM     27  H   UNL     1       2.718   9.514  20.114  0.00  0.00    +0.000 HD
BRANCH  26  28
ATOM     28  C   UNL     1       1.999   7.611  19.687  0.00  0.00    +0.000 A 
ATOM     29  C   UNL     1       2.338   7.173  18.400  0.00  0.00    +0.000 A 
ATOM     30  C   UNL     1       2.362   5.807  18.107  0.00  0.00    +0.000 A 
ATOM     31  C   UNL     1       2.035   4.871  19.091  0.00  0.00    +0.000 A 
ATOM     32  C   UNL     1       1.749   5.326  20.390  0.00  0.00    +0.000 A 
ATOM     33  C   UNL     1       1.771   6.688  20.696  0.00  0.00    +0.000 A 
BRANCH  31  34
ATOM     34  C   UNL     1       1.964   3.400  18.843  0.00  0.00    +0.000 C 
ATOM     35  C   UNL     1       2.851   2.441  19.594  0.00  0.00    +0.000 C 
ATOM     36  O   UNL     1       1.143   2.965  18.030  0.00  0.00    +0.000 OA
ENDBRANCH  31  34
ENDBRANCH  26  28
ENDBRANCH  23  24
ENDBRANCH   5  23
TORSDOF 7
ENDMDL
MODEL 5
REMARK VINA RESULT:      -7.3      1.442      1.587
REMARK  Name = 
REMARK  10 active torsions:
REMARK  status: ('A' for Active; 'I' for Inactive)
REMARK    1  A    between atoms: C_1  and  O_2
REMARK    2  A    between atoms: O_2  and  C_3
REMARK    3  A    between atoms: C_6  and  C_7
REMARK    4  A    between atoms: N_11  and  C_12
REMARK    5  A    between atoms: C_12  and  C_13
REMARK    6  A    between atoms: N_15  and  C_16
REMARK    7  A    between atoms: C_19  and  C_20
REMARK    8  A    between atoms: C_20  and  C_21
REMARK    9  A    between atoms: C_33  and  O_34
REMARK   10  A    between atoms: O_34  and  C_35
REMARK                            x       y       z     vdW  Elec       q    Type
REMARK                         _______ _______ _______ _____ _____    ______ ____
ROOT
ATOM      1  C   UNL     1      -2.506  13.678  20.288  0.00  0.00    +0.000 C 
ATOM      2  C   UNL     1      -2.039  12.235  20.313  0.00  0.00    +0.000 C 
ATOM      3  C   UNL     1      -1.045  12.079  19.210  0.00  0.00    +0.000 C 
ATOM      4  O   UNL     1      -1.363  12.226  18.037  0.00  0.00    +0.000 OA
ATOM      5  N   UNL     1       0.273  11.997  19.637  0.00  0.00    +0.000 N 
ATOM      6  C   UNL     1       1.043  13.123  19.304  0.00  0.00    +0.000 A 
ATOM      7  C   UNL     1       2.333  12.842  18.742  0.00  0.00    +0.000 A 
ATOM      8  C   UNL     1       3.149  13.857  18.305  0.00  0.00    +0.000 A 
ATOM      9  C   UNL     1       2.704  15.166  18.461  0.00  0.00    +0.000 A 
ATOM     10  C   UNL     1       1.446  15.460  19.056  0.00  0.00    +0.000 A 
ATOM     11  C   UNL     1       0.549  14.443  19.476  0.00  0.00    +0.000 A 
ATOM     12  S   UNL     1      -0.977  14.934  20.499  0.00  0.00    +0.000 S 
ENDROOT
BRANCH   1  16
ATOM     13  C   UNL     1      -5.874  14.415  23.152  0.00  0.00    +0.000 A 
ATOM     14  C   UNL     1      -4.971  13.352  23.353  0.00  0.00    +0.000 A 
ATOM     15  C   UNL     1      -3.912  13.067  22.455  0.00  0.00    +0.000 A 
ATOM     16  C   UNL     1      -3.718  13.821  21.297  0.00  0.00    +0.000 A 
ATOM     17  C   UNL     1      -4.761  14.761  21.020  0.00  0.00    +0.000 A 
ATOM     18  C   UNL     1      -5.826  15.069  21.920  0.00  0.00    +0.000 A 
BRANCH  13  20
ATOM     19  C   UNL     1      -7.868  13.846  24.300  0.00  0.00    +0.000 C 
ATOM     20  O   UNL     1      -6.789  14.771  24.112  0.00  0.00    +0.000 OA
ENDBRANCH  13  20
BRANCH  18  21
ATOM     21  O   UNL     1      -6.679  16.022  21.415  0.00  0.00    +0.000 OA
ATOM     22  C   UNL     1      -6.565  16.463  20.067  0.00  0.00    +0.000 C 
ENDBRANCH  18  21
ENDBRANCH   1  16
BRANCH   5  23
ATOM     23  C   UNL     1       0.772  11.150  20.712  0.00  0.00    +0.000 C 
BRANCH  23  24
ATOM     24  C   UNL     1       0.666   9.668  20.364  0.00  0.00    +0.000 C 
ATOM     25  O   UNL     1      -0.403   9.075  20.499  0.00  0.00    +0.000 OA
ATOM     26  N   UNL     1       1.859   9.070  19.990  0.00  0.00    +0.000 N 
ATOM     27  H   UNL     1       2.706   9.526  20.316  0.00  0.00    +0.000 HD
BRANCH  26  28
ATOM     28  C   UNL     1       1.931   7.704  19.683  0.00  0.00    +0.000 A 
ATOM     29  C   UNL     1       1.723   6.728  20.668  0.00  0.00    +0.000 A 
ATOM     30  C   UNL     1       1.901   5.377  20.363  0.00  0.00    +0.000 A 
ATOM     31  C   UNL     1       2.300   4.991  19.082  0.00  0.00    +0.000 A 
ATOM     32  C   UNL     1       2.452   5.979  18.093  0.00  0.00    +0.000 A 
ATOM     33  C   UNL     1       2.228   7.326  18.383  0.00  0.00    +0.000 A 
BRANCH  31  34
ATOM     34  C   UNL     1       2.583   3.577  18.694  0.00  0.00    +0.000 C 
ATOM     35  C   UNL     1       2.794   2.511  19.738  0.00  0.00    +0.000 C 
ATOM     36  O   UNL     1       2.614   3.275  17.497  0.00  0.00    +0.000 OA
ENDBRANCH  31  34
ENDBRANCH  26  28
ENDBRANCH  23  24
ENDBRANCH   5  23
TORSDOF 7
ENDMDL
MODEL 6
REMARK VINA RESULT:      -7.3      4.040     12.008
REMARK  Name = 
REMARK  10 active torsions:
REMARK  status: ('A' for Active; 'I' for Inactive)
REMARK    1  A    between atoms: C_1  and  O_2
REMARK    2  A    between atoms: O_2  and  C_3
REMARK    3  A    between atoms: C_6  and  C_7
REMARK    4  A    between atoms: N_11  and  C_12
REMARK    5  A    between atoms: C_12  and  C_13
REMARK    6  A    between atoms: N_15  and  C_16
REMARK    7  A    between atoms: C_19  and  C_20
REMARK    8  A    between atoms: C_20  and  C_21
REMARK    9  A    between atoms: C_33  and  O_34
REMARK   10  A    between atoms: O_34  and  C_35
REMARK                            x       y       z     vdW  Elec       q    Type
REMARK                         _______ _______ _______ _____ _____    ______ ____
ROOT
ATOM      1  C   UNL     1       4.027   4.114  16.903  0.00  0.00    +0.000 C 
ATOM      2  C   UNL     1       3.434   5.444  17.330  0.00  0.00    +0.000 C 
ATOM      3  C   UNL     1       2.170   5.141  18.066  0.00  0.00    +0.000 C 
ATOM      4  O   UNL     1       1.220   4.602  17.512  0.00  0.00    +0.000 OA
ATOM      5  N   UNL     1       2.259   5.299  19.442  0.00  0.00    +0.000 N 
ATOM      6  C   UNL     1       2.205   4.088  20.152  0.00  0.00    +0.000 A 
ATOM      7  C   UNL     1       1.327   4.079  21.287  0.00  0.00    +0.000 A 
ATOM      8  C   UNL     1       1.128   2.932  22.016  0.00  0.00    +0.000 A 
ATOM      9  C   UNL     1       1.833   1.792  21.646  0.00  0.00    +0.000 A 
ATOM     10  C   UNL     1       2.739   1.799  20.548  0.00  0.00    +0.000 A 
ATOM     11  C   UNL     1       2.938   2.945  19.736  0.00  0.00    +0.000 A 
ATOM     12  S   UNL     1       4.359   2.935  18.472  0.00  0.00    +0.000 S 
ENDROOT
BRANCH   1  16
ATOM     13  C   UNL     1       7.390   5.267  14.174  0.00  0.00    +0.000 A 
ATOM     14  C   UNL     1       6.559   4.169  13.876  0.00  0.00    +0.000 A 
ATOM     15  C   UNL     1       5.505   3.753  14.728  0.00  0.00    +0.000 A 
ATOM     16  C   UNL     1       5.244   4.406  15.934  0.00  0.00    +0.000 A 
ATOM     17  C   UNL     1       6.221   5.385  16.301  0.00  0.00    +0.000 A 
ATOM     18  C   UNL     1       7.280   5.824  15.449  0.00  0.00    +0.000 A 
BRANCH  13  20
ATOM     19  C   UNL     1       7.866   5.714  11.896  0.00  0.00    +0.000 C 
ATOM     20  O   UNL     1       8.297   5.749  13.263  0.00  0.00    +0.000 OA
ENDBRANCH  13  20
BRANCH  18  21
ATOM     21  O   UNL     1       8.062   6.788  16.040  0.00  0.00    +0.000 OA
ATOM     22  C   UNL     1       7.665   7.403  17.260  0.00  0.00    +0.000 C 
ENDBRANCH  18  21
ENDBRANCH   1  16
BRANCH   5  23
ATOM     23  C   UNL     1       2.830   6.445  20.136  0.00  0.00    +0.000 C 
BRANCH  23  24
ATOM     24  C   UNL     1       1.859   7.622  20.185  0.00  0.00    +0.000 C 
ATOM     25  O   UNL     1       1.581   8.238  19.158  0.00  0.00    +0.000 OA
ATOM     26  N   UNL     1       1.420   7.963  21.455  0.00  0.00    +0.000 N 
ATOM     27  H   UNL     1       2.020   7.678  22.223  0.00  0.00    +0.000 HD
BRANCH  26  28
ATOM     28  C   UNL     1       0.559   9.049  21.666  0.00  0.00    +0.000 A 
ATOM     29  C   UNL     1       0.392  10.041  20.691  0.00  0.00    +0.000 A 
ATOM     30  C   UNL     1      -0.390  11.166  20.963  0.00  0.00    +0.000 A 
ATOM     31  C   UNL     1      -0.996  11.316  22.213  0.00  0.00    +0.000 A 
ATOM     32  C   UNL     1      -0.860  10.286  23.159  0.00  0.00    +0.000 A 
ATOM     33  C   UNL     1      -0.119   9.139  22.872  0.00  0.00    +0.000 A 
BRANCH  31  34
ATOM     34  C   UNL     1      -1.785  12.520  22.610  0.00  0.00    +0.000 C 
ATOM     35  C   UNL     1      -3.230  12.670  22.211  0.00  0.00    +0.000 C 
ATOM     36  O   UNL     1      -1.248  13.390  23.303  0.00  0.00    +0.000 OA
ENDBRANCH  31  34
ENDBRANCH  26  28
ENDBRANCH  23  24
ENDBRANCH   5  23
TORSDOF 7
ENDMDL
MODEL 7
REMARK VINA RESULT:      -7.2      1.351      2.055
REMARK  Name = 
REMARK  10 active torsions:
REMARK  status: ('A' for Active; 'I' for Inactive)
REMARK    1  A    between atoms: C_1  and  O_2
REMARK    2  A    between atoms: O_2  and  C_3
REMARK    3  A    between atoms: C_6  and  C_7
REMARK    4  A    between atoms: N_11  and  C_12
REMARK    5  A    between atoms: C_12  and  C_13
REMARK    6  A    between atoms: N_15  and  C_16
REMARK    7  A    between atoms: C_19  and  C_20
REMARK    8  A    between atoms: C_20  and  C_21
REMARK    9  A    between atoms: C_33  and  O_34
REMARK   10  A    between atoms: O_34  and  C_35
REMARK                            x       y       z     vdW  Elec       q    Type
REMARK                         _______ _______ _______ _____ _____    ______ ____
ROOT
ATOM      1  C   UNL     1      -2.401  13.753  20.084  0.00  0.00    +0.000 C 
ATOM      2  C   UNL     1      -2.054  12.287  19.904  0.00  0.00    +0.000 C 
ATOM      3  C   UNL     1      -1.040  12.211  18.810  0.00  0.00    +0.000 C 
ATOM      4  O   UNL     1      -1.306  12.554  17.665  0.00  0.00    +0.000 OA
ATOM      5  N   UNL     1       0.253  11.955  19.247  0.00  0.00    +0.000 N 
ATOM      6  C   UNL     1       1.122  13.047  19.101  0.00  0.00    +0.000 A 
ATOM      7  C   UNL     1       2.403  12.743  18.529  0.00  0.00    +0.000 A 
ATOM      8  C   UNL     1       3.312  13.737  18.264  0.00  0.00    +0.000 A 
ATOM      9  C   UNL     1       2.971  15.042  18.604  0.00  0.00    +0.000 A 
ATOM     10  C   UNL     1       1.722  15.352  19.211  0.00  0.00    +0.000 A 
ATOM     11  C   UNL     1       0.732  14.365  19.457  0.00  0.00    +0.000 A 
ATOM     12  S   UNL     1      -0.782  14.830  20.511  0.00  0.00    +0.000 S 
ENDROOT
BRANCH   1  16
ATOM     13  C   UNL     1      -5.665  14.147  23.130  0.00  0.00    +0.000 A 
ATOM     14  C   UNL     1      -5.538  12.981  22.349  0.00  0.00    +0.000 A 
ATOM     15  C   UNL     1      -4.540  12.829  21.355  0.00  0.00    +0.000 A 
ATOM     16  C   UNL     1      -3.629  13.850  21.078  0.00  0.00    +0.000 A 
ATOM     17  C   UNL     1      -3.904  15.086  21.743  0.00  0.00    +0.000 A 
ATOM     18  C   UNL     1      -4.897  15.251  22.757  0.00  0.00    +0.000 A 
BRANCH  13  20
ATOM     19  C   UNL     1      -7.590  13.242  24.174  0.00  0.00    +0.000 C 
ATOM     20  O   UNL     1      -6.533  14.210  24.192  0.00  0.00    +0.000 OA
ENDBRANCH  13  20
BRANCH  18  21
ATOM     21  O   UNL     1      -4.939  16.536  23.244  0.00  0.00    +0.000 OA
ATOM     22  C   UNL     1      -4.781  16.796  24.634  0.00  0.00    +0.000 C 
ENDBRANCH  18  21
ENDBRANCH   1  16
BRANCH   5  23
ATOM     23  C   UNL     1       0.646  10.920  20.194  0.00  0.00    +0.000 C 
BRANCH  23  24
ATOM     24  C   UNL     1       0.989   9.608  19.493  0.00  0.00    +0.000 C 
ATOM     25  O   UNL     1       0.627   9.412  18.334  0.00  0.00    +0.000 OA
ATOM     26  N   UNL     1       1.635   8.674  20.287  0.00  0.00    +0.000 N 
ATOM     27  H   UNL     1       1.500   8.775  21.289  0.00  0.00    +0.000 HD
BRANCH  26  28
ATOM     28  C   UNL     1       1.975   7.406  19.798  0.00  0.00    +0.000 A 
ATOM     29  C   UNL     1       2.655   7.256  18.582  0.00  0.00    +0.000 A 
ATOM     30  C   UNL     1       2.893   5.981  18.064  0.00  0.00    +0.000 A 
ATOM     31  C   UNL     1       2.443   4.849  18.747  0.00  0.00    +0.000 A 
ATOM     32  C   UNL     1       1.809   5.016  19.990  0.00  0.00    +0.000 A 
ATOM     33  C   UNL     1       1.613   6.287  20.533  0.00  0.00    +0.000 A 
BRANCH  31  34
ATOM     34  C   UNL     1       2.590   3.456  18.228  0.00  0.00    +0.000 C 
ATOM     35  C   UNL     1       3.192   2.369  19.078  0.00  0.00    +0.000 C 
ATOM     36  O   UNL     1       2.182   3.190  17.093  0.00  0.00    +0.000 OA
ENDBRANCH  31  34
ENDBRANCH  26  28
ENDBRANCH  23  24
ENDBRANCH   5  23
TORSDOF 7
ENDMDL
MODEL 8
REMARK VINA RESULT:      -7.1      4.065     12.109
REMARK  Name = 
REMARK  10 active torsions:
REMARK  status: ('A' for Active; 'I' for Inactive)
REMARK    1  A    between atoms: C_1  and  O_2
REMARK    2  A    between atoms: O_2  and  C_3
REMARK    3  A    between atoms: C_6  and  C_7
REMARK    4  A    between atoms: N_11  and  C_12
REMARK    5  A    between atoms: C_12  and  C_13
REMARK    6  A    between atoms: N_15  and  C_16
REMARK    7  A    between atoms: C_19  and  C_20
REMARK    8  A    between atoms: C_20  and  C_21
REMARK    9  A    between atoms: C_33  and  O_34
REMARK   10  A    between atoms: O_34  and  C_35
REMARK                            x       y       z     vdW  Elec       q    Type
REMARK                         _______ _______ _______ _____ _____    ______ ____
ROOT
ATOM      1  C   UNL     1       4.064   4.342  16.814  0.00  0.00    +0.000 C 
ATOM      2  C   UNL     1       3.425   5.636  17.281  0.00  0.00    +0.000 C 
ATOM      3  C   UNL     1       2.206   5.264  18.058  0.00  0.00    +0.000 C 
ATOM      4  O   UNL     1       1.263   4.687  17.533  0.00  0.00    +0.000 OA
ATOM      5  N   UNL     1       2.339   5.410  19.432  0.00  0.00    +0.000 N 
ATOM      6  C   UNL     1       2.369   4.190  20.127  0.00  0.00    +0.000 A 
ATOM      7  C   UNL     1       1.537   4.126  21.294  0.00  0.00    +0.000 A 
ATOM      8  C   UNL     1       1.421   2.962  22.015  0.00  0.00    +0.000 A 
ATOM      9  C   UNL     1       2.165   1.862  21.604  0.00  0.00    +0.000 A 
ATOM     10  C   UNL     1       3.027   1.925  20.473  0.00  0.00    +0.000 A 
ATOM     11  C   UNL     1       3.140   3.089  19.669  0.00  0.00    +0.000 A 
ATOM     12  S   UNL     1       4.511   3.162  18.353  0.00  0.00    +0.000 S 
ENDROOT
BRANCH   1  16
ATOM     13  C   UNL     1       7.446   5.039  13.955  0.00  0.00    +0.000 A 
ATOM     14  C   UNL     1       7.252   5.882  15.068  0.00  0.00    +0.000 A 
ATOM     15  C   UNL     1       6.177   5.714  15.978  0.00  0.00    +0.000 A 
ATOM     16  C   UNL     1       5.229   4.704  15.804  0.00  0.00    +0.000 A 
ATOM     17  C   UNL     1       5.339   3.994  14.567  0.00  0.00    +0.000 A 
ATOM     18  C   UNL     1       6.422   4.142  13.648  0.00  0.00    +0.000 A 
BRANCH  13  20
ATOM     19  C   UNL     1       8.554   6.134  12.169  0.00  0.00    +0.000 C 
ATOM     20  O   UNL     1       8.577   5.120  13.182  0.00  0.00    +0.000 OA
ENDBRANCH  13  20
BRANCH  18  21
ATOM     21  O   UNL     1       6.290   3.327  12.549  0.00  0.00    +0.000 OA
ATOM     22  C   UNL     1       5.070   3.276  11.819  0.00  0.00    +0.000 C 
ENDBRANCH  18  21
ENDBRANCH   1  16
BRANCH   5  23
ATOM     23  C   UNL     1       2.880   6.575  20.120  0.00  0.00    +0.000 C 
BRANCH  23  24
ATOM     24  C   UNL     1       1.905   7.749  20.104  0.00  0.00    +0.000 C 
ATOM     25  O   UNL     1       1.754   8.415  19.082  0.00  0.00    +0.000 OA
ATOM     26  N   UNL     1       1.309   8.028  21.324  0.00  0.00    +0.000 N 
ATOM     27  H   UNL     1       1.810   7.705  22.146  0.00  0.00    +0.000 HD
BRANCH  26  28
ATOM     28  C   UNL     1       0.424   9.103  21.479  0.00  0.00    +0.000 A 
ATOM     29  C   UNL     1      -0.027   9.836  20.373  0.00  0.00    +0.000 A 
ATOM     30  C   UNL     1      -0.826  10.967  20.559  0.00  0.00    +0.000 A 
ATOM     31  C   UNL     1      -1.168  11.382  21.848  0.00  0.00    +0.000 A 
ATOM     32  C   UNL     1      -0.751  10.605  22.942  0.00  0.00    +0.000 A 
ATOM     33  C   UNL     1       0.007   9.448  22.756  0.00  0.00    +0.000 A 
BRANCH  31  34
ATOM     34  C   UNL     1      -1.954  12.618  22.138  0.00  0.00    +0.000 C 
ATOM     35  C   UNL     1      -1.827  13.328  23.460  0.00  0.00    +0.000 C 
ATOM     36  O   UNL     1      -2.697  13.078  21.265  0.00  0.00    +0.000 OA
ENDBRANCH  31  34
ENDBRANCH  26  28
ENDBRANCH  23  24
ENDBRANCH   5  23
TORSDOF 7
ENDMDL
MODEL 9
REMARK VINA RESULT:      -7.1      3.235      9.047
REMARK  Name = 
REMARK  10 active torsions:
REMARK  status: ('A' for Active; 'I' for Inactive)
REMARK    1  A    between atoms: C_1  and  O_2
REMARK    2  A    between atoms: O_2  and  C_3
REMARK    3  A    between atoms: C_6  and  C_7
REMARK    4  A    between atoms: N_11  and  C_12
REMARK    5  A    between atoms: C_12  and  C_13
REMARK    6  A    between atoms: N_15  and  C_16
REMARK    7  A    between atoms: C_19  and  C_20
REMARK    8  A    between atoms: C_20  and  C_21
REMARK    9  A    between atoms: C_33  and  O_34
REMARK   10  A    between atoms: O_34  and  C_35
REMARK                            x       y       z     vdW  Elec       q    Type
REMARK                         _______ _______ _______ _____ _____    ______ ____
ROOT
ATOM      1  C   UNL     1       0.660   9.062  19.337  0.00  0.00    +0.000 C 
ATOM      2  C   UNL     1       0.322   9.985  18.182  0.00  0.00    +0.000 C 
ATOM      3  C   UNL     1      -0.915  10.729  18.566  0.00  0.00    +0.000 C 
ATOM      4  O   UNL     1      -1.977  10.151  18.753  0.00  0.00    +0.000 OA
ATOM      5  N   UNL     1      -0.697  12.054  18.917  0.00  0.00    +0.000 N 
ATOM      6  C   UNL     1      -0.890  12.314  20.283  0.00  0.00    +0.000 A 
ATOM      7  C   UNL     1      -1.669  13.481  20.584  0.00  0.00    +0.000 A 
ATOM      8  C   UNL     1      -1.993  13.799  21.880  0.00  0.00    +0.000 A 
ATOM      9  C   UNL     1      -1.510  12.979  22.894  0.00  0.00    +0.000 A 
ATOM     10  C   UNL     1      -0.701  11.842  22.612  0.00  0.00    +0.000 A 
ATOM     11  C   UNL     1      -0.384  11.447  21.287  0.00  0.00    +0.000 A 
ATOM     12  S   UNL     1       0.917  10.084  21.026  0.00  0.00    +0.000 S 
ENDROOT
BRANCH   1  16
ATOM     13  C   UNL     1       4.097   6.363  18.343  0.00  0.00    +0.000 A 
ATOM     14  C   UNL     1       3.741   7.427  17.491  0.00  0.00    +0.000 A 
ATOM     15  C   UNL     1       2.643   8.283  17.753  0.00  0.00    +0.000 A 
ATOM     16  C   UNL     1       1.831   8.102  18.875  0.00  0.00    +0.000 A 
ATOM     17  C   UNL     1       2.095   6.904  19.610  0.00  0.00    +0.000 A 
ATOM     18  C   UNL     1       3.205   6.038  19.367  0.00  0.00    +0.000 A 
BRANCH  13  20
ATOM     19  C   UNL     1       5.188   4.632  17.147  0.00  0.00    +0.000 C 
ATOM     20  O   UNL     1       5.255   5.649  18.155  0.00  0.00    +0.000 OA
ENDBRANCH  13  20
BRANCH  18  21
ATOM     21  O   UNL     1       3.235   4.969  20.230  0.00  0.00    +0.000 OA
ATOM     22  C   UNL     1       2.070   4.577  20.947  0.00  0.00    +0.000 C 
ENDBRANCH  18  21
ENDBRANCH   1  16
BRANCH   5  23
ATOM     23  C   UNL     1       0.101  13.017  18.169  0.00  0.00    +0.000 C 
BRANCH  23  24
ATOM     24  C   UNL     1       1.512  13.148  18.736  0.00  0.00    +0.000 C 
ATOM     25  O   UNL     1       2.313  12.221  18.623  0.00  0.00    +0.000 OA
ATOM     26  N   UNL     1       1.753  14.319  19.435  0.00  0.00    +0.000 N 
ATOM     27  H   UNL     1       0.935  14.787  19.813  0.00  0.00    +0.000 HD
BRANCH  26  28
ATOM     28  C   UNL     1       2.988  14.565  20.052  0.00  0.00    +0.000 A 
ATOM     29  C   UNL     1       4.049  15.145  19.343  0.00  0.00    +0.000 A 
ATOM     30  C   UNL     1       5.301  15.286  19.947  0.00  0.00    +0.000 A 
ATOM     31  C   UNL     1       5.506  14.836  21.253  0.00  0.00    +0.000 A 
ATOM     32  C   UNL     1       4.417  14.306  21.966  0.00  0.00    +0.000 A 
ATOM     33  C   UNL     1       3.154  14.208  21.381  0.00  0.00    +0.000 A 
BRANCH  31  34
ATOM     34  C   UNL     1       6.829  14.881  21.945  0.00  0.00    +0.000 C 
ATOM     35  C   UNL     1       6.943  14.615  23.424  0.00  0.00    +0.000 C 
ATOM     36  O   UNL     1       7.847  15.111  21.285  0.00  0.00    +0.000 OA
ENDBRANCH  31  34
ENDBRANCH  26  28
ENDBRANCH  23  24
ENDBRANCH   5  23
TORSDOF 7
ENDMDL
