MODEL 1
REMARK VINA RESULT:      -7.5      0.000      0.000
REMARK  Name = 
REMARK  11 active torsions:
REMARK  status: ('A' for Active; 'I' for Inactive)
REMARK    1  A    between atoms: C_1  and  O_2
REMARK    2  A    between atoms: O_2  and  C_3
REMARK    3  A    between atoms: C_4  and  O_5
REMARK    4  A    between atoms: O_5  and  C_6
REMARK    5  A    between atoms: C_11  and  C_12
REMARK    6  A    between atoms: C_16  and  N_17
REMARK    7  A    between atoms: C_27  and  O_29
REMARK    8  A    between atoms: O_29  and  C_30
REMARK    9  A    between atoms: C_30  and  C_31
REMARK   10  A    between atoms: C_30  and  C_32
REMARK   11  A    between atoms: C_30  and  C_33
REMARK                            x       y       z     vdW  Elec       q    Type
REMARK                         _______ _______ _______ _____ _____    ______ ____
ROOT
ATOM      1  N   UNL     1       0.723  10.967  19.112  0.00  0.00    +0.000 N 
ATOM      2  C   UNL     1      -0.723  11.178  19.318  0.00  0.00    +0.000 C 
ATOM      3  C   UNL     1      -1.176  12.325  18.373  0.00  0.00    +0.000 C 
ATOM      4  C   UNL     1      -0.336  13.574  18.643  0.00  0.00    +0.000 C 
ATOM      5  C   UNL     1       1.158  13.256  18.466  0.00  0.00    +0.000 C 
ATOM      6  C   UNL     1       1.553  12.150  19.458  0.00  0.00    +0.000 C 
ATOM      7  C   UNL     1       1.269  12.625  20.896  0.00  0.00    +0.000 C 
ATOM      8  C   UNL     1      -0.220  12.951  21.022  0.00  0.00    +0.000 C 
ATOM      9  C   UNL     1      -1.005  11.660  20.757  0.00  0.00    +0.000 C 
ATOM     10  N   UNL     1      -0.575  13.974  20.026  0.00  0.00    +0.000 N 
ATOM     11  C   UNL     1      -0.936  15.243  20.415  0.00  0.00    +0.000 C 
ATOM     12  O   UNL     1      -0.971  15.577  21.597  0.00  0.00    +0.000 OA
ENDROOT
BRANCH   1  18
ATOM     13  C   UNL     1       1.381   8.659  19.817  0.00  0.00    +0.000 A 
ATOM     14  C   UNL     1       2.090   7.517  19.387  0.00  0.00    +0.000 A 
ATOM     15  N   UNL     1       2.677   7.397  18.188  0.00  0.00    +0.000 NA
ATOM     16  C   UNL     1       2.606   8.473  17.422  0.00  0.00    +0.000 A 
ATOM     17  N   UNL     1       1.996   9.626  17.738  0.00  0.00    +0.000 NA
ATOM     18  C   UNL     1       1.374   9.752  18.935  0.00  0.00    +0.000 A 
BRANCH  13  20
ATOM     19  C   UNL     1       1.432   9.162  22.136  0.00  0.00    +0.000 C 
ATOM     20  O   UNL     1       0.804   8.515  21.048  0.00  0.00    +0.000 OA
ENDBRANCH  13  20
BRANCH  14  21
ATOM     21  O   UNL     1       2.076   6.388  20.214  0.00  0.00    +0.000 OA
BRANCH  21  22
ATOM     22  C   UNL     1       2.857   5.304  19.863  0.00  0.00    +0.000 A 
ATOM     23  C   UNL     1       4.213   5.416  19.545  0.00  0.00    +0.000 A 
ATOM     24  C   UNL     1       4.959   4.276  19.259  0.00  0.00    +0.000 A 
ATOM     25  C   UNL     1       4.332   3.047  19.335  0.00  0.00    +0.000 A 
ATOM     26  N   UNL     1       3.031   2.892  19.654  0.00  0.00    +0.000 NA
ATOM     27  C   UNL     1       2.307   4.017  19.915  0.00  0.00    +0.000 A 
ATOM     28  C   UNL     1       0.860   3.782  20.245  0.00  0.00    +0.000 C 
ENDBRANCH  21  22
ENDBRANCH  14  21
ENDBRANCH   1  18
BRANCH  11  29
ATOM     29  O   UNL     1      -1.264  16.060  19.372  0.00  0.00    +0.000 OA
BRANCH  29  30
ATOM     30  C   UNL     1      -0.438  17.241  19.125  0.00  0.00    +0.000 C 
ATOM     31  C   UNL     1       1.036  16.943  19.428  0.00  0.00    +0.000 C 
ATOM     32  C   UNL     1      -0.557  17.557  17.622  0.00  0.00    +0.000 C 
ATOM     33  C   UNL     1      -0.966  18.462  19.894  0.00  0.00    +0.000 C 
ENDBRANCH  29  30
ENDBRANCH  11  29
TORSDOF 6
ENDMDL
MODEL 2
REMARK VINA RESULT:      -7.2      0.595      1.336
REMARK  Name = 
REMARK  11 active torsions:
REMARK  status: ('A' for Active; 'I' for Inactive)
REMARK    1  A    between atoms: C_1  and  O_2
REMARK    2  A    between atoms: O_2  and  C_3
REMARK    3  A    between atoms: C_4  and  O_5
REMARK    4  A    between atoms: O_5  and  C_6
REMARK    5  A    between atoms: C_11  and  C_12
REMARK    6  A    between atoms: C_16  and  N_17
REMARK    7  A    between atoms: C_27  and  O_29
REMARK    8  A    between atoms: O_29  and  C_30
REMARK    9  A    between atoms: C_30  and  C_31
REMARK   10  A    between atoms: C_30  and  C_32
REMARK   11  A    between atoms: C_30  and  C_33
REMARK                            x       y       z     vdW  Elec       q    Type
REMARK                         _______ _______ _______ _____ _____    ______ ____
ROOT
ATOM      1  N   UNL     1       0.646  10.877  19.090  0.00  0.00    +0.000 N 
ATOM      2  C   UNL     1      -0.809  11.110  19.185  0.00  0.00    +0.000 C 
ATOM      3  C   UNL     1      -1.170  12.269  18.216  0.00  0.00    +0.000 C 
ATOM      4  C   UNL     1      -0.333  13.503  18.558  0.00  0.00    +0.000 C 
ATOM      5  C   UNL     1       1.166  13.161  18.494  0.00  0.00    +0.000 C 
ATOM      6  C   UNL     1       1.466  12.044  19.506  0.00  0.00    +0.000 C 
ATOM      7  C   UNL     1       1.080  12.516  20.921  0.00  0.00    +0.000 C 
ATOM      8  C   UNL     1      -0.409  12.865  20.935  0.00  0.00    +0.000 C 
ATOM      9  C   UNL     1      -1.192  11.589  20.602  0.00  0.00    +0.000 C 
ATOM     10  N   UNL     1      -0.671  13.900  19.922  0.00  0.00    +0.000 N 
ATOM     11  C   UNL     1      -1.040  15.172  20.290  0.00  0.00    +0.000 C 
ATOM     12  O   UNL     1      -1.161  15.500  21.468  0.00  0.00    +0.000 OA
ENDROOT
BRANCH   1  18
ATOM     13  C   UNL     1       1.529   8.706  19.964  0.00  0.00    +0.000 A 
ATOM     14  C   UNL     1       2.171   7.515  19.562  0.00  0.00    +0.000 A 
ATOM     15  N   UNL     1       2.488   7.217  18.294  0.00  0.00    +0.000 NA
ATOM     16  C   UNL     1       2.211   8.164  17.412  0.00  0.00    +0.000 A 
ATOM     17  N   UNL     1       1.640   9.349  17.682  0.00  0.00    +0.000 NA
ATOM     18  C   UNL     1       1.289   9.652  18.954  0.00  0.00    +0.000 A 
BRANCH  13  20
ATOM     19  C   UNL     1      -0.095   8.471  21.679  0.00  0.00    +0.000 C 
ATOM     20  O   UNL     1       1.238   8.748  21.300  0.00  0.00    +0.000 OA
ENDBRANCH  13  20
BRANCH  14  21
ATOM     21  O   UNL     1       2.379   6.525  20.529  0.00  0.00    +0.000 OA
BRANCH  21  22
ATOM     22  C   UNL     1       2.212   5.204  20.165  0.00  0.00    +0.000 A 
ATOM     23  C   UNL     1       0.973   4.559  20.190  0.00  0.00    +0.000 A 
ATOM     24  C   UNL     1       0.861   3.242  19.752  0.00  0.00    +0.000 A 
ATOM     25  C   UNL     1       1.993   2.617  19.265  0.00  0.00    +0.000 A 
ATOM     26  N   UNL     1       3.205   3.206  19.206  0.00  0.00    +0.000 NA
ATOM     27  C   UNL     1       3.304   4.490  19.654  0.00  0.00    +0.000 A 
ATOM     28  C   UNL     1       4.681   5.085  19.582  0.00  0.00    +0.000 C 
ENDBRANCH  21  22
ENDBRANCH  14  21
ENDBRANCH   1  18
BRANCH  11  29
ATOM     29  O   UNL     1      -1.274  16.001  19.231  0.00  0.00    +0.000 OA
BRANCH  29  30
ATOM     30  C   UNL     1      -0.427  17.182  19.069  0.00  0.00    +0.000 C 
ATOM     31  C   UNL     1       1.033  16.849  19.401  0.00  0.00    +0.000 C 
ATOM     32  C   UNL     1      -0.497  17.574  17.581  0.00  0.00    +0.000 C 
ATOM     33  C   UNL     1      -0.964  18.368  19.883  0.00  0.00    +0.000 C 
ENDBRANCH  29  30
ENDBRANCH  11  29
TORSDOF 6
ENDMDL
MODEL 3
REMARK VINA RESULT:      -7.0      1.342      2.357
REMARK  Name = 
REMARK  11 active torsions:
REMARK  status: ('A' for Active; 'I' for Inactive)
REMARK    1  A    between atoms: C_1  and  O_2
REMARK    2  A    between atoms: O_2  and  C_3
REMARK    3  A    between atoms: C_4  and  O_5
REMARK    4  A    between atoms: O_5  and  C_6
REMARK    5  A    between atoms: C_11  and  C_12
REMARK    6  A    between atoms: C_16  and  N_17
REMARK    7  A    between atoms: C_27  and  O_29
REMARK    8  A    between atoms: O_29  and  C_30
REMARK    9  A    between atoms: C_30  and  C_31
REMARK   10  A    between atoms: C_30  and  C_32
REMARK   11  A    between atoms: C_30  and  C_33
REMARK                            x       y       z     vdW  Elec       q    Type
REMARK                         _______ _______ _______ _____ _____    ______ ____
ROOT
ATOM      1  N   UNL     1       0.516  11.023  19.876  0.00  0.00    +0.000 N 
ATOM      2  C   UNL     1       0.914  11.930  20.971  0.00  0.00    +0.000 C 
ATOM      3  C   UNL     1      -0.361  12.279  21.786  0.00  0.00    +0.000 C 
ATOM      4  C   UNL     1      -1.418  12.877  20.856  0.00  0.00    +0.000 C 
ATOM      5  C   UNL     1      -1.732  11.897  19.712  0.00  0.00    +0.000 C 
ATOM      6  C   UNL     1      -0.443  11.630  18.918  0.00  0.00    +0.000 C 
ATOM      7  C   UNL     1       0.099  12.959  18.357  0.00  0.00    +0.000 C 
ATOM      8  C   UNL     1       0.377  13.909  19.523  0.00  0.00    +0.000 C 
ATOM      9  C   UNL     1       1.451  13.263  20.407  0.00  0.00    +0.000 C 
ATOM     10  N   UNL     1      -0.863  14.104  20.291  0.00  0.00    +0.000 N 
ATOM     11  C   UNL     1      -1.500  15.322  20.308  0.00  0.00    +0.000 C 
ATOM     12  O   UNL     1      -1.072  16.289  19.683  0.00  0.00    +0.000 OA
ENDROOT
BRANCH   1  18
ATOM     13  C   UNL     1       1.337   8.696  20.288  0.00  0.00    +0.000 A 
ATOM     14  C   UNL     1       1.974   7.606  19.657  0.00  0.00    +0.000 A 
ATOM     15  N   UNL     1       2.329   7.581  18.364  0.00  0.00    +0.000 NA
ATOM     16  C   UNL     1       2.096   8.701  17.700  0.00  0.00    +0.000 A 
ATOM     17  N   UNL     1       1.534   9.812  18.202  0.00  0.00    +0.000 NA
ATOM     18  C   UNL     1       1.145   9.842  19.499  0.00  0.00    +0.000 A 
BRANCH  13  20
ATOM     19  C   UNL     1      -0.371   8.484  21.921  0.00  0.00    +0.000 C 
ATOM     20  O   UNL     1       1.002   8.456  21.592  0.00  0.00    +0.000 OA
ENDBRANCH  13  20
BRANCH  14  21
ATOM     21  O   UNL     1       2.135   6.427  20.393  0.00  0.00    +0.000 OA
BRANCH  21  22
ATOM     22  C   UNL     1       2.894   5.410  19.850  0.00  0.00    +0.000 A 
ATOM     23  C   UNL     1       4.232   5.573  19.482  0.00  0.00    +0.000 A 
ATOM     24  C   UNL     1       4.961   4.491  18.996  0.00  0.00    +0.000 A 
ATOM     25  C   UNL     1       4.336   3.260  18.926  0.00  0.00    +0.000 A 
ATOM     26  N   UNL     1       3.053   3.053  19.287  0.00  0.00    +0.000 NA
ATOM     27  C   UNL     1       2.345   4.125  19.744  0.00  0.00    +0.000 A 
ATOM     28  C   UNL     1       0.918   3.837  20.111  0.00  0.00    +0.000 C 
ENDBRANCH  21  22
ENDBRANCH  14  21
ENDBRANCH   1  18
BRANCH  11  29
ATOM     29  O   UNL     1      -2.618  15.343  21.091  0.00  0.00    +0.000 OA
BRANCH  29  30
ATOM     30  C   UNL     1      -2.543  15.999  22.396  0.00  0.00    +0.000 C 
ATOM     31  C   UNL     1      -3.152  17.405  22.330  0.00  0.00    +0.000 C 
ATOM     32  C   UNL     1      -3.397  15.158  23.363  0.00  0.00    +0.000 C 
ATOM     33  C   UNL     1      -1.105  16.001  22.936  0.00  0.00    +0.000 C 
ENDBRANCH  29  30
ENDBRANCH  11  29
TORSDOF 6
ENDMDL
MODEL 4
REMARK VINA RESULT:      -7.0      0.866      1.030
REMARK  Name = 
REMARK  11 active torsions:
REMARK  status: ('A' for Active; 'I' for Inactive)
REMARK    1  A    between atoms: C_1  and  O_2
REMARK    2  A    between atoms: O_2  and  C_3
REMARK    3  A    between atoms: C_4  and  O_5
REMARK    4  A    between atoms: O_5  and  C_6
REMARK    5  A    between atoms: C_11  and  C_12
REMARK    6  A    between atoms: C_16  and  N_17
REMARK    7  A    between atoms: C_27  and  O_29
REMARK    8  A    between atoms: O_29  and  C_30
REMARK    9  A    between atoms: C_30  and  C_31
REMARK   10  A    between atoms: C_30  and  C_32
REMARK   11  A    between atoms: C_30  and  C_33
REMARK                            x       y       z     vdW  Elec       q    Type
REMARK                         _______ _______ _______ _____ _____    ______ ____
ROOT
ATOM      1  N   UNL     1       0.782  10.854  19.119  0.00  0.00    +0.000 N 
ATOM      2  C   UNL     1      -0.675  11.025  19.287  0.00  0.00    +0.000 C 
ATOM      3  C   UNL     1      -1.129  12.184  18.358  0.00  0.00    +0.000 C 
ATOM      4  C   UNL     1      -0.329  13.446  18.684  0.00  0.00    +0.000 C 
ATOM      5  C   UNL     1       1.178  13.169  18.543  0.00  0.00    +0.000 C 
ATOM      6  C   UNL     1       1.572  12.047  19.518  0.00  0.00    +0.000 C 
ATOM      7  C   UNL     1       1.235  12.479  20.958  0.00  0.00    +0.000 C 
ATOM      8  C   UNL     1      -0.265  12.765  21.049  0.00  0.00    +0.000 C 
ATOM      9  C   UNL     1      -1.009  11.462  20.729  0.00  0.00    +0.000 C 
ATOM     10  N   UNL     1      -0.617  13.804  20.069  0.00  0.00    +0.000 N 
ATOM     11  C   UNL     1      -1.020  15.053  20.479  0.00  0.00    +0.000 C 
ATOM     12  O   UNL     1      -1.098  15.356  21.667  0.00  0.00    +0.000 OA
ENDROOT
BRANCH   1  18
ATOM     13  C   UNL     1       1.442   8.529  19.762  0.00  0.00    +0.000 A 
ATOM     14  C   UNL     1       2.200   7.420  19.329  0.00  0.00    +0.000 A 
ATOM     15  N   UNL     1       2.864   7.365  18.165  0.00  0.00    +0.000 NA
ATOM     16  C   UNL     1       2.819   8.473  17.444  0.00  0.00    +0.000 A 
ATOM     17  N   UNL     1       2.166   9.600  17.771  0.00  0.00    +0.000 NA
ATOM     18  C   UNL     1       1.468   9.660  18.930  0.00  0.00    +0.000 A 
BRANCH  13  20
ATOM     19  C   UNL     1       1.316   8.957  22.093  0.00  0.00    +0.000 C 
ATOM     20  O   UNL     1       0.792   8.319  20.946  0.00  0.00    +0.000 OA
ENDBRANCH  13  20
BRANCH  14  21
ATOM     21  O   UNL     1       2.158   6.255  20.102  0.00  0.00    +0.000 OA
BRANCH  21  22
ATOM     22  C   UNL     1       2.034   5.040  19.458  0.00  0.00    +0.000 A 
ATOM     23  C   UNL     1       1.906   4.925  18.071  0.00  0.00    +0.000 A 
ATOM     24  C   UNL     1       1.846   3.667  17.477  0.00  0.00    +0.000 A 
ATOM     25  C   UNL     1       1.953   2.555  18.290  0.00  0.00    +0.000 A 
ATOM     26  N   UNL     1       2.095   2.619  19.629  0.00  0.00    +0.000 NA
ATOM     27  C   UNL     1       2.134   3.857  20.200  0.00  0.00    +0.000 A 
ATOM     28  C   UNL     1       2.272   3.864  21.696  0.00  0.00    +0.000 C 
ENDBRANCH  21  22
ENDBRANCH  14  21
ENDBRANCH   1  18
BRANCH  11  29
ATOM     29  O   UNL     1      -1.339  15.889  19.448  0.00  0.00    +0.000 OA
BRANCH  29  30
ATOM     30  C   UNL     1      -0.526  17.088  19.245  0.00  0.00    +0.000 C 
ATOM     31  C   UNL     1       0.934  16.823  19.634  0.00  0.00    +0.000 C 
ATOM     32  C   UNL     1      -0.564  17.397  17.737  0.00  0.00    +0.000 C 
ATOM     33  C   UNL     1      -1.125  18.298  19.978  0.00  0.00    +0.000 C 
ENDBRANCH  29  30
ENDBRANCH  11  29
TORSDOF 6
ENDMDL
MODEL 5
REMARK VINA RESULT:      -6.9      1.638      2.843
REMARK  Name = 
REMARK  11 active torsions:
REMARK  status: ('A' for Active; 'I' for Inactive)
REMARK    1  A    between atoms: C_1  and  O_2
REMARK    2  A    between atoms: O_2  and  C_3
REMARK    3  A    between atoms: C_4  and  O_5
REMARK    4  A    between atoms: O_5  and  C_6
REMARK    5  A    between atoms: C_11  and  C_12
REMARK    6  A    between atoms: C_16  and  N_17
REMARK    7  A    between atoms: C_27  and  O_29
REMARK    8  A    between atoms: O_29  and  C_30
REMARK    9  A    between atoms: C_30  and  C_31
REMARK   10  A    between atoms: C_30  and  C_32
REMARK   11  A    between atoms: C_30  and  C_33
REMARK                            x       y       z     vdW  Elec       q    Type
REMARK                         _______ _______ _______ _____ _____    ______ ____
ROOT
ATOM      1  N   UNL     1       0.489  10.784  19.850  0.00  0.00    +0.000 N 
ATOM      2  C   UNL     1       0.739  11.577  21.070  0.00  0.00    +0.000 C 
ATOM      3  C   UNL     1      -0.620  11.776  21.795  0.00  0.00    +0.000 C 
ATOM      4  C   UNL     1      -1.620  12.430  20.841  0.00  0.00    +0.000 C 
ATOM      5  C   UNL     1      -1.779  11.574  19.572  0.00  0.00    +0.000 C 
ATOM      6  C   UNL     1      -0.413  11.454  18.878  0.00  0.00    +0.000 C 
ATOM      7  C   UNL     1       0.106  12.860  18.519  0.00  0.00    +0.000 C 
ATOM      8  C   UNL     1       0.228  13.683  19.803  0.00  0.00    +0.000 C 
ATOM      9  C   UNL     1       1.253  12.987  20.708  0.00  0.00    +0.000 C 
ATOM     10  N   UNL     1      -1.083  13.735  20.468  0.00  0.00    +0.000 N 
ATOM     11  C   UNL     1      -1.783  14.915  20.558  0.00  0.00    +0.000 C 
ATOM     12  O   UNL     1      -1.353  15.965  20.086  0.00  0.00    +0.000 OA
ENDROOT
BRANCH   1  18
ATOM     13  C   UNL     1       1.504   8.515  20.132  0.00  0.00    +0.000 A 
ATOM     14  C   UNL     1       2.224   7.517  19.440  0.00  0.00    +0.000 A 
ATOM     15  N   UNL     1       2.568   7.591  18.146  0.00  0.00    +0.000 NA
ATOM     16  C   UNL     1       2.237   8.721  17.544  0.00  0.00    +0.000 A 
ATOM     17  N   UNL     1       1.589   9.753  18.108  0.00  0.00    +0.000 NA
ATOM     18  C   UNL     1       1.210   9.681  19.407  0.00  0.00    +0.000 A 
BRANCH  13  20
ATOM     19  C   UNL     1      -0.166   8.102  21.766  0.00  0.00    +0.000 C 
ATOM     20  O   UNL     1       1.202   8.178  21.422  0.00  0.00    +0.000 OA
ENDBRANCH  13  20
BRANCH  14  21
ATOM     21  O   UNL     1       2.489   6.318  20.111  0.00  0.00    +0.000 OA
BRANCH  21  22
ATOM     22  C   UNL     1       2.528   5.148  19.378  0.00  0.00    +0.000 A 
ATOM     23  C   UNL     1       1.378   4.479  18.953  0.00  0.00    +0.000 A 
ATOM     24  C   UNL     1       1.485   3.337  18.164  0.00  0.00    +0.000 A 
ATOM     25  C   UNL     1       2.747   2.915  17.792  0.00  0.00    +0.000 A 
ATOM     26  N   UNL     1       3.883   3.540  18.165  0.00  0.00    +0.000 NA
ATOM     27  C   UNL     1       3.765   4.647  18.952  0.00  0.00    +0.000 A 
ATOM     28  C   UNL     1       5.064   5.287  19.351  0.00  0.00    +0.000 C 
ENDBRANCH  21  22
ENDBRANCH  14  21
ENDBRANCH   1  18
BRANCH  11  29
ATOM     29  O   UNL     1      -2.965  14.799  21.230  0.00  0.00    +0.000 OA
BRANCH  29  30
ATOM     30  C   UNL     1      -3.028  15.262  22.616  0.00  0.00    +0.000 C 
ATOM     31  C   UNL     1      -3.779  16.597  22.706  0.00  0.00    +0.000 C 
ATOM     32  C   UNL     1      -3.837  14.211  23.397  0.00  0.00    +0.000 C 
ATOM     33  C   UNL     1      -1.628  15.326  23.246  0.00  0.00    +0.000 C 
ENDBRANCH  29  30
ENDBRANCH  11  29
TORSDOF 6
ENDMDL
MODEL 6
REMARK VINA RESULT:      -6.9      1.993      3.330
REMARK  Name = 
REMARK  11 active torsions:
REMARK  status: ('A' for Active; 'I' for Inactive)
REMARK    1  A    between atoms: C_1  and  O_2
REMARK    2  A    between atoms: O_2  and  C_3
REMARK    3  A    between atoms: C_4  and  O_5
REMARK    4  A    between atoms: O_5  and  C_6
REMARK    5  A    between atoms: C_11  and  C_12
REMARK    6  A    between atoms: C_16  and  N_17
REMARK    7  A    between atoms: C_27  and  O_29
REMARK    8  A    between atoms: O_29  and  C_30
REMARK    9  A    between atoms: C_30  and  C_31
REMARK   10  A    between atoms: C_30  and  C_32
REMARK   11  A    between atoms: C_30  and  C_33
REMARK                            x       y       z     vdW  Elec       q    Type
REMARK                         _______ _______ _______ _____ _____    ______ ____
ROOT
ATOM      1  N   UNL     1       0.512  10.876  19.967  0.00  0.00    +0.000 N 
ATOM      2  C   UNL     1       0.844  12.304  19.794  0.00  0.00    +0.000 C 
ATOM      3  C   UNL     1       0.733  12.989  21.184  0.00  0.00    +0.000 C 
ATOM      4  C   UNL     1      -0.664  12.756  21.761  0.00  0.00    +0.000 C 
ATOM      5  C   UNL     1      -0.954  11.248  21.852  0.00  0.00    +0.000 C 
ATOM      6  C   UNL     1      -0.875  10.639  20.443  0.00  0.00    +0.000 C 
ATOM      7  C   UNL     1      -1.901  11.332  19.526  0.00  0.00    +0.000 C 
ATOM      8  C   UNL     1      -1.591  12.829  19.481  0.00  0.00    +0.000 C 
ATOM      9  C   UNL     1      -0.189  12.997  18.880  0.00  0.00    +0.000 C 
ATOM     10  N   UNL     1      -1.624  13.370  20.849  0.00  0.00    +0.000 N 
ATOM     11  C   UNL     1      -2.605  14.253  21.235  0.00  0.00    +0.000 C 
ATOM     12  O   UNL     1      -3.490  14.621  20.466  0.00  0.00    +0.000 OA
ENDROOT
BRANCH   1  18
ATOM     13  C   UNL     1       1.507   8.587  20.133  0.00  0.00    +0.000 A 
ATOM     14  C   UNL     1       2.208   7.614  19.388  0.00  0.00    +0.000 A 
ATOM     15  N   UNL     1       2.537   7.743  18.094  0.00  0.00    +0.000 NA
ATOM     16  C   UNL     1       2.210   8.902  17.548  0.00  0.00    +0.000 A 
ATOM     17  N   UNL     1       1.580   9.914  18.166  0.00  0.00    +0.000 NA
ATOM     18  C   UNL     1       1.217   9.787  19.465  0.00  0.00    +0.000 A 
BRANCH  13  20
ATOM     19  C   UNL     1       1.698   9.010  22.460  0.00  0.00    +0.000 C 
ATOM     20  O   UNL     1       1.218   8.195  21.411  0.00  0.00    +0.000 OA
ENDBRANCH  13  20
BRANCH  14  21
ATOM     21  O   UNL     1       2.470   6.383  20.000  0.00  0.00    +0.000 OA
BRANCH  21  22
ATOM     22  C   UNL     1       2.556   5.257  19.206  0.00  0.00    +0.000 A 
ATOM     23  C   UNL     1       1.435   4.608  18.684  0.00  0.00    +0.000 A 
ATOM     24  C   UNL     1       1.592   3.513  17.839  0.00  0.00    +0.000 A 
ATOM     25  C   UNL     1       2.875   3.119  17.510  0.00  0.00    +0.000 A 
ATOM     26  N   UNL     1       3.985   3.727  17.977  0.00  0.00    +0.000 NA
ATOM     27  C   UNL     1       3.817   4.788  18.817  0.00  0.00    +0.000 A 
ATOM     28  C   UNL     1       5.088   5.410  19.320  0.00  0.00    +0.000 C 
ENDBRANCH  21  22
ENDBRANCH  14  21
ENDBRANCH   1  18
BRANCH  11  29
ATOM     29  O   UNL     1      -2.476  14.682  22.525  0.00  0.00    +0.000 OA
BRANCH  29  30
ATOM     30  C   UNL     1      -3.550  14.382  23.470  0.00  0.00    +0.000 C 
ATOM     31  C   UNL     1      -4.006  12.924  23.326  0.00  0.00    +0.000 C 
ATOM     32  C   UNL     1      -2.959  14.555  24.881  0.00  0.00    +0.000 C 
ATOM     33  C   UNL     1      -4.709  15.381  23.332  0.00  0.00    +0.000 C 
ENDBRANCH  29  30
ENDBRANCH  11  29
TORSDOF 6
ENDMDL
MODEL 7
REMARK VINA RESULT:      -6.8      0.946      1.060
REMARK  Name = 
REMARK  11 active torsions:
REMARK  status: ('A' for Active; 'I' for Inactive)
REMARK    1  A    between atoms: C_1  and  O_2
REMARK    2  A    between atoms: O_2  and  C_3
REMARK    3  A    between atoms: C_4  and  O_5
REMARK    4  A    between atoms: O_5  and  C_6
REMARK    5  A    between atoms: C_11  and  C_12
REMARK    6  A    between atoms: C_16  and  N_17
REMARK    7  A    between atoms: C_27  and  O_29
REMARK    8  A    between atoms: O_29  and  C_30
REMARK    9  A    between atoms: C_30  and  C_31
REMARK   10  A    between atoms: C_30  and  C_32
REMARK   11  A    between atoms: C_30  and  C_33
REMARK                            x       y       z     vdW  Elec       q    Type
REMARK                         _______ _______ _______ _____ _____    ______ ____
ROOT
ATOM      1  N   UNL     1       0.648  11.032  19.292  0.00  0.00    +0.000 N 
ATOM      2  C   UNL     1      -0.663  11.458  18.765  0.00  0.00    +0.000 C 
ATOM      3  C   UNL     1      -0.507  12.901  18.211  0.00  0.00    +0.000 C 
ATOM      4  C   UNL     1       0.032  13.817  19.311  0.00  0.00    +0.000 C 
ATOM      5  C   UNL     1       1.367  13.272  19.847  0.00  0.00    +0.000 C 
ATOM      6  C   UNL     1       1.137  11.864  20.421  0.00  0.00    +0.000 C 
ATOM      7  C   UNL     1       0.091  11.936  21.550  0.00  0.00    +0.000 C 
ATOM      8  C   UNL     1      -1.211  12.502  20.981  0.00  0.00    +0.000 C 
ATOM      9  C   UNL     1      -1.707  11.535  19.899  0.00  0.00    +0.000 C 
ATOM     10  N   UNL     1      -0.946  13.826  20.395  0.00  0.00    +0.000 N 
ATOM     11  C   UNL     1      -1.465  14.966  20.961  0.00  0.00    +0.000 C 
ATOM     12  O   UNL     1      -2.161  14.932  21.973  0.00  0.00    +0.000 OA
ENDROOT
BRANCH   1  18
ATOM     13  C   UNL     1       1.432   8.753  19.962  0.00  0.00    +0.000 A 
ATOM     14  C   UNL     1       2.094   7.607  19.471  0.00  0.00    +0.000 A 
ATOM     15  N   UNL     1       2.515   7.460  18.206  0.00  0.00    +0.000 NA
ATOM     16  C   UNL     1       2.324   8.513  17.429  0.00  0.00    +0.000 A 
ATOM     17  N   UNL     1       1.744   9.667  17.794  0.00  0.00    +0.000 NA
ATOM     18  C   UNL     1       1.288   9.819  19.061  0.00  0.00    +0.000 A 
BRANCH  13  20
ATOM     19  C   UNL     1      -0.347   8.420  21.496  0.00  0.00    +0.000 C 
ATOM     20  O   UNL     1       1.029   8.636  21.264  0.00  0.00    +0.000 OA
ENDBRANCH  13  20
BRANCH  14  21
ATOM     21  O   UNL     1       2.210   6.502  20.322  0.00  0.00    +0.000 OA
BRANCH  21  22
ATOM     22  C   UNL     1       2.937   5.411  19.889  0.00  0.00    +0.000 A 
ATOM     23  C   UNL     1       4.284   5.490  19.528  0.00  0.00    +0.000 A 
ATOM     24  C   UNL     1       4.978   4.341  19.158  0.00  0.00    +0.000 A 
ATOM     25  C   UNL     1       4.308   3.133  19.196  0.00  0.00    +0.000 A 
ATOM     26  N   UNL     1       3.014   3.007  19.556  0.00  0.00    +0.000 NA
ATOM     27  C   UNL     1       2.342   4.143  19.898  0.00  0.00    +0.000 A 
ATOM     28  C   UNL     1       0.900   3.943  20.269  0.00  0.00    +0.000 C 
ENDBRANCH  21  22
ENDBRANCH  14  21
ENDBRANCH   1  18
BRANCH  11  29
ATOM     29  O   UNL     1      -1.150  16.106  20.280  0.00  0.00    +0.000 OA
BRANCH  29  30
ATOM     30  C   UNL     1      -0.291  17.093  20.931  0.00  0.00    +0.000 C 
ATOM     31  C   UNL     1       0.687  16.407  21.894  0.00  0.00    +0.000 C 
ATOM     32  C   UNL     1       0.535  17.764  19.817  0.00  0.00    +0.000 C 
ATOM     33  C   UNL     1      -1.120  18.191  21.613  0.00  0.00    +0.000 C 
ENDBRANCH  29  30
ENDBRANCH  11  29
TORSDOF 6
ENDMDL
MODEL 8
REMARK VINA RESULT:      -6.8      1.854      2.982
REMARK  Name = 
REMARK  11 active torsions:
REMARK  status: ('A' for Active; 'I' for Inactive)
REMARK    1  A    between atoms: C_1  and  O_2
REMARK    2  A    between atoms: O_2  and  C_3
REMARK    3  A    between atoms: C_4  and  O_5
REMARK    4  A    between atoms: O_5  and  C_6
REMARK    5  A    between atoms: C_11  and  C_12
REMARK    6  A    between atoms: C_16  and  N_17
REMARK    7  A    between atoms: C_27  and  O_29
REMARK    8  A    between atoms: O_29  and  C_30
REMARK    9  A    between atoms: C_30  and  C_31
REMARK   10  A    between atoms: C_30  and  C_32
REMARK   11  A    between atoms: C_30  and  C_33
REMARK                            x       y       z     vdW  Elec       q    Type
REMARK                         _______ _______ _______ _____ _____    ______ ____
ROOT
ATOM      1  N   UNL     1       0.441  11.160  20.213  0.00  0.00    +0.000 N 
ATOM      2  C   UNL     1       0.921  12.546  20.039  0.00  0.00    +0.000 C 
ATOM      3  C   UNL     1       0.856  13.250  21.422  0.00  0.00    +0.000 C 
ATOM      4  C   UNL     1      -0.568  13.165  21.974  0.00  0.00    +0.000 C 
ATOM      5  C   UNL     1      -1.013  11.696  22.069  0.00  0.00    +0.000 C 
ATOM      6  C   UNL     1      -0.971  11.070  20.665  0.00  0.00    +0.000 C 
ATOM      7  C   UNL     1      -1.904  11.857  19.726  0.00  0.00    +0.000 C 
ATOM      8  C   UNL     1      -1.442  13.314  19.677  0.00  0.00    +0.000 C 
ATOM      9  C   UNL     1      -0.020  13.334  19.102  0.00  0.00    +0.000 C 
ATOM     10  N   UNL     1      -1.445  13.866  21.041  0.00  0.00    +0.000 N 
ATOM     11  C   UNL     1      -2.336  14.848  21.403  0.00  0.00    +0.000 C 
ATOM     12  O   UNL     1      -3.165  15.299  20.616  0.00  0.00    +0.000 OA
ENDROOT
BRANCH   1  18
ATOM     13  C   UNL     1       1.235   8.798  20.427  0.00  0.00    +0.000 A 
ATOM     14  C   UNL     1       1.836   7.749  19.699  0.00  0.00    +0.000 A 
ATOM     15  N   UNL     1       2.154   7.815  18.398  0.00  0.00    +0.000 NA
ATOM     16  C   UNL     1       1.920   8.984  17.826  0.00  0.00    +0.000 A 
ATOM     17  N   UNL     1       1.392  10.063  18.425  0.00  0.00    +0.000 NA
ATOM     18  C   UNL     1       1.040  10.002  19.731  0.00  0.00    +0.000 A 
BRANCH  13  20
ATOM     19  C   UNL     1       1.571   9.205  22.741  0.00  0.00    +0.000 C 
ATOM     20  O   UNL     1       0.934   8.466  21.719  0.00  0.00    +0.000 OA
ENDBRANCH  13  20
BRANCH  14  21
ATOM     21  O   UNL     1       1.999   6.516  20.341  0.00  0.00    +0.000 OA
BRANCH  21  22
ATOM     22  C   UNL     1       2.803   5.564  19.745  0.00  0.00    +0.000 A 
ATOM     23  C   UNL     1       4.123   5.816  19.362  0.00  0.00    +0.000 A 
ATOM     24  C   UNL     1       4.901   4.795  18.822  0.00  0.00    +0.000 A 
ATOM     25  C   UNL     1       4.343   3.536  18.714  0.00  0.00    +0.000 A 
ATOM     26  N   UNL     1       3.080   3.244  19.087  0.00  0.00    +0.000 NA
ATOM     27  C   UNL     1       2.323   4.257  19.598  0.00  0.00    +0.000 A 
ATOM     28  C   UNL     1       0.920   3.876  19.976  0.00  0.00    +0.000 C 
ENDBRANCH  21  22
ENDBRANCH  14  21
ENDBRANCH   1  18
BRANCH  11  29
ATOM     29  O   UNL     1      -2.187  15.272  22.692  0.00  0.00    +0.000 OA
BRANCH  29  30
ATOM     30  C   UNL     1      -3.281  15.038  23.634  0.00  0.00    +0.000 C 
ATOM     31  C   UNL     1      -3.971  13.700  23.340  0.00  0.00    +0.000 C 
ATOM     32  C   UNL     1      -2.647  14.945  25.034  0.00  0.00    +0.000 C 
ATOM     33  C   UNL     1      -4.263  16.219  23.652  0.00  0.00    +0.000 C 
ENDBRANCH  29  30
ENDBRANCH  11  29
TORSDOF 6
ENDMDL
MODEL 9
REMARK VINA RESULT:      -6.7      1.977      3.138
REMARK  Name = 
REMARK  11 active torsions:
REMARK  status: ('A' for Active; 'I' for Inactive)
REMARK    1  A    between atoms: C_1  and  O_2
REMARK    2  A    between atoms: O_2  and  C_3
REMARK    3  A    between atoms: C_4  and  O_5
REMARK    4  A    between atoms: O_5  and  C_6
REMARK    5  A    between atoms: C_11  and  C_12
REMARK    6  A    between atoms: C_16  and  N_17
REMARK    7  A    between atoms: C_27  and  O_29
REMARK    8  A    between atoms: O_29  and  C_30
REMARK    9  A    between atoms: C_30  and  C_31
REMARK   10  A    between atoms: C_30  and  C_32
REMARK   11  A    between atoms: C_30  and  C_33
REMARK                            x       y       z     vdW  Elec       q    Type
REMARK                         _______ _______ _______ _____ _____    ______ ____
ROOT
ATOM      1  N   UNL     1       0.514  11.070  20.003  0.00  0.00    +0.000 N 
ATOM      2  C   UNL     1       0.933  12.485  19.961  0.00  0.00    +0.000 C 
ATOM      3  C   UNL     1       0.814  13.060  21.399  0.00  0.00    +0.000 C 
ATOM      4  C   UNL     1      -0.613  12.864  21.913  0.00  0.00    +0.000 C 
ATOM      5  C   UNL     1      -0.992  11.374  21.870  0.00  0.00    +0.000 C 
ATOM      6  C   UNL     1      -0.899  10.878  20.417  0.00  0.00    +0.000 C 
ATOM      7  C   UNL     1      -1.853  11.704  19.532  0.00  0.00    +0.000 C 
ATOM      8  C   UNL     1      -1.456  13.179  19.621  0.00  0.00    +0.000 C 
ATOM      9  C   UNL     1      -0.027  13.311  19.078  0.00  0.00    +0.000 C 
ATOM     10  N   UNL     1      -1.505  13.607  21.028  0.00  0.00    +0.000 N 
ATOM     11  C   UNL     1      -2.446  14.512  21.458  0.00  0.00    +0.000 C 
ATOM     12  O   UNL     1      -3.282  14.994  20.697  0.00  0.00    +0.000 OA
ENDROOT
BRANCH   1  18
ATOM     13  C   UNL     1       1.381   8.723  20.011  0.00  0.00    +0.000 A 
ATOM     14  C   UNL     1       2.047   7.773  19.208  0.00  0.00    +0.000 A 
ATOM     15  N   UNL     1       2.416   7.983  17.936  0.00  0.00    +0.000 NA
ATOM     16  C   UNL     1       2.166   9.197  17.475  0.00  0.00    +0.000 A 
ATOM     17  N   UNL     1       1.576  10.192  18.157  0.00  0.00    +0.000 NA
ATOM     18  C   UNL     1       1.172   9.986  19.433  0.00  0.00    +0.000 A 
BRANCH  13  20
ATOM     19  C   UNL     1       1.552   8.941  22.368  0.00  0.00    +0.000 C 
ATOM     20  O   UNL     1       1.038   8.251  21.248  0.00  0.00    +0.000 OA
ENDBRANCH  13  20
BRANCH  14  21
ATOM     21  O   UNL     1       2.226   6.486  19.728  0.00  0.00    +0.000 OA
BRANCH  21  22
ATOM     22  C   UNL     1       3.199   5.680  19.170  0.00  0.00    +0.000 A 
ATOM     23  C   UNL     1       4.556   5.800  19.482  0.00  0.00    +0.000 A 
ATOM     24  C   UNL     1       5.479   4.915  18.931  0.00  0.00    +0.000 A 
ATOM     25  C   UNL     1       5.011   3.909  18.109  0.00  0.00    +0.000 A 
ATOM     26  N   UNL     1       3.710   3.746  17.795  0.00  0.00    +0.000 NA
ATOM     27  C   UNL     1       2.818   4.629  18.327  0.00  0.00    +0.000 A 
ATOM     28  C   UNL     1       1.387   4.409  17.926  0.00  0.00    +0.000 C 
ENDBRANCH  21  22
ENDBRANCH  14  21
ENDBRANCH   1  18
BRANCH  11  29
ATOM     29  O   UNL     1      -2.337  14.826  22.782  0.00  0.00    +0.000 OA
BRANCH  29  30
ATOM     30  C   UNL     1      -3.443  14.481  23.674  0.00  0.00    +0.000 C 
ATOM     31  C   UNL     1      -3.014  14.608  25.141  0.00  0.00    +0.000 C 
ATOM     32  C   UNL     1      -4.557  15.512  23.417  0.00  0.00    +0.000 C 
ATOM     33  C   UNL     1      -4.015  13.094  23.342  0.00  0.00    +0.000 C 
ENDBRANCH  29  30
ENDBRANCH  11  29
TORSDOF 6
ENDMDL
