MODEL 1
REMARK VINA RESULT:      -8.1      0.000      0.000
REMARK  Name = 
REMARK  11 active torsions:
REMARK  status: ('A' for Active; 'I' for Inactive)
REMARK    1  A    between atoms: C_1  and  C_2
REMARK    2  A    between atoms: C_2  and  C_3
REMARK    3  A    between atoms: C_2  and  O_4
REMARK    4  A    between atoms: C_2  and  C_26
REMARK    5  A    between atoms: O_4  and  C_5
REMARK    6  A    between atoms: C_8  and  C_9
REMARK    7  A    between atoms: C_9  and  O_10
REMARK    8  A    between atoms: O_10  and  C_11
REMARK    9  A    between atoms: C_14  and  O_15
REMARK   10  A    between atoms: O_15  and  C_16
REMARK   11  A    between atoms: C_26  and  O_28
REMARK                            x       y       z     vdW  Elec       q    Type
REMARK                         _______ _______ _______ _____ _____    ______ ____
ROOT
ATOM      1  C   UNL     1       1.632   5.662  20.574  0.00  0.00    +0.000 C 
ENDROOT
BRANCH   1   5
ATOM      2  C   UNL     1       4.302   4.293  17.454  0.00  0.00    +0.000 A 
ATOM      3  C   UNL     1       4.804   4.974  18.569  0.00  0.00    +0.000 A 
ATOM      4  C   UNL     1       3.947   5.427  19.576  0.00  0.00    +0.000 A 
ATOM      5  C   UNL     1       2.569   5.210  19.480  0.00  0.00    +0.000 A 
ATOM      6  C   UNL     1       2.069   4.565  18.342  0.00  0.00    +0.000 A 
ATOM      7  C   UNL     1       2.928   4.132  17.327  0.00  0.00    +0.000 A 
BRANCH   2   8
ATOM      8  O   UNL     1       5.248   3.868  16.573  0.00  0.00    +0.000 OA
BRANCH   8  10
ATOM      9  C   UNL     1       5.551   4.026  14.072  0.00  0.00    +0.000 C 
ATOM     10  C   UNL     1       5.706   4.670  15.458  0.00  0.00    +0.000 C 
ATOM     11  C   UNL     1       5.111   6.077  15.541  0.00  0.00    +0.000 C 
BRANCH  10  12
ATOM     12  C   UNL     1       7.226   4.816  15.696  0.00  0.00    +0.000 C 
ATOM     13  O   UNL     1       7.842   4.291  16.615  0.00  0.00    +0.000 OA
BRANCH  12  14
ATOM     14  O   UNL     1       7.843   5.609  14.783  0.00  0.00    +0.000 OA
ATOM     15  H   UNL     1       8.795   5.679  15.015  0.00  0.00    +0.000 HD
ENDBRANCH  12  14
ENDBRANCH  10  12
ENDBRANCH   8  10
ENDBRANCH   2   8
ENDBRANCH   1   5
BRANCH   1  16
ATOM     16  O   UNL     1       2.073   6.926  21.066  0.00  0.00    +0.000 OA
BRANCH  16  17
ATOM     17  C   UNL     1       1.401   8.020  20.598  0.00  0.00    +0.000 A 
ATOM     18  C   UNL     1       1.817   8.482  19.347  0.00  0.00    +0.000 A 
ATOM     19  C   UNL     1       1.178   9.569  18.745  0.00  0.00    +0.000 A 
ATOM     20  C   UNL     1       0.104  10.190  19.380  0.00  0.00    +0.000 A 
ATOM     21  C   UNL     1      -0.284   9.760  20.652  0.00  0.00    +0.000 A 
ATOM     22  C   UNL     1       0.343   8.660  21.246  0.00  0.00    +0.000 A 
BRANCH  20  23
ATOM     23  O   UNL     1      -0.470  11.245  18.711  0.00  0.00    +0.000 OA
BRANCH  23  24
ATOM     24  C   UNL     1      -1.763  11.142  18.247  0.00  0.00    +0.000 A 
ATOM     25  C   UNL     1      -1.961  10.261  17.180  0.00  0.00    +0.000 A 
ATOM     26  C   UNL     1      -3.236  10.087  16.639  0.00  0.00    +0.000 A 
ATOM     27  C   UNL     1      -4.317  10.795  17.162  0.00  0.00    +0.000 A 
ATOM     28  C   UNL     1      -4.130  11.649  18.248  0.00  0.00    +0.000 A 
ATOM     29  C   UNL     1      -2.861  11.800  18.809  0.00  0.00    +0.000 A 
ENDBRANCH  23  24
ENDBRANCH  20  23
ENDBRANCH  16  17
ENDBRANCH   1  16
TORSDOF 9
ENDMDL
MODEL 2
REMARK VINA RESULT:      -8.0      6.354      9.259
REMARK  Name = 
REMARK  11 active torsions:
REMARK  status: ('A' for Active; 'I' for Inactive)
REMARK    1  A    between atoms: C_1  and  C_2
REMARK    2  A    between atoms: C_2  and  C_3
REMARK    3  A    between atoms: C_2  and  O_4
REMARK    4  A    between atoms: C_2  and  C_26
REMARK    5  A    between atoms: O_4  and  C_5
REMARK    6  A    between atoms: C_8  and  C_9
REMARK    7  A    between atoms: C_9  and  O_10
REMARK    8  A    between atoms: O_10  and  C_11
REMARK    9  A    between atoms: C_14  and  O_15
REMARK   10  A    between atoms: O_15  and  C_16
REMARK   11  A    between atoms: C_26  and  O_28
REMARK                            x       y       z     vdW  Elec       q    Type
REMARK                         _______ _______ _______ _____ _____    ______ ____
ROOT
ATOM      1  C   UNL     1       8.219   8.161  18.359  0.00  0.00    +0.000 C 
ENDROOT
BRANCH   1   5
ATOM      2  C   UNL     1       9.302  12.349  18.531  0.00  0.00    +0.000 A 
ATOM      3  C   UNL     1       9.810  11.445  19.471  0.00  0.00    +0.000 A 
ATOM      4  C   UNL     1       9.458  10.093  19.428  0.00  0.00    +0.000 A 
ATOM      5  C   UNL     1       8.583   9.623  18.442  0.00  0.00    +0.000 A 
ATOM      6  C   UNL     1       8.045  10.540  17.531  0.00  0.00    +0.000 A 
ATOM      7  C   UNL     1       8.384  11.895  17.591  0.00  0.00    +0.000 A 
BRANCH   2   8
ATOM      8  O   UNL     1       9.760  13.624  18.661  0.00  0.00    +0.000 OA
BRANCH   8  10
ATOM      9  C   UNL     1      12.114  14.446  19.049  0.00  0.00    +0.000 C 
ATOM     10  C   UNL     1      10.994  14.084  18.062  0.00  0.00    +0.000 C 
ATOM     11  C   UNL     1      11.443  13.115  16.966  0.00  0.00    +0.000 C 
BRANCH  10  12
ATOM     12  C   UNL     1      10.603  15.402  17.354  0.00  0.00    +0.000 C 
ATOM     13  O   UNL     1       9.587  16.044  17.589  0.00  0.00    +0.000 OA
BRANCH  12  14
ATOM     14  O   UNL     1      11.498  15.797  16.413  0.00  0.00    +0.000 OA
ATOM     15  H   UNL     1      12.016  15.015  16.120  0.00  0.00    +0.000 HD
ENDBRANCH  12  14
ENDBRANCH  10  12
ENDBRANCH   8  10
ENDBRANCH   2   8
ENDBRANCH   1   5
BRANCH   1  16
ATOM     16  O   UNL     1       7.561   7.921  17.116  0.00  0.00    +0.000 OA
BRANCH  16  17
ATOM     17  C   UNL     1       6.667   6.886  17.101  0.00  0.00    +0.000 A 
ATOM     18  C   UNL     1       7.236   5.611  17.078  0.00  0.00    +0.000 A 
ATOM     19  C   UNL     1       6.426   4.473  17.101  0.00  0.00    +0.000 A 
ATOM     20  C   UNL     1       5.039   4.603  17.169  0.00  0.00    +0.000 A 
ATOM     21  C   UNL     1       4.466   5.876  17.146  0.00  0.00    +0.000 A 
ATOM     22  C   UNL     1       5.278   7.015  17.140  0.00  0.00    +0.000 A 
BRANCH  20  23
ATOM     23  O   UNL     1       4.321   3.430  17.198  0.00  0.00    +0.000 OA
BRANCH  23  24
ATOM     24  C   UNL     1       3.351   3.243  18.158  0.00  0.00    +0.000 A 
ATOM     25  C   UNL     1       3.810   3.096  19.470  0.00  0.00    +0.000 A 
ATOM     26  C   UNL     1       2.905   2.901  20.514  0.00  0.00    +0.000 A 
ATOM     27  C   UNL     1       1.537   2.850  20.250  0.00  0.00    +0.000 A 
ATOM     28  C   UNL     1       1.073   3.030  18.947  0.00  0.00    +0.000 A 
ATOM     29  C   UNL     1       1.976   3.255  17.907  0.00  0.00    +0.000 A 
ENDBRANCH  23  24
ENDBRANCH  20  23
ENDBRANCH  16  17
ENDBRANCH   1  16
TORSDOF 9
ENDMDL
MODEL 3
REMARK VINA RESULT:      -7.9      0.511      1.197
REMARK  Name = 
REMARK  11 active torsions:
REMARK  status: ('A' for Active; 'I' for Inactive)
REMARK    1  A    between atoms: C_1  and  C_2
REMARK    2  A    between atoms: C_2  and  C_3
REMARK    3  A    between atoms: C_2  and  O_4
REMARK    4  A    between atoms: C_2  and  C_26
REMARK    5  A    between atoms: O_4  and  C_5
REMARK    6  A    between atoms: C_8  and  C_9
REMARK    7  A    between atoms: C_9  and  O_10
REMARK    8  A    between atoms: O_10  and  C_11
REMARK    9  A    between atoms: C_14  and  O_15
REMARK   10  A    between atoms: O_15  and  C_16
REMARK   11  A    between atoms: C_26  and  O_28
REMARK                            x       y       z     vdW  Elec       q    Type
REMARK                         _______ _______ _______ _____ _____    ______ ____
ROOT
ATOM      1  C   UNL     1       1.769   5.113  20.276  0.00  0.00    +0.000 C 
ENDROOT
BRANCH   1   5
ATOM      2  C   UNL     1       4.775   4.033  17.355  0.00  0.00    +0.000 A 
ATOM      3  C   UNL     1       3.424   3.764  17.115  0.00  0.00    +0.000 A 
ATOM      4  C   UNL     1       2.448   4.101  18.057  0.00  0.00    +0.000 A 
ATOM      5  C   UNL     1       2.812   4.711  19.262  0.00  0.00    +0.000 A 
ATOM      6  C   UNL     1       4.170   4.939  19.514  0.00  0.00    +0.000 A 
ATOM      7  C   UNL     1       5.144   4.581  18.578  0.00  0.00    +0.000 A 
BRANCH   2   8
ATOM      8  O   UNL     1       5.614   3.695  16.338  0.00  0.00    +0.000 OA
BRANCH   8  10
ATOM      9  C   UNL     1       5.596   3.843  13.819  0.00  0.00    +0.000 C 
ATOM     10  C   UNL     1       5.820   4.529  15.174  0.00  0.00    +0.000 C 
ATOM     11  C   UNL     1       5.049   5.843  15.322  0.00  0.00    +0.000 C 
BRANCH  10  12
ATOM     12  C   UNL     1       7.323   4.890  15.228  0.00  0.00    +0.000 C 
ATOM     13  O   UNL     1       7.952   5.397  14.308  0.00  0.00    +0.000 OA
BRANCH  12  14
ATOM     14  O   UNL     1       7.912   4.577  16.411  0.00  0.00    +0.000 OA
ATOM     15  H   UNL     1       7.610   3.685  16.690  0.00  0.00    +0.000 HD
ENDBRANCH  12  14
ENDBRANCH  10  12
ENDBRANCH   8  10
ENDBRANCH   2   8
ENDBRANCH   1   5
BRANCH   1  16
ATOM     16  O   UNL     1       2.181   6.326  20.905  0.00  0.00    +0.000 OA
BRANCH  16  17
ATOM     17  C   UNL     1       1.578   7.469  20.458  0.00  0.00    +0.000 A 
ATOM     18  C   UNL     1       1.992   7.904  19.197  0.00  0.00    +0.000 A 
ATOM     19  C   UNL     1       1.418   9.037  18.616  0.00  0.00    +0.000 A 
ATOM     20  C   UNL     1       0.411   9.733  19.283  0.00  0.00    +0.000 A 
ATOM     21  C   UNL     1       0.028   9.327  20.564  0.00  0.00    +0.000 A 
ATOM     22  C   UNL     1       0.590   8.182  21.138  0.00  0.00    +0.000 A 
BRANCH  20  23
ATOM     23  O   UNL     1      -0.103  10.830  18.633  0.00  0.00    +0.000 OA
BRANCH  23  24
ATOM     24  C   UNL     1      -1.421  10.837  18.235  0.00  0.00    +0.000 A 
ATOM     25  C   UNL     1      -1.745   9.985  17.177  0.00  0.00    +0.000 A 
ATOM     26  C   UNL     1      -3.056   9.920  16.701  0.00  0.00    +0.000 A 
ATOM     27  C   UNL     1      -4.047  10.711  17.280  0.00  0.00    +0.000 A 
ATOM     28  C   UNL     1      -3.735  11.538  18.359  0.00  0.00    +0.000 A 
ATOM     29  C   UNL     1      -2.431  11.579  18.855  0.00  0.00    +0.000 A 
ENDBRANCH  23  24
ENDBRANCH  20  23
ENDBRANCH  16  17
ENDBRANCH   1  16
TORSDOF 9
ENDMDL
MODEL 4
REMARK VINA RESULT:      -7.8      6.385      9.247
REMARK  Name = 
REMARK  11 active torsions:
REMARK  status: ('A' for Active; 'I' for Inactive)
REMARK    1  A    between atoms: C_1  and  C_2
REMARK    2  A    between atoms: C_2  and  C_3
REMARK    3  A    between atoms: C_2  and  O_4
REMARK    4  A    between atoms: C_2  and  C_26
REMARK    5  A    between atoms: O_4  and  C_5
REMARK    6  A    between atoms: C_8  and  C_9
REMARK    7  A    between atoms: C_9  and  O_10
REMARK    8  A    between atoms: O_10  and  C_11
REMARK    9  A    between atoms: C_14  and  O_15
REMARK   10  A    between atoms: O_15  and  C_16
REMARK   11  A    between atoms: C_26  and  O_28
REMARK                            x       y       z     vdW  Elec       q    Type
REMARK                         _______ _______ _______ _____ _____    ______ ____
ROOT
ATOM      1  C   UNL     1       8.228   8.211  18.134  0.00  0.00    +0.000 C 
ENDROOT
BRANCH   1   5
ATOM      2  C   UNL     1       9.479  12.305  18.775  0.00  0.00    +0.000 A 
ATOM      3  C   UNL     1       8.680  11.971  17.677  0.00  0.00    +0.000 A 
ATOM      4  C   UNL     1       8.279  10.650  17.457  0.00  0.00    +0.000 A 
ATOM      5  C   UNL     1       8.679   9.637  18.335  0.00  0.00    +0.000 A 
ATOM      6  C   UNL     1       9.514   9.971  19.408  0.00  0.00    +0.000 A 
ATOM      7  C   UNL     1       9.929  11.290  19.611  0.00  0.00    +0.000 A 
BRANCH   2   8
ATOM      8  O   UNL     1       9.759  13.631  18.894  0.00  0.00    +0.000 OA
BRANCH   8  10
ATOM      9  C   UNL     1      11.805  15.028  19.373  0.00  0.00    +0.000 C 
ATOM     10  C   UNL     1      10.961  14.236  18.363  0.00  0.00    +0.000 C 
ATOM     11  C   UNL     1      11.770  13.201  17.578  0.00  0.00    +0.000 C 
BRANCH  10  12
ATOM     12  C   UNL     1      10.444  15.268  17.334  0.00  0.00    +0.000 C 
ATOM     13  O   UNL     1       9.681  16.190  17.595  0.00  0.00    +0.000 OA
BRANCH  12  14
ATOM     14  O   UNL     1      10.907  15.056  16.076  0.00  0.00    +0.000 OA
ATOM     15  H   UNL     1      11.737  15.567  15.953  0.00  0.00    +0.000 HD
ENDBRANCH  12  14
ENDBRANCH  10  12
ENDBRANCH   8  10
ENDBRANCH   2   8
ENDBRANCH   1   5
BRANCH   1  16
ATOM     16  O   UNL     1       7.133   8.198  17.220  0.00  0.00    +0.000 OA
BRANCH  16  17
ATOM     17  C   UNL     1       6.359   7.071  17.226  0.00  0.00    +0.000 A 
ATOM     18  C   UNL     1       6.670   6.143  18.223  0.00  0.00    +0.000 A 
ATOM     19  C   UNL     1       5.923   4.970  18.357  0.00  0.00    +0.000 A 
ATOM     20  C   UNL     1       4.845   4.726  17.508  0.00  0.00    +0.000 A 
ATOM     21  C   UNL     1       4.560   5.629  16.481  0.00  0.00    +0.000 A 
ATOM     22  C   UNL     1       5.297   6.812  16.358  0.00  0.00    +0.000 A 
BRANCH  20  23
ATOM     23  O   UNL     1       4.160   3.552  17.718  0.00  0.00    +0.000 OA
BRANCH  23  24
ATOM     24  C   UNL     1       3.329   3.427  18.809  0.00  0.00    +0.000 A 
ATOM     25  C   UNL     1       2.051   3.973  18.669  0.00  0.00    +0.000 A 
ATOM     26  C   UNL     1       1.135   3.897  19.720  0.00  0.00    +0.000 A 
ATOM     27  C   UNL     1       1.496   3.277  20.916  0.00  0.00    +0.000 A 
ATOM     28  C   UNL     1       2.760   2.702  21.047  0.00  0.00    +0.000 A 
ATOM     29  C   UNL     1       3.665   2.751  19.985  0.00  0.00    +0.000 A 
ENDBRANCH  23  24
ENDBRANCH  20  23
ENDBRANCH  16  17
ENDBRANCH   1  16
TORSDOF 9
ENDMDL
MODEL 5
REMARK VINA RESULT:      -7.8      6.444      9.224
REMARK  Name = 
REMARK  11 active torsions:
REMARK  status: ('A' for Active; 'I' for Inactive)
REMARK    1  A    between atoms: C_1  and  C_2
REMARK    2  A    between atoms: C_2  and  C_3
REMARK    3  A    between atoms: C_2  and  O_4
REMARK    4  A    between atoms: C_2  and  C_26
REMARK    5  A    between atoms: O_4  and  C_5
REMARK    6  A    between atoms: C_8  and  C_9
REMARK    7  A    between atoms: C_9  and  O_10
REMARK    8  A    between atoms: O_10  and  C_11
REMARK    9  A    between atoms: C_14  and  O_15
REMARK   10  A    between atoms: O_15  and  C_16
REMARK   11  A    between atoms: C_26  and  O_28
REMARK                            x       y       z     vdW  Elec       q    Type
REMARK                         _______ _______ _______ _____ _____    ______ ____
ROOT
ATOM      1  C   UNL     1       8.383   8.159  18.317  0.00  0.00    +0.000 C 
ENDROOT
BRANCH   1   5
ATOM      2  C   UNL     1       9.239  12.395  18.569  0.00  0.00    +0.000 A 
ATOM      3  C   UNL     1       9.766  11.508  19.513  0.00  0.00    +0.000 A 
ATOM      4  C   UNL     1       9.487  10.140  19.444  0.00  0.00    +0.000 A 
ATOM      5  C   UNL     1       8.668   9.637  18.428  0.00  0.00    +0.000 A 
ATOM      6  C   UNL     1       8.109  10.536  17.511  0.00  0.00    +0.000 A 
ATOM      7  C   UNL     1       8.374  11.906  17.597  0.00  0.00    +0.000 A 
BRANCH   2   8
ATOM      8  O   UNL     1       9.625  13.691  18.726  0.00  0.00    +0.000 OA
BRANCH   8  10
ATOM      9  C   UNL     1      11.999  14.423  19.172  0.00  0.00    +0.000 C 
ATOM     10  C   UNL     1      10.850  14.222  18.171  0.00  0.00    +0.000 C 
ATOM     11  C   UNL     1      11.260  13.422  16.933  0.00  0.00    +0.000 C 
BRANCH  10  12
ATOM     12  C   UNL     1      10.461  15.635  17.677  0.00  0.00    +0.000 C 
ATOM     13  O   UNL     1      10.866  16.147  16.640  0.00  0.00    +0.000 OA
BRANCH  12  14
ATOM     14  O   UNL     1       9.618  16.289  18.516  0.00  0.00    +0.000 OA
ATOM     15  H   UNL     1       9.414  15.704  19.280  0.00  0.00    +0.000 HD
ENDBRANCH  12  14
ENDBRANCH  10  12
ENDBRANCH   8  10
ENDBRANCH   2   8
ENDBRANCH   1   5
BRANCH   1  16
ATOM     16  O   UNL     1       7.313   7.964  17.395  0.00  0.00    +0.000 OA
BRANCH  16  17
ATOM     17  C   UNL     1       6.526   6.867  17.612  0.00  0.00    +0.000 A 
ATOM     18  C   UNL     1       5.391   6.781  16.803  0.00  0.00    +0.000 A 
ATOM     19  C   UNL     1       4.530   5.685  16.903  0.00  0.00    +0.000 A 
ATOM     20  C   UNL     1       4.811   4.655  17.800  0.00  0.00    +0.000 A 
ATOM     21  C   UNL     1       5.920   4.760  18.643  0.00  0.00    +0.000 A 
ATOM     22  C   UNL     1       6.791   5.849  18.529  0.00  0.00    +0.000 A 
BRANCH  20  23
ATOM     23  O   UNL     1       3.916   3.611  17.825  0.00  0.00    +0.000 OA
BRANCH  23  24
ATOM     24  C   UNL     1       3.120   3.416  18.932  0.00  0.00    +0.000 A 
ATOM     25  C   UNL     1       1.775   3.768  18.788  0.00  0.00    +0.000 A 
ATOM     26  C   UNL     1       0.887   3.607  19.853  0.00  0.00    +0.000 A 
ATOM     27  C   UNL     1       1.343   3.096  21.067  0.00  0.00    +0.000 A 
ATOM     28  C   UNL     1       2.676   2.712  21.205  0.00  0.00    +0.000 A 
ATOM     29  C   UNL     1       3.557   2.844  20.130  0.00  0.00    +0.000 A 
ENDBRANCH  23  24
ENDBRANCH  20  23
ENDBRANCH  16  17
ENDBRANCH   1  16
TORSDOF 9
ENDMDL
MODEL 6
REMARK VINA RESULT:      -7.8      2.636      4.576
REMARK  Name = 
REMARK  11 active torsions:
REMARK  status: ('A' for Active; 'I' for Inactive)
REMARK    1  A    between atoms: C_1  and  C_2
REMARK    2  A    between atoms: C_2  and  C_3
REMARK    3  A    between atoms: C_2  and  O_4
REMARK    4  A    between atoms: C_2  and  C_26
REMARK    5  A    between atoms: O_4  and  C_5
REMARK    6  A    between atoms: C_8  and  C_9
REMARK    7  A    between atoms: C_9  and  O_10
REMARK    8  A    between atoms: O_10  and  C_11
REMARK    9  A    between atoms: C_14  and  O_15
REMARK   10  A    between atoms: O_15  and  C_16
REMARK   11  A    between atoms: C_26  and  O_28
REMARK                            x       y       z     vdW  Elec       q    Type
REMARK                         _______ _______ _______ _____ _____    ______ ____
ROOT
ATOM      1  C   UNL     1       1.511  10.095  18.348  0.00  0.00    +0.000 C 
ENDROOT
BRANCH   1   5
ATOM      2  C   UNL     1       2.978   6.122  19.242  0.00  0.00    +0.000 A 
ATOM      3  C   UNL     1       3.243   6.714  18.002  0.00  0.00    +0.000 A 
ATOM      4  C   UNL     1       2.765   7.992  17.702  0.00  0.00    +0.000 A 
ATOM      5  C   UNL     1       2.006   8.700  18.640  0.00  0.00    +0.000 A 
ATOM      6  C   UNL     1       1.710   8.085  19.863  0.00  0.00    +0.000 A 
ATOM      7  C   UNL     1       2.173   6.798  20.150  0.00  0.00    +0.000 A 
BRANCH   2   8
ATOM      8  O   UNL     1       3.540   4.895  19.420  0.00  0.00    +0.000 OA
BRANCH   8  10
ATOM      9  C   UNL     1       2.320   3.368  21.015  0.00  0.00    +0.000 C 
ATOM     10  C   UNL     1       2.762   3.686  19.579  0.00  0.00    +0.000 C 
ATOM     11  C   UNL     1       1.610   3.663  18.572  0.00  0.00    +0.000 C 
BRANCH  10  12
ATOM     12  C   UNL     1       3.732   2.554  19.169  0.00  0.00    +0.000 C 
ATOM     13  O   UNL     1       3.393   1.502  18.642  0.00  0.00    +0.000 OA
BRANCH  12  14
ATOM     14  O   UNL     1       5.031   2.822  19.461  0.00  0.00    +0.000 OA
ATOM     15  H   UNL     1       5.132   2.874  20.437  0.00  0.00    +0.000 HD
ENDBRANCH  12  14
ENDBRANCH  10  12
ENDBRANCH   8  10
ENDBRANCH   2   8
ENDBRANCH   1   5
BRANCH   1  16
ATOM     16  O   UNL     1       0.621  10.496  19.388  0.00  0.00    +0.000 OA
BRANCH  16  17
ATOM     17  C   UNL     1      -0.671  10.740  19.013  0.00  0.00    +0.000 A 
ATOM     18  C   UNL     1      -1.315  11.753  19.727  0.00  0.00    +0.000 A 
ATOM     19  C   UNL     1      -2.624  12.123  19.408  0.00  0.00    +0.000 A 
ATOM     20  C   UNL     1      -3.292  11.495  18.358  0.00  0.00    +0.000 A 
ATOM     21  C   UNL     1      -2.667  10.450  17.673  0.00  0.00    +0.000 A 
ATOM     22  C   UNL     1      -1.351  10.093  17.980  0.00  0.00    +0.000 A 
BRANCH  20  23
ATOM     23  O   UNL     1      -4.573  11.928  18.108  0.00  0.00    +0.000 OA
BRANCH  23  24
ATOM     24  C   UNL     1      -5.609  11.509  18.914  0.00  0.00    +0.000 A 
ATOM     25  C   UNL     1      -6.124  12.464  19.793  0.00  0.00    +0.000 A 
ATOM     26  C   UNL     1      -7.176  12.136  20.651  0.00  0.00    +0.000 A 
ATOM     27  C   UNL     1      -7.714  10.850  20.633  0.00  0.00    +0.000 A 
ATOM     28  C   UNL     1      -7.225   9.904  19.733  0.00  0.00    +0.000 A 
ATOM     29  C   UNL     1      -6.194  10.241  18.854  0.00  0.00    +0.000 A 
ENDBRANCH  23  24
ENDBRANCH  20  23
ENDBRANCH  16  17
ENDBRANCH   1  16
TORSDOF 9
ENDMDL
MODEL 7
REMARK VINA RESULT:      -7.8      6.791      9.690
REMARK  Name = 
REMARK  11 active torsions:
REMARK  status: ('A' for Active; 'I' for Inactive)
REMARK    1  A    between atoms: C_1  and  C_2
REMARK    2  A    between atoms: C_2  and  C_3
REMARK    3  A    between atoms: C_2  and  O_4
REMARK    4  A    between atoms: C_2  and  C_26
REMARK    5  A    between atoms: O_4  and  C_5
REMARK    6  A    between atoms: C_8  and  C_9
REMARK    7  A    between atoms: C_9  and  O_10
REMARK    8  A    between atoms: O_10  and  C_11
REMARK    9  A    between atoms: C_14  and  O_15
REMARK   10  A    between atoms: O_15  and  C_16
REMARK   11  A    between atoms: C_26  and  O_28
REMARK                            x       y       z     vdW  Elec       q    Type
REMARK                         _______ _______ _______ _____ _____    ______ ____
ROOT
ATOM      1  C   UNL     1       8.553   9.080  18.587  0.00  0.00    +0.000 C 
ENDROOT
BRANCH   1   5
ATOM      2  C   UNL     1      10.057  13.031  17.660  0.00  0.00    +0.000 A 
ATOM      3  C   UNL     1       8.712  12.715  17.442  0.00  0.00    +0.000 A 
ATOM      4  C   UNL     1       8.220  11.439  17.729  0.00  0.00    +0.000 A 
ATOM      5  C   UNL     1       9.072  10.453  18.238  0.00  0.00    +0.000 A 
ATOM      6  C   UNL     1      10.427  10.763  18.414  0.00  0.00    +0.000 A 
ATOM      7  C   UNL     1      10.918  12.035  18.105  0.00  0.00    +0.000 A 
BRANCH   2   8
ATOM      8  O   UNL     1      10.393  14.320  17.379  0.00  0.00    +0.000 OA
BRANCH   8  10
ATOM      9  C   UNL     1       8.931  15.386  19.139  0.00  0.00    +0.000 C 
ATOM     10  C   UNL     1      10.235  15.401  18.328  0.00  0.00    +0.000 C 
ATOM     11  C   UNL     1      11.488  15.527  19.198  0.00  0.00    +0.000 C 
BRANCH  10  12
ATOM     12  C   UNL     1      10.178  16.671  17.448  0.00  0.00    +0.000 C 
ATOM     13  O   UNL     1       9.909  17.793  17.860  0.00  0.00    +0.000 OA
BRANCH  12  14
ATOM     14  O   UNL     1      10.442  16.435  16.138  0.00  0.00    +0.000 OA
ATOM     15  H   UNL     1       9.803  16.940  15.589  0.00  0.00    +0.000 HD
ENDBRANCH  12  14
ENDBRANCH  10  12
ENDBRANCH   8  10
ENDBRANCH   2   8
ENDBRANCH   1   5
BRANCH   1  16
ATOM     16  O   UNL     1       8.034   8.469  17.407  0.00  0.00    +0.000 OA
BRANCH  16  17
ATOM     17  C   UNL     1       7.269   7.352  17.596  0.00  0.00    +0.000 A 
ATOM     18  C   UNL     1       7.745   6.463  18.563  0.00  0.00    +0.000 A 
ATOM     19  C   UNL     1       7.029   5.305  18.875  0.00  0.00    +0.000 A 
ATOM     20  C   UNL     1       5.819   5.037  18.237  0.00  0.00    +0.000 A 
ATOM     21  C   UNL     1       5.363   5.900  17.237  0.00  0.00    +0.000 A 
ATOM     22  C   UNL     1       6.071   7.068  16.938  0.00  0.00    +0.000 A 
BRANCH  20  23
ATOM     23  O   UNL     1       5.177   3.881  18.613  0.00  0.00    +0.000 OA
BRANCH  23  24
ATOM     24  C   UNL     1       3.836   3.910  18.925  0.00  0.00    +0.000 A 
ATOM     25  C   UNL     1       3.493   4.613  20.082  0.00  0.00    +0.000 A 
ATOM     26  C   UNL     1       2.158   4.701  20.483  0.00  0.00    +0.000 A 
ATOM     27  C   UNL     1       1.163   4.082  19.728  0.00  0.00    +0.000 A 
ATOM     28  C   UNL     1       1.497   3.408  18.554  0.00  0.00    +0.000 A 
ATOM     29  C   UNL     1       2.828   3.346  18.137  0.00  0.00    +0.000 A 
ENDBRANCH  23  24
ENDBRANCH  20  23
ENDBRANCH  16  17
ENDBRANCH   1  16
TORSDOF 9
ENDMDL
MODEL 8
REMARK VINA RESULT:      -7.7      2.414      4.488
REMARK  Name = 
REMARK  11 active torsions:
REMARK  status: ('A' for Active; 'I' for Inactive)
REMARK    1  A    between atoms: C_1  and  C_2
REMARK    2  A    between atoms: C_2  and  C_3
REMARK    3  A    between atoms: C_2  and  O_4
REMARK    4  A    between atoms: C_2  and  C_26
REMARK    5  A    between atoms: O_4  and  C_5
REMARK    6  A    between atoms: C_8  and  C_9
REMARK    7  A    between atoms: C_9  and  O_10
REMARK    8  A    between atoms: O_10  and  C_11
REMARK    9  A    between atoms: C_14  and  O_15
REMARK   10  A    between atoms: O_15  and  C_16
REMARK   11  A    between atoms: C_26  and  O_28
REMARK                            x       y       z     vdW  Elec       q    Type
REMARK                         _______ _______ _______ _____ _____    ______ ____
ROOT
ATOM      1  C   UNL     1       0.537   9.745  19.354  0.00  0.00    +0.000 C 
ENDROOT
BRANCH   1   5
ATOM      2  C   UNL     1       3.287   6.458  18.749  0.00  0.00    +0.000 A 
ATOM      3  C   UNL     1       2.609   6.601  19.964  0.00  0.00    +0.000 A 
ATOM      4  C   UNL     1       1.726   7.665  20.171  0.00  0.00    +0.000 A 
ATOM      5  C   UNL     1       1.512   8.610  19.162  0.00  0.00    +0.000 A 
ATOM      6  C   UNL     1       2.225   8.484  17.964  0.00  0.00    +0.000 A 
ATOM      7  C   UNL     1       3.123   7.430  17.769  0.00  0.00    +0.000 A 
BRANCH   2   8
ATOM      8  O   UNL     1       4.080   5.355  18.664  0.00  0.00    +0.000 OA
BRANCH   8  10
ATOM      9  C   UNL     1       2.201   4.008  17.654  0.00  0.00    +0.000 C 
ATOM     10  C   UNL     1       3.703   4.165  17.934  0.00  0.00    +0.000 C 
ATOM     11  C   UNL     1       4.570   4.017  16.681  0.00  0.00    +0.000 C 
BRANCH  10  12
ATOM     12  C   UNL     1       4.087   3.003  18.878  0.00  0.00    +0.000 C 
ATOM     13  O   UNL     1       5.083   2.984  19.592  0.00  0.00    +0.000 OA
BRANCH  12  14
ATOM     14  O   UNL     1       3.212   1.965  18.843  0.00  0.00    +0.000 OA
ATOM     15  H   UNL     1       2.738   1.921  19.702  0.00  0.00    +0.000 HD
ENDBRANCH  12  14
ENDBRANCH  10  12
ENDBRANCH   8  10
ENDBRANCH   2   8
ENDBRANCH   1   5
BRANCH   1  16
ATOM     16  O   UNL     1       0.008  10.119  18.083  0.00  0.00    +0.000 OA
BRANCH  16  17
ATOM     17  C   UNL     1      -1.317  10.456  18.060  0.00  0.00    +0.000 A 
ATOM     18  C   UNL     1      -1.703  11.414  19.000  0.00  0.00    +0.000 A 
ATOM     19  C   UNL     1      -3.022  11.870  19.047  0.00  0.00    +0.000 A 
ATOM     20  C   UNL     1      -3.963  11.385  18.139  0.00  0.00    +0.000 A 
ATOM     21  C   UNL     1      -3.592  10.393  17.228  0.00  0.00    +0.000 A 
ATOM     22  C   UNL     1      -2.266   9.950  17.170  0.00  0.00    +0.000 A 
BRANCH  20  23
ATOM     23  O   UNL     1      -5.235  11.895  18.251  0.00  0.00    +0.000 OA
BRANCH  23  24
ATOM     24  C   UNL     1      -6.119  11.344  19.152  0.00  0.00    +0.000 A 
ATOM     25  C   UNL     1      -6.484  12.159  20.227  0.00  0.00    +0.000 A 
ATOM     26  C   UNL     1      -7.375  11.691  21.194  0.00  0.00    +0.000 A 
ATOM     27  C   UNL     1      -7.902  10.404  21.091  0.00  0.00    +0.000 A 
ATOM     28  C   UNL     1      -7.567   9.600  20.002  0.00  0.00    +0.000 A 
ATOM     29  C   UNL     1      -6.699  10.079  19.019  0.00  0.00    +0.000 A 
ENDBRANCH  23  24
ENDBRANCH  20  23
ENDBRANCH  16  17
ENDBRANCH   1  16
TORSDOF 9
ENDMDL
MODEL 9
REMARK VINA RESULT:      -7.7      7.376     10.084
REMARK  Name = 
REMARK  11 active torsions:
REMARK  status: ('A' for Active; 'I' for Inactive)
REMARK    1  A    between atoms: C_1  and  C_2
REMARK    2  A    between atoms: C_2  and  C_3
REMARK    3  A    between atoms: C_2  and  O_4
REMARK    4  A    between atoms: C_2  and  C_26
REMARK    5  A    between atoms: O_4  and  C_5
REMARK    6  A    between atoms: C_8  and  C_9
REMARK    7  A    between atoms: C_9  and  O_10
REMARK    8  A    between atoms: O_10  and  C_11
REMARK    9  A    between atoms: C_14  and  O_15
REMARK   10  A    between atoms: O_15  and  C_16
REMARK   11  A    between atoms: C_26  and  O_28
REMARK                            x       y       z     vdW  Elec       q    Type
REMARK                         _______ _______ _______ _____ _____    ______ ____
ROOT
ATOM      1  C   UNL     1       9.175   9.753  19.267  0.00  0.00    +0.000 C 
ENDROOT
BRANCH   1   5
ATOM      2  C   UNL     1      11.309  13.448  18.539  0.00  0.00    +0.000 A 
ATOM      3  C   UNL     1      10.681  12.772  17.487  0.00  0.00    +0.000 A 
ATOM      4  C   UNL     1       9.997  11.574  17.712  0.00  0.00    +0.000 A 
ATOM      5  C   UNL     1       9.937  11.027  18.998  0.00  0.00    +0.000 A 
ATOM      6  C   UNL     1      10.603  11.686  20.038  0.00  0.00    +0.000 A 
ATOM      7  C   UNL     1      11.303  12.874  19.804  0.00  0.00    +0.000 A 
BRANCH   2   8
ATOM      8  O   UNL     1      11.898  14.624  18.190  0.00  0.00    +0.000 OA
BRANCH   8  10
ATOM      9  C   UNL     1      10.496  16.030  19.746  0.00  0.00    +0.000 C 
ATOM     10  C   UNL     1      11.295  15.914  18.439  0.00  0.00    +0.000 C 
ATOM     11  C   UNL     1      12.333  17.025  18.265  0.00  0.00    +0.000 C 
BRANCH  10  12
ATOM     12  C   UNL     1      10.270  16.082  17.294  0.00  0.00    +0.000 C 
ATOM     13  O   UNL     1       9.059  16.184  17.451  0.00  0.00    +0.000 OA
BRANCH  12  14
ATOM     14  O   UNL     1      10.835  16.094  16.060  0.00  0.00    +0.000 OA
ATOM     15  H   UNL     1      10.393  15.415  15.503  0.00  0.00    +0.000 HD
ENDBRANCH  12  14
ENDBRANCH  10  12
ENDBRANCH   8  10
ENDBRANCH   2   8
ENDBRANCH   1   5
BRANCH   1  16
ATOM     16  O   UNL     1       8.628   9.275  18.039  0.00  0.00    +0.000 OA
BRANCH  16  17
ATOM     17  C   UNL     1       7.991   8.066  18.095  0.00  0.00    +0.000 A 
ATOM     18  C   UNL     1       6.939   7.907  17.190  0.00  0.00    +0.000 A 
ATOM     19  C   UNL     1       6.238   6.701  17.124  0.00  0.00    +0.000 A 
ATOM     20  C   UNL     1       6.597   5.637  17.950  0.00  0.00    +0.000 A 
ATOM     21  C   UNL     1       7.617   5.808  18.888  0.00  0.00    +0.000 A 
ATOM     22  C   UNL     1       8.331   7.010  18.941  0.00  0.00    +0.000 A 
BRANCH  20  23
ATOM     23  O   UNL     1       5.859   4.485  17.811  0.00  0.00    +0.000 OA
BRANCH  23  24
ATOM     24  C   UNL     1       4.514   4.490  18.110  0.00  0.00    +0.000 A 
ATOM     25  C   UNL     1       4.171   4.984  19.371  0.00  0.00    +0.000 A 
ATOM     26  C   UNL     1       2.833   5.031  19.768  0.00  0.00    +0.000 A 
ATOM     27  C   UNL     1       1.835   4.582  18.905  0.00  0.00    +0.000 A 
ATOM     28  C   UNL     1       2.170   4.120  17.632  0.00  0.00    +0.000 A 
ATOM     29  C   UNL     1       3.505   4.102  17.224  0.00  0.00    +0.000 A 
ENDBRANCH  23  24
ENDBRANCH  20  23
ENDBRANCH  16  17
ENDBRANCH   1  16
TORSDOF 9
ENDMDL
