MODEL 1
REMARK VINA RESULT:      -7.8      0.000      0.000
REMARK  Name = 
REMARK  4 active torsions:
REMARK  status: ('A' for Active; 'I' for Inactive)
REMARK    1  A    between atoms: C_1  and  N_2
REMARK    2  A    between atoms: C_3  and  C_5
REMARK    3  A    between atoms: C_10  and  C_11
REMARK    4  A    between atoms: C_11  and  O_12
REMARK                            x       y       z     vdW  Elec       q    Type
REMARK                         _______ _______ _______ _____ _____    ______ ____
ROOT
ATOM      1  C   UNL     1       7.726   7.641  18.265  0.00  0.00    +0.000 A 
ATOM      2  C   UNL     1       8.209   6.663  19.138  0.00  0.00    +0.000 A 
ATOM      3  C   UNL     1       7.468   5.501  19.359  0.00  0.00    +0.000 A 
ATOM      4  C   UNL     1       6.239   5.301  18.710  0.00  0.00    +0.000 A 
ATOM      5  C   UNL     1       5.474   4.147  18.951  0.00  0.00    +0.000 A 
ATOM      6  C   UNL     1       4.247   3.925  18.301  0.00  0.00    +0.000 A 
ATOM      7  C   UNL     1       3.789   4.911  17.411  0.00  0.00    +0.000 A 
ATOM      8  C   UNL     1       4.530   6.072  17.171  0.00  0.00    +0.000 A 
ATOM      9  C   UNL     1       5.756   6.281  17.816  0.00  0.00    +0.000 A 
ATOM     10  C   UNL     1       6.503   7.450  17.608  0.00  0.00    +0.000 A 
ENDROOT
BRANCH   6  11
ATOM     11  C   UNL     1       3.425   2.669  18.553  0.00  0.00    +0.000 C 
ATOM     12  C   UNL     1       2.138   2.593  17.659  0.00  0.00    +0.000 C 
ATOM     13  C   UNL     1       0.922   2.582  18.609  0.00  0.00    +0.000 C 
ATOM     14  N   UNL     1       1.518   2.543  19.918  0.00  0.00    +0.000 N 
ATOM     15  C   UNL     1       1.066   2.541  21.184  0.00  0.00    +0.000 A 
ATOM     16  N   UNL     1       2.087   2.551  22.023  0.00  0.00    +0.000 NA
ATOM     17  C   UNL     1       3.230   2.575  21.238  0.00  0.00    +0.000 A 
ATOM     18  C   UNL     1       2.875   2.590  19.917  0.00  0.00    +0.000 A 
BRANCH  11  19
ATOM     19  O   UNL     1       4.172   1.474  18.362  0.00  0.00    +0.000 OA
ATOM     20  H   UNL     1       4.912   1.694  17.775  0.00  0.00    +0.000 HD
ENDBRANCH  11  19
ENDBRANCH   6  11
BRANCH   1  23
ATOM     21  C   UNL     1       9.802  10.699  19.050  0.00  0.00    +0.000 C 
ATOM     22  N   UNL     1       9.060   9.470  19.163  0.00  0.00    +0.000 N 
ATOM     23  C   UNL     1       8.448   8.922  18.053  0.00  0.00    +0.000 C 
ATOM     24  O   UNL     1       8.492   9.427  16.940  0.00  0.00    +0.000 OA
ATOM     25  H   UNL     1       9.141   8.931  20.013  0.00  0.00    +0.000 HD
ENDBRANCH   1  23
TORSDOF 3
ENDMDL
MODEL 2
REMARK VINA RESULT:      -7.8      5.799      7.261
REMARK  Name = 
REMARK  4 active torsions:
REMARK  status: ('A' for Active; 'I' for Inactive)
REMARK    1  A    between atoms: C_1  and  N_2
REMARK    2  A    between atoms: C_3  and  C_5
REMARK    3  A    between atoms: C_10  and  C_11
REMARK    4  A    between atoms: C_11  and  O_12
REMARK                            x       y       z     vdW  Elec       q    Type
REMARK                         _______ _______ _______ _____ _____    ______ ____
ROOT
ATOM      1  C   UNL     1      -0.050  10.541  21.185  0.00  0.00    +0.000 A 
ATOM      2  C   UNL     1       0.284   9.571  22.134  0.00  0.00    +0.000 A 
ATOM      3  C   UNL     1       1.035   8.458  21.755  0.00  0.00    +0.000 A 
ATOM      4  C   UNL     1       1.463   8.299  20.428  0.00  0.00    +0.000 A 
ATOM      5  C   UNL     1       2.194   7.166  20.034  0.00  0.00    +0.000 A 
ATOM      6  C   UNL     1       2.640   6.997  18.711  0.00  0.00    +0.000 A 
ATOM      7  C   UNL     1       2.312   7.994  17.777  0.00  0.00    +0.000 A 
ATOM      8  C   UNL     1       1.573   9.121  18.148  0.00  0.00    +0.000 A 
ATOM      9  C   UNL     1       1.139   9.284  19.470  0.00  0.00    +0.000 A 
ATOM     10  C   UNL     1       0.375  10.396  19.858  0.00  0.00    +0.000 A 
ENDROOT
BRANCH   6  11
ATOM     11  C   UNL     1       3.444   5.775  18.288  0.00  0.00    +0.000 C 
ATOM     12  C   UNL     1       4.103   5.030  19.501  0.00  0.00    +0.000 C 
ATOM     13  C   UNL     1       5.631   5.082  19.293  0.00  0.00    +0.000 C 
ATOM     14  N   UNL     1       5.774   5.713  18.007  0.00  0.00    +0.000 N 
ATOM     15  C   UNL     1       6.802   6.091  17.227  0.00  0.00    +0.000 A 
ATOM     16  N   UNL     1       6.343   6.689  16.143  0.00  0.00    +0.000 NA
ATOM     17  C   UNL     1       4.962   6.695  16.261  0.00  0.00    +0.000 A 
ATOM     18  C   UNL     1       4.603   6.100  17.440  0.00  0.00    +0.000 A 
BRANCH  11  19
ATOM     19  O   UNL     1       2.671   4.835  17.552  0.00  0.00    +0.000 OA
ATOM     20  H   UNL     1       2.651   5.144  16.633  0.00  0.00    +0.000 HD
ENDBRANCH  11  19
ENDBRANCH   6  11
BRANCH   1  23
ATOM     21  C   UNL     1      -2.332  12.775  23.204  0.00  0.00    +0.000 C 
ATOM     22  N   UNL     1      -1.503  11.679  22.774  0.00  0.00    +0.000 N 
ATOM     23  C   UNL     1      -0.904  11.706  21.530  0.00  0.00    +0.000 C 
ATOM     24  O   UNL     1      -1.036  12.628  20.737  0.00  0.00    +0.000 OA
ATOM     25  H   UNL     1      -1.226  10.985  23.452  0.00  0.00    +0.000 HD
ENDBRANCH   1  23
TORSDOF 3
ENDMDL
MODEL 3
REMARK VINA RESULT:      -7.8      5.041      6.687
REMARK  Name = 
REMARK  4 active torsions:
REMARK  status: ('A' for Active; 'I' for Inactive)
REMARK    1  A    between atoms: C_1  and  N_2
REMARK    2  A    between atoms: C_3  and  C_5
REMARK    3  A    between atoms: C_10  and  C_11
REMARK    4  A    between atoms: C_11  and  O_12
REMARK                            x       y       z     vdW  Elec       q    Type
REMARK                         _______ _______ _______ _____ _____    ______ ____
ROOT
ATOM      1  C   UNL     1       0.408   9.518  19.819  0.00  0.00    +0.000 A 
ATOM      2  C   UNL     1       0.500   8.647  20.908  0.00  0.00    +0.000 A 
ATOM      3  C   UNL     1       1.408   7.587  20.875  0.00  0.00    +0.000 A 
ATOM      4  C   UNL     1       2.234   7.385  19.759  0.00  0.00    +0.000 A 
ATOM      5  C   UNL     1       3.129   6.303  19.708  0.00  0.00    +0.000 A 
ATOM      6  C   UNL     1       3.972   6.093  18.602  0.00  0.00    +0.000 A 
ATOM      7  C   UNL     1       3.879   6.993  17.527  0.00  0.00    +0.000 A 
ATOM      8  C   UNL     1       2.984   8.066  17.555  0.00  0.00    +0.000 A 
ATOM      9  C   UNL     1       2.154   8.272  18.664  0.00  0.00    +0.000 A 
ATOM     10  C   UNL     1       1.231   9.329  18.702  0.00  0.00    +0.000 A 
ENDROOT
BRANCH   6  11
ATOM     11  C   UNL     1       4.950   4.927  18.554  0.00  0.00    +0.000 C 
ATOM     12  C   UNL     1       6.328   5.260  19.225  0.00  0.00    +0.000 C 
ATOM     13  C   UNL     1       7.411   5.139  18.132  0.00  0.00    +0.000 C 
ATOM     14  N   UNL     1       6.679   4.670  16.985  0.00  0.00    +0.000 N 
ATOM     15  C   UNL     1       6.974   4.377  15.707  0.00  0.00    +0.000 A 
ATOM     16  N   UNL     1       5.874   4.031  15.062  0.00  0.00    +0.000 NA
ATOM     17  C   UNL     1       4.842   4.126  15.983  0.00  0.00    +0.000 A 
ATOM     18  C   UNL     1       5.341   4.547  17.186  0.00  0.00    +0.000 A 
BRANCH  11  19
ATOM     19  O   UNL     1       4.433   3.748  19.155  0.00  0.00    +0.000 OA
ATOM     20  H   UNL     1       5.159   3.343  19.655  0.00  0.00    +0.000 HD
ENDBRANCH  11  19
ENDBRANCH   6  11
BRANCH   1  23
ATOM     21  C   UNL     1      -2.306  11.785  18.488  0.00  0.00    +0.000 C 
ATOM     22  N   UNL     1      -1.301  10.760  18.608  0.00  0.00    +0.000 N 
ATOM     23  C   UNL     1      -0.590  10.617  19.783  0.00  0.00    +0.000 C 
ATOM     24  O   UNL     1      -0.759  11.327  20.765  0.00  0.00    +0.000 OA
ATOM     25  H   UNL     1      -1.248  10.046  17.897  0.00  0.00    +0.000 HD
ENDBRANCH   1  23
TORSDOF 3
ENDMDL
MODEL 4
REMARK VINA RESULT:      -7.8      5.114      6.275
REMARK  Name = 
REMARK  4 active torsions:
REMARK  status: ('A' for Active; 'I' for Inactive)
REMARK    1  A    between atoms: C_1  and  N_2
REMARK    2  A    between atoms: C_3  and  C_5
REMARK    3  A    between atoms: C_10  and  C_11
REMARK    4  A    between atoms: C_11  and  O_12
REMARK                            x       y       z     vdW  Elec       q    Type
REMARK                         _______ _______ _______ _____ _____    ______ ____
ROOT
ATOM      1  C   UNL     1       0.100   9.971  20.180  0.00  0.00    +0.000 A 
ATOM      2  C   UNL     1       0.232   9.107  21.270  0.00  0.00    +0.000 A 
ATOM      3  C   UNL     1       1.100   8.016  21.190  0.00  0.00    +0.000 A 
ATOM      4  C   UNL     1       1.844   7.776  20.025  0.00  0.00    +0.000 A 
ATOM      5  C   UNL     1       2.696   6.662  19.927  0.00  0.00    +0.000 A 
ATOM      6  C   UNL     1       3.458   6.414  18.772  0.00  0.00    +0.000 A 
ATOM      7  C   UNL     1       3.326   7.308  17.695  0.00  0.00    +0.000 A 
ATOM      8  C   UNL     1       2.473   8.411  17.770  0.00  0.00    +0.000 A 
ATOM      9  C   UNL     1       1.723   8.656  18.928  0.00  0.00    +0.000 A 
ATOM     10  C   UNL     1       0.842   9.745  19.014  0.00  0.00    +0.000 A 
ENDROOT
BRANCH   6  11
ATOM     11  C   UNL     1       4.391   5.215  18.672  0.00  0.00    +0.000 C 
ATOM     12  C   UNL     1       5.032   5.058  17.249  0.00  0.00    +0.000 C 
ATOM     13  C   UNL     1       4.567   3.699  16.685  0.00  0.00    +0.000 C 
ATOM     14  N   UNL     1       3.821   3.122  17.772  0.00  0.00    +0.000 N 
ATOM     15  C   UNL     1       3.127   1.988  17.970  0.00  0.00    +0.000 A 
ATOM     16  N   UNL     1       2.584   2.001  19.174  0.00  0.00    +0.000 NA
ATOM     17  C   UNL     1       2.949   3.209  19.748  0.00  0.00    +0.000 A 
ATOM     18  C   UNL     1       3.708   3.924  18.862  0.00  0.00    +0.000 A 
BRANCH  11  19
ATOM     19  O   UNL     1       5.438   5.249  19.633  0.00  0.00    +0.000 OA
ATOM     20  H   UNL     1       6.187   4.765  19.252  0.00  0.00    +0.000 HD
ENDBRANCH  11  19
ENDBRANCH   6  11
BRANCH   1  23
ATOM     21  C   UNL     1      -2.835  12.131  19.182  0.00  0.00    +0.000 C 
ATOM     22  N   UNL     1      -1.846  11.085  19.231  0.00  0.00    +0.000 N 
ATOM     23  C   UNL     1      -0.860  11.104  20.197  0.00  0.00    +0.000 C 
ATOM     24  O   UNL     1      -0.764  11.980  21.046  0.00  0.00    +0.000 OA
ATOM     25  H   UNL     1      -1.986  10.259  18.669  0.00  0.00    +0.000 HD
ENDBRANCH   1  23
TORSDOF 3
ENDMDL
MODEL 5
REMARK VINA RESULT:      -7.7      5.829      7.944
REMARK  Name = 
REMARK  4 active torsions:
REMARK  status: ('A' for Active; 'I' for Inactive)
REMARK    1  A    between atoms: C_1  and  N_2
REMARK    2  A    between atoms: C_3  and  C_5
REMARK    3  A    between atoms: C_10  and  C_11
REMARK    4  A    between atoms: C_11  and  O_12
REMARK                            x       y       z     vdW  Elec       q    Type
REMARK                         _______ _______ _______ _____ _____    ______ ____
ROOT
ATOM      1  C   UNL     1       3.620   5.271  18.708  0.00  0.00    +0.000 A 
ATOM      2  C   UNL     1       3.879   5.986  17.536  0.00  0.00    +0.000 A 
ATOM      3  C   UNL     1       3.348   7.267  17.371  0.00  0.00    +0.000 A 
ATOM      4  C   UNL     1       2.556   7.849  18.373  0.00  0.00    +0.000 A 
ATOM      5  C   UNL     1       1.993   9.125  18.200  0.00  0.00    +0.000 A 
ATOM      6  C   UNL     1       1.207   9.727  19.198  0.00  0.00    +0.000 A 
ATOM      7  C   UNL     1       0.976   9.000  20.378  0.00  0.00    +0.000 A 
ATOM      8  C   UNL     1       1.515   7.723  20.560  0.00  0.00    +0.000 A 
ATOM      9  C   UNL     1       2.304   7.134  19.564  0.00  0.00    +0.000 A 
ATOM     10  C   UNL     1       2.834   5.844  19.717  0.00  0.00    +0.000 A 
ENDROOT
BRANCH   6  11
ATOM     11  C   UNL     1       0.610  11.116  19.015  0.00  0.00    +0.000 C 
ATOM     12  C   UNL     1       0.503  11.915  20.361  0.00  0.00    +0.000 C 
ATOM     13  C   UNL     1      -0.993  12.205  20.603  0.00  0.00    +0.000 C 
ATOM     14  N   UNL     1      -1.631  11.694  19.418  0.00  0.00    +0.000 N 
ATOM     15  C   UNL     1      -2.894  11.591  18.971  0.00  0.00    +0.000 A 
ATOM     16  N   UNL     1      -2.906  10.971  17.805  0.00  0.00    +0.000 NA
ATOM     17  C   UNL     1      -1.585  10.662  17.519  0.00  0.00    +0.000 A 
ATOM     18  C   UNL     1      -0.784  11.096  18.540  0.00  0.00    +0.000 A 
BRANCH  11  19
ATOM     19  O   UNL     1       1.331  11.908  18.081  0.00  0.00    +0.000 OA
ATOM     20  H   UNL     1       2.217  11.519  18.005  0.00  0.00    +0.000 HD
ENDBRANCH  11  19
ENDBRANCH   6  11
BRANCH   1  23
ATOM     21  C   UNL     1       3.633   1.494  18.655  0.00  0.00    +0.000 C 
ATOM     22  N   UNL     1       3.239   2.873  18.529  0.00  0.00    +0.000 N 
ATOM     23  C   UNL     1       4.108   3.881  18.896  0.00  0.00    +0.000 C 
ATOM     24  O   UNL     1       5.229   3.678  19.340  0.00  0.00    +0.000 OA
ATOM     25  H   UNL     1       2.401   3.092  18.011  0.00  0.00    +0.000 HD
ENDBRANCH   1  23
TORSDOF 3
ENDMDL
MODEL 6
REMARK VINA RESULT:      -7.7      4.792      6.405
REMARK  Name = 
REMARK  4 active torsions:
REMARK  status: ('A' for Active; 'I' for Inactive)
REMARK    1  A    between atoms: C_1  and  N_2
REMARK    2  A    between atoms: C_3  and  C_5
REMARK    3  A    between atoms: C_10  and  C_11
REMARK    4  A    between atoms: C_11  and  O_12
REMARK                            x       y       z     vdW  Elec       q    Type
REMARK                         _______ _______ _______ _____ _____    ______ ____
ROOT
ATOM      1  C   UNL     1       1.032   9.457  18.961  0.00  0.00    +0.000 A 
ATOM      2  C   UNL     1       1.809   9.624  17.812  0.00  0.00    +0.000 A 
ATOM      3  C   UNL     1       2.769   8.668  17.477  0.00  0.00    +0.000 A 
ATOM      4  C   UNL     1       2.964   7.535  18.282  0.00  0.00    +0.000 A 
ATOM      5  C   UNL     1       3.950   6.584  17.967  0.00  0.00    +0.000 A 
ATOM      6  C   UNL     1       4.150   5.438  18.756  0.00  0.00    +0.000 A 
ATOM      7  C   UNL     1       3.344   5.278  19.896  0.00  0.00    +0.000 A 
ATOM      8  C   UNL     1       2.369   6.222  20.232  0.00  0.00    +0.000 A 
ATOM      9  C   UNL     1       2.170   7.356  19.436  0.00  0.00    +0.000 A 
ATOM     10  C   UNL     1       1.214   8.328  19.770  0.00  0.00    +0.000 A 
ENDROOT
BRANCH   6  11
ATOM     11  C   UNL     1       5.209   4.402  18.406  0.00  0.00    +0.000 C 
ATOM     12  C   UNL     1       6.617   4.742  19.010  0.00  0.00    +0.000 C 
ATOM     13  C   UNL     1       7.589   4.926  17.826  0.00  0.00    +0.000 C 
ATOM     14  N   UNL     1       6.785   4.601  16.677  0.00  0.00    +0.000 N 
ATOM     15  C   UNL     1       6.972   4.573  15.346  0.00  0.00    +0.000 A 
ATOM     16  N   UNL     1       5.844   4.242  14.744  0.00  0.00    +0.000 NA
ATOM     17  C   UNL     1       4.907   4.069  15.750  0.00  0.00    +0.000 A 
ATOM     18  C   UNL     1       5.489   4.314  16.963  0.00  0.00    +0.000 A 
BRANCH  11  19
ATOM     19  O   UNL     1       4.852   3.089  18.817  0.00  0.00    +0.000 OA
ATOM     20  H   UNL     1       4.235   2.743  18.153  0.00  0.00    +0.000 HD
ENDBRANCH  11  19
ENDBRANCH   6  11
BRANCH   1  23
ATOM     21  C   UNL     1      -1.185  12.513  18.804  0.00  0.00    +0.000 C 
ATOM     22  N   UNL     1      -0.227  11.486  18.484  0.00  0.00    +0.000 N 
ATOM     23  C   UNL     1       0.047  10.482  19.391  0.00  0.00    +0.000 C 
ATOM     24  O   UNL     1      -0.486  10.401  20.489  0.00  0.00    +0.000 OA
ATOM     25  H   UNL     1       0.105  11.412  17.533  0.00  0.00    +0.000 HD
ENDBRANCH   1  23
TORSDOF 3
ENDMDL
MODEL 7
REMARK VINA RESULT:      -7.7      5.748      6.586
REMARK  Name = 
REMARK  4 active torsions:
REMARK  status: ('A' for Active; 'I' for Inactive)
REMARK    1  A    between atoms: C_1  and  N_2
REMARK    2  A    between atoms: C_3  and  C_5
REMARK    3  A    between atoms: C_10  and  C_11
REMARK    4  A    between atoms: C_11  and  O_12
REMARK                            x       y       z     vdW  Elec       q    Type
REMARK                         _______ _______ _______ _____ _____    ______ ____
ROOT
ATOM      1  C   UNL     1      -0.005  11.286  19.739  0.00  0.00    +0.000 A 
ATOM      2  C   UNL     1      -0.178  10.681  20.986  0.00  0.00    +0.000 A 
ATOM      3  C   UNL     1       0.391   9.431  21.238  0.00  0.00    +0.000 A 
ATOM      4  C   UNL     1       1.139   8.772  20.250  0.00  0.00    +0.000 A 
ATOM      5  C   UNL     1       1.689   7.501  20.486  0.00  0.00    +0.000 A 
ATOM      6  C   UNL     1       2.450   6.832  19.512  0.00  0.00    +0.000 A 
ATOM      7  C   UNL     1       2.631   7.468  18.271  0.00  0.00    +0.000 A 
ATOM      8  C   UNL     1       2.078   8.725  18.014  0.00  0.00    +0.000 A 
ATOM      9  C   UNL     1       1.328   9.388  18.993  0.00  0.00    +0.000 A 
ATOM     10  C   UNL     1       0.744  10.640  18.747  0.00  0.00    +0.000 A 
ENDROOT
BRANCH   6  11
ATOM     11  C   UNL     1       3.057   5.460  19.774  0.00  0.00    +0.000 C 
ATOM     12  C   UNL     1       4.598   5.410  19.485  0.00  0.00    +0.000 C 
ATOM     13  C   UNL     1       4.819   4.380  18.359  0.00  0.00    +0.000 C 
ATOM     14  N   UNL     1       3.504   3.838  18.136  0.00  0.00    +0.000 N 
ATOM     15  C   UNL     1       2.962   2.934  17.301  0.00  0.00    +0.000 A 
ATOM     16  N   UNL     1       1.659   2.864  17.504  0.00  0.00    +0.000 NA
ATOM     17  C   UNL     1       1.375   3.780  18.505  0.00  0.00    +0.000 A 
ATOM     18  C   UNL     1       2.528   4.408  18.890  0.00  0.00    +0.000 A 
BRANCH  11  19
ATOM     19  O   UNL     1       2.835   5.004  21.102  0.00  0.00    +0.000 OA
ATOM     20  H   UNL     1       3.660   5.149  21.592  0.00  0.00    +0.000 HD
ENDBRANCH  11  19
ENDBRANCH   6  11
BRANCH   1  23
ATOM     21  C   UNL     1      -1.062  14.897  20.082  0.00  0.00    +0.000 C 
ATOM     22  N   UNL     1      -0.491  13.598  20.329  0.00  0.00    +0.000 N 
ATOM     23  C   UNL     1      -0.648  12.583  19.407  0.00  0.00    +0.000 C 
ATOM     24  O   UNL     1      -1.262  12.713  18.357  0.00  0.00    +0.000 OA
ATOM     25  H   UNL     1       0.164  13.493  21.089  0.00  0.00    +0.000 HD
ENDBRANCH   1  23
TORSDOF 3
ENDMDL
MODEL 8
REMARK VINA RESULT:      -7.7      5.095      5.964
REMARK  Name = 
REMARK  4 active torsions:
REMARK  status: ('A' for Active; 'I' for Inactive)
REMARK    1  A    between atoms: C_1  and  N_2
REMARK    2  A    between atoms: C_3  and  C_5
REMARK    3  A    between atoms: C_10  and  C_11
REMARK    4  A    between atoms: C_11  and  O_12
REMARK                            x       y       z     vdW  Elec       q    Type
REMARK                         _______ _______ _______ _____ _____    ______ ____
ROOT
ATOM      1  C   UNL     1       0.863  10.505  20.309  0.00  0.00    +0.000 A 
ATOM      2  C   UNL     1       1.213  10.682  18.969  0.00  0.00    +0.000 A 
ATOM      3  C   UNL     1       1.719   9.608  18.235  0.00  0.00    +0.000 A 
ATOM      4  C   UNL     1       1.879   8.347  18.828  0.00  0.00    +0.000 A 
ATOM      5  C   UNL     1       2.416   7.269  18.104  0.00  0.00    +0.000 A 
ATOM      6  C   UNL     1       2.572   5.996  18.680  0.00  0.00    +0.000 A 
ATOM      7  C   UNL     1       2.193   5.833  20.023  0.00  0.00    +0.000 A 
ATOM      8  C   UNL     1       1.672   6.898  20.763  0.00  0.00    +0.000 A 
ATOM      9  C   UNL     1       1.512   8.161  20.179  0.00  0.00    +0.000 A 
ATOM     10  C   UNL     1       1.013   9.249  20.911  0.00  0.00    +0.000 A 
ENDROOT
BRANCH   6  11
ATOM     11  C   UNL     1       3.141   4.825  17.889  0.00  0.00    +0.000 C 
ATOM     12  C   UNL     1       2.028   3.912  17.267  0.00  0.00    +0.000 C 
ATOM     13  C   UNL     1       2.194   2.507  17.882  0.00  0.00    +0.000 C 
ATOM     14  N   UNL     1       3.377   2.631  18.692  0.00  0.00    +0.000 N 
ATOM     15  C   UNL     1       4.074   1.825  19.511  0.00  0.00    +0.000 A 
ATOM     16  N   UNL     1       5.076   2.495  20.051  0.00  0.00    +0.000 NA
ATOM     17  C   UNL     1       4.988   3.786  19.553  0.00  0.00    +0.000 A 
ATOM     18  C   UNL     1       3.911   3.879  18.715  0.00  0.00    +0.000 A 
BRANCH  11  19
ATOM     19  O   UNL     1       4.016   5.237  16.847  0.00  0.00    +0.000 OA
ATOM     20  H   UNL     1       4.176   4.460  16.289  0.00  0.00    +0.000 HD
ENDBRANCH  11  19
ENDBRANCH   6  11
BRANCH   1  23
ATOM     21  C   UNL     1      -1.401  12.526  22.561  0.00  0.00    +0.000 C 
ATOM     22  N   UNL     1      -0.863  11.491  21.717  0.00  0.00    +0.000 N 
ATOM     23  C   UNL     1       0.385  11.636  21.145  0.00  0.00    +0.000 C 
ATOM     24  O   UNL     1       1.092  12.621  21.310  0.00  0.00    +0.000 OA
ATOM     25  H   UNL     1      -1.328  10.595  21.692  0.00  0.00    +0.000 HD
ENDBRANCH   1  23
TORSDOF 3
ENDMDL
MODEL 9
REMARK VINA RESULT:      -7.7      5.611      6.229
REMARK  Name = 
REMARK  4 active torsions:
REMARK  status: ('A' for Active; 'I' for Inactive)
REMARK    1  A    between atoms: C_1  and  N_2
REMARK    2  A    between atoms: C_3  and  C_5
REMARK    3  A    between atoms: C_10  and  C_11
REMARK    4  A    between atoms: C_11  and  O_12
REMARK                            x       y       z     vdW  Elec       q    Type
REMARK                         _______ _______ _______ _____ _____    ______ ____
ROOT
ATOM      1  C   UNL     1       0.005  10.835  20.434  0.00  0.00    +0.000 A 
ATOM      2  C   UNL     1       0.108  10.053  21.587  0.00  0.00    +0.000 A 
ATOM      3  C   UNL     1       0.785   8.833  21.542  0.00  0.00    +0.000 A 
ATOM      4  C   UNL     1       1.368   8.381  20.348  0.00  0.00    +0.000 A 
ATOM      5  C   UNL     1       2.024   7.140  20.288  0.00  0.00    +0.000 A 
ATOM      6  C   UNL     1       2.623   6.677  19.103  0.00  0.00    +0.000 A 
ATOM      7  C   UNL     1       2.527   7.488  17.960  0.00  0.00    +0.000 A 
ATOM      8  C   UNL     1       1.864   8.718  17.998  0.00  0.00    +0.000 A 
ATOM      9  C   UNL     1       1.277   9.175  19.184  0.00  0.00    +0.000 A 
ATOM     10  C   UNL     1       0.587  10.396  19.237  0.00  0.00    +0.000 A 
ENDROOT
BRANCH   6  11
ATOM     11  C   UNL     1       3.346   5.338  19.043  0.00  0.00    +0.000 C 
ATOM     12  C   UNL     1       3.421   4.751  17.591  0.00  0.00    +0.000 C 
ATOM     13  C   UNL     1       2.664   3.406  17.602  0.00  0.00    +0.000 C 
ATOM     14  N   UNL     1       2.304   3.234  18.985  0.00  0.00    +0.000 N 
ATOM     15  C   UNL     1       1.627   2.318  19.698  0.00  0.00    +0.000 A 
ATOM     16  N   UNL     1       1.553   2.701  20.960  0.00  0.00    +0.000 NA
ATOM     17  C   UNL     1       2.206   3.921  21.032  0.00  0.00    +0.000 A 
ATOM     18  C   UNL     1       2.661   4.268  19.789  0.00  0.00    +0.000 A 
BRANCH  11  19
ATOM     19  O   UNL     1       4.665   5.400  19.569  0.00  0.00    +0.000 OA
ATOM     20  H   UNL     1       5.039   6.252  19.295  0.00  0.00    +0.000 HD
ENDBRANCH  11  19
ENDBRANCH   6  11
BRANCH   1  23
ATOM     21  C   UNL     1      -0.809  14.466  19.776  0.00  0.00    +0.000 C 
ATOM     22  N   UNL     1      -0.134  13.196  19.853  0.00  0.00    +0.000 N 
ATOM     23  C   UNL     1      -0.763  12.106  20.421  0.00  0.00    +0.000 C 
ATOM     24  O   UNL     1      -1.896  12.145  20.881  0.00  0.00    +0.000 OA
ATOM     25  H   UNL     1       0.724  13.071  19.336  0.00  0.00    +0.000 HD
ENDBRANCH   1  23
TORSDOF 3
ENDMDL
