MODEL 1
REMARK VINA RESULT:      -7.2      0.000      0.000
REMARK  Name = 
REMARK  5 active torsions:
REMARK  status: ('A' for Active; 'I' for Inactive)
REMARK    1  A    between atoms: N_2  and  C_4
REMARK    2  A    between atoms: C_6  and  O_7
REMARK    3  A    between atoms: C_10  and  C_11
REMARK    4  A    between atoms: C_12  and  C_13
REMARK    5  A    between atoms: C_16  and  O_17
REMARK                            x       y       z     vdW  Elec       q    Type
REMARK                         _______ _______ _______ _____ _____    ______ ____
ROOT
ATOM      1  C   UNL     1       6.693   4.846  15.498  0.00  0.00    +0.000 A 
ATOM      2  C   UNL     1       7.374   4.858  14.270  0.00  0.00    +0.000 A 
ATOM      3  C   UNL     1       6.733   4.339  13.155  0.00  0.00    +0.000 A 
ATOM      4  C   UNL     1       5.442   3.828  13.250  0.00  0.00    +0.000 A 
ATOM      5  C   UNL     1       4.770   3.832  14.479  0.00  0.00    +0.000 A 
ATOM      6  C   UNL     1       5.389   4.339  15.631  0.00  0.00    +0.000 A 
ENDROOT
BRANCH   1   8
ATOM      7  O   UNL     1       7.511   6.603  16.727  0.00  0.00    +0.000 OA
ATOM      8  N   UNL     1       7.402   5.372  16.651  0.00  0.00    +0.000 N 
ATOM      9  O   UNL     1       7.899   4.554  17.437  0.00  0.00    +0.000 OA
ENDBRANCH   1   8
BRANCH   3  10
ATOM     10  O   UNL     1       7.339   4.306  11.934  0.00  0.00    +0.000 OA
ATOM     11  H   UNL     1       8.083   4.929  11.921  0.00  0.00    +0.000 HD
ENDBRANCH   3  10
BRANCH   6  12
ATOM     12  C   UNL     1       4.636   4.324  16.893  0.00  0.00    +0.000 C 
ATOM     13  C   UNL     1       3.858   3.285  17.241  0.00  0.00    +0.000 C 
BRANCH  13  14
ATOM     14  C   UNL     1       3.065   3.190  18.481  0.00  0.00    +0.000 A 
ATOM     15  C   UNL     1       1.668   3.320  18.512  0.00  0.00    +0.000 A 
ATOM     16  C   UNL     1       0.956   3.153  19.707  0.00  0.00    +0.000 A 
ATOM     17  C   UNL     1       1.640   2.846  20.877  0.00  0.00    +0.000 A 
ATOM     18  C   UNL     1       3.020   2.710  20.871  0.00  0.00    +0.000 A 
ATOM     19  C   UNL     1       3.729   2.878  19.677  0.00  0.00    +0.000 A 
BRANCH  17  20
ATOM     20  O   UNL     1       0.989   2.658  22.060  0.00  0.00    +0.000 OA
ATOM     21  H   UNL     1       0.032   2.694  21.899  0.00  0.00    +0.000 HD
ENDBRANCH  17  20
ENDBRANCH  13  14
ENDBRANCH   6  12
TORSDOF 5
ENDMDL
MODEL 2
REMARK VINA RESULT:      -7.0      0.261      1.133
REMARK  Name = 
REMARK  5 active torsions:
REMARK  status: ('A' for Active; 'I' for Inactive)
REMARK    1  A    between atoms: N_2  and  C_4
REMARK    2  A    between atoms: C_6  and  O_7
REMARK    3  A    between atoms: C_10  and  C_11
REMARK    4  A    between atoms: C_12  and  C_13
REMARK    5  A    between atoms: C_16  and  O_17
REMARK                            x       y       z     vdW  Elec       q    Type
REMARK                         _______ _______ _______ _____ _____    ______ ____
ROOT
ATOM      1  C   UNL     1       6.753   4.877  15.364  0.00  0.00    +0.000 A 
ATOM      2  C   UNL     1       7.467   4.940  14.156  0.00  0.00    +0.000 A 
ATOM      3  C   UNL     1       6.872   4.430  13.011  0.00  0.00    +0.000 A 
ATOM      4  C   UNL     1       5.595   3.880  13.057  0.00  0.00    +0.000 A 
ATOM      5  C   UNL     1       4.889   3.834  14.267  0.00  0.00    +0.000 A 
ATOM      6  C   UNL     1       5.461   4.330  15.447  0.00  0.00    +0.000 A 
ENDROOT
BRANCH   1   8
ATOM      7  O   UNL     1       7.513   6.626  16.640  0.00  0.00    +0.000 OA
ATOM      8  N   UNL     1       7.413   5.396  16.548  0.00  0.00    +0.000 N 
ATOM      9  O   UNL     1       7.883   4.572  17.346  0.00  0.00    +0.000 OA
ENDBRANCH   1   8
BRANCH   3  10
ATOM     10  O   UNL     1       7.513   4.444  11.808  0.00  0.00    +0.000 OA
ATOM     11  H   UNL     1       8.341   3.942  11.872  0.00  0.00    +0.000 HD
ENDBRANCH   3  10
BRANCH   6  12
ATOM     12  C   UNL     1       4.675   4.262  16.687  0.00  0.00    +0.000 C 
ATOM     13  C   UNL     1       4.105   3.118  17.103  0.00  0.00    +0.000 C 
BRANCH  13  14
ATOM     14  C   UNL     1       3.296   2.961  18.325  0.00  0.00    +0.000 A 
ATOM     15  C   UNL     1       3.855   2.775  19.599  0.00  0.00    +0.000 A 
ATOM     16  C   UNL     1       3.042   2.699  20.738  0.00  0.00    +0.000 A 
ATOM     17  C   UNL     1       1.664   2.818  20.607  0.00  0.00    +0.000 A 
ATOM     18  C   UNL     1       1.088   3.005  19.359  0.00  0.00    +0.000 A 
ATOM     19  C   UNL     1       1.901   3.079  18.224  0.00  0.00    +0.000 A 
BRANCH  17  20
ATOM     20  O   UNL     1       0.834   2.768  21.688  0.00  0.00    +0.000 OA
ATOM     21  H   UNL     1       1.018   1.954  22.184  0.00  0.00    +0.000 HD
ENDBRANCH  17  20
ENDBRANCH  13  14
ENDBRANCH   6  12
TORSDOF 5
ENDMDL
MODEL 3
REMARK VINA RESULT:      -6.9      4.223      4.658
REMARK  Name = 
REMARK  5 active torsions:
REMARK  status: ('A' for Active; 'I' for Inactive)
REMARK    1  A    between atoms: N_2  and  C_4
REMARK    2  A    between atoms: C_6  and  O_7
REMARK    3  A    between atoms: C_10  and  C_11
REMARK    4  A    between atoms: C_12  and  C_13
REMARK    5  A    between atoms: C_16  and  O_17
REMARK                            x       y       z     vdW  Elec       q    Type
REMARK                         _______ _______ _______ _____ _____    ______ ____
ROOT
ATOM      1  C   UNL     1       5.938   5.162  17.740  0.00  0.00    +0.000 A 
ATOM      2  C   UNL     1       6.860   4.633  16.822  0.00  0.00    +0.000 A 
ATOM      3  C   UNL     1       6.771   5.028  15.495  0.00  0.00    +0.000 A 
ATOM      4  C   UNL     1       5.797   5.934  15.086  0.00  0.00    +0.000 A 
ATOM      5  C   UNL     1       4.890   6.462  16.014  0.00  0.00    +0.000 A 
ATOM      6  C   UNL     1       4.944   6.080  17.363  0.00  0.00    +0.000 A 
ENDROOT
BRANCH   1   8
ATOM      7  O   UNL     1       6.825   5.327  19.850  0.00  0.00    +0.000 OA
ATOM      8  N   UNL     1       6.043   4.709  19.115  0.00  0.00    +0.000 N 
ATOM      9  O   UNL     1       5.394   3.703  19.435  0.00  0.00    +0.000 OA
ENDBRANCH   1   8
BRANCH   3  10
ATOM     10  O   UNL     1       7.623   4.544  14.547  0.00  0.00    +0.000 OA
ATOM     11  H   UNL     1       8.493   4.376  14.944  0.00  0.00    +0.000 HD
ENDBRANCH   3  10
BRANCH   6  12
ATOM     12  C   UNL     1       3.971   6.669  18.295  0.00  0.00    +0.000 C 
ATOM     13  C   UNL     1       3.082   7.596  17.899  0.00  0.00    +0.000 C 
BRANCH  13  14
ATOM     14  C   UNL     1       2.080   8.244  18.766  0.00  0.00    +0.000 A 
ATOM     15  C   UNL     1       1.863   7.871  20.102  0.00  0.00    +0.000 A 
ATOM     16  C   UNL     1       0.946   8.564  20.902  0.00  0.00    +0.000 A 
ATOM     17  C   UNL     1       0.246   9.640  20.370  0.00  0.00    +0.000 A 
ATOM     18  C   UNL     1       0.445  10.029  19.054  0.00  0.00    +0.000 A 
ATOM     19  C   UNL     1       1.360   9.335  18.256  0.00  0.00    +0.000 A 
BRANCH  17  20
ATOM     20  O   UNL     1      -0.645  10.355  21.115  0.00  0.00    +0.000 OA
ATOM     21  H   UNL     1      -1.021  11.058  20.561  0.00  0.00    +0.000 HD
ENDBRANCH  17  20
ENDBRANCH  13  14
ENDBRANCH   6  12
TORSDOF 5
ENDMDL
MODEL 4
REMARK VINA RESULT:      -6.9      5.045      5.914
REMARK  Name = 
REMARK  5 active torsions:
REMARK  status: ('A' for Active; 'I' for Inactive)
REMARK    1  A    between atoms: N_2  and  C_4
REMARK    2  A    between atoms: C_6  and  O_7
REMARK    3  A    between atoms: C_10  and  C_11
REMARK    4  A    between atoms: C_12  and  C_13
REMARK    5  A    between atoms: C_16  and  O_17
REMARK                            x       y       z     vdW  Elec       q    Type
REMARK                         _______ _______ _______ _____ _____    ______ ____
ROOT
ATOM      1  C   UNL     1       3.273   4.572  17.632  0.00  0.00    +0.000 A 
ATOM      2  C   UNL     1       4.179   3.743  16.950  0.00  0.00    +0.000 A 
ATOM      3  C   UNL     1       5.339   4.312  16.444  0.00  0.00    +0.000 A 
ATOM      4  C   UNL     1       5.603   5.667  16.617  0.00  0.00    +0.000 A 
ATOM      5  C   UNL     1       4.695   6.479  17.310  0.00  0.00    +0.000 A 
ATOM      6  C   UNL     1       3.507   5.943  17.827  0.00  0.00    +0.000 A 
ENDROOT
BRANCH   1   8
ATOM      7  O   UNL     1       2.110   3.429  19.247  0.00  0.00    +0.000 OA
ATOM      8  N   UNL     1       2.057   3.951  18.126  0.00  0.00    +0.000 N 
ATOM      9  O   UNL     1       1.077   3.934  17.368  0.00  0.00    +0.000 OA
ENDBRANCH   1   8
BRANCH   3  10
ATOM     10  O   UNL     1       6.257   3.571  15.758  0.00  0.00    +0.000 OA
ATOM     11  H   UNL     1       7.135   3.688  16.156  0.00  0.00    +0.000 HD
ENDBRANCH   3  10
BRANCH   6  12
ATOM     12  C   UNL     1       2.592   6.839  18.550  0.00  0.00    +0.000 C 
ATOM     13  C   UNL     1       2.259   8.049  18.069  0.00  0.00    +0.000 C 
BRANCH  13  14
ATOM     14  C   UNL     1       1.359   9.012  18.729  0.00  0.00    +0.000 A 
ATOM     15  C   UNL     1       0.555   9.922  18.024  0.00  0.00    +0.000 A 
ATOM     16  C   UNL     1      -0.334  10.769  18.698  0.00  0.00    +0.000 A 
ATOM     17  C   UNL     1      -0.429  10.705  20.082  0.00  0.00    +0.000 A 
ATOM     18  C   UNL     1       0.353   9.813  20.801  0.00  0.00    +0.000 A 
ATOM     19  C   UNL     1       1.241   8.968  20.127  0.00  0.00    +0.000 A 
BRANCH  17  20
ATOM     20  O   UNL     1      -1.291  11.497  20.780  0.00  0.00    +0.000 OA
ATOM     21  H   UNL     1      -2.183  11.118  20.718  0.00  0.00    +0.000 HD
ENDBRANCH  17  20
ENDBRANCH  13  14
ENDBRANCH   6  12
TORSDOF 5
ENDMDL
MODEL 5
REMARK VINA RESULT:      -6.9      1.045      1.283
REMARK  Name = 
REMARK  5 active torsions:
REMARK  status: ('A' for Active; 'I' for Inactive)
REMARK    1  A    between atoms: N_2  and  C_4
REMARK    2  A    between atoms: C_6  and  O_7
REMARK    3  A    between atoms: C_10  and  C_11
REMARK    4  A    between atoms: C_12  and  C_13
REMARK    5  A    between atoms: C_16  and  O_17
REMARK                            x       y       z     vdW  Elec       q    Type
REMARK                         _______ _______ _______ _____ _____    ______ ____
ROOT
ATOM      1  C   UNL     1       6.797   4.845  16.311  0.00  0.00    +0.000 A 
ATOM      2  C   UNL     1       7.550   5.342  15.235  0.00  0.00    +0.000 A 
ATOM      3  C   UNL     1       7.167   4.996  13.946  0.00  0.00    +0.000 A 
ATOM      4  C   UNL     1       6.058   4.186  13.727  0.00  0.00    +0.000 A 
ATOM      5  C   UNL     1       5.309   3.706  14.810  0.00  0.00    +0.000 A 
ATOM      6  C   UNL     1       5.671   4.026  16.127  0.00  0.00    +0.000 A 
ENDROOT
BRANCH   1   8
ATOM      7  O   UNL     1       7.973   4.395  18.230  0.00  0.00    +0.000 OA
ATOM      8  N   UNL     1       7.240   5.204  17.647  0.00  0.00    +0.000 N 
ATOM      9  O   UNL     1       6.803   6.259  18.127  0.00  0.00    +0.000 OA
ENDBRANCH   1   8
BRANCH   3  10
ATOM     10  O   UNL     1       7.860   5.431  12.855  0.00  0.00    +0.000 OA
ATOM     11  H   UNL     1       8.810   5.439  13.053  0.00  0.00    +0.000 HD
ENDBRANCH   3  10
BRANCH   6  12
ATOM     12  C   UNL     1       4.847   3.499  17.225  0.00  0.00    +0.000 C 
ATOM     13  C   UNL     1       3.889   4.238  17.809  0.00  0.00    +0.000 C 
BRANCH  13  14
ATOM     14  C   UNL     1       3.024   3.794  18.918  0.00  0.00    +0.000 A 
ATOM     15  C   UNL     1       2.261   2.617  18.874  0.00  0.00    +0.000 A 
ATOM     16  C   UNL     1       1.509   2.205  19.982  0.00  0.00    +0.000 A 
ATOM     17  C   UNL     1       1.523   2.968  21.143  0.00  0.00    +0.000 A 
ATOM     18  C   UNL     1       2.270   4.134  21.212  0.00  0.00    +0.000 A 
ATOM     19  C   UNL     1       3.020   4.544  20.104  0.00  0.00    +0.000 A 
BRANCH  17  20
ATOM     20  O   UNL     1       0.820   2.599  22.252  0.00  0.00    +0.000 OA
ATOM     21  H   UNL     1       0.046   2.083  21.973  0.00  0.00    +0.000 HD
ENDBRANCH  17  20
ENDBRANCH  13  14
ENDBRANCH   6  12
TORSDOF 5
ENDMDL
MODEL 6
REMARK VINA RESULT:      -6.9      4.314      4.809
REMARK  Name = 
REMARK  5 active torsions:
REMARK  status: ('A' for Active; 'I' for Inactive)
REMARK    1  A    between atoms: N_2  and  C_4
REMARK    2  A    between atoms: C_6  and  O_7
REMARK    3  A    between atoms: C_10  and  C_11
REMARK    4  A    between atoms: C_12  and  C_13
REMARK    5  A    between atoms: C_16  and  O_17
REMARK                            x       y       z     vdW  Elec       q    Type
REMARK                         _______ _______ _______ _____ _____    ______ ____
ROOT
ATOM      1  C   UNL     1       4.784   4.197  17.315  0.00  0.00    +0.000 A 
ATOM      2  C   UNL     1       5.516   3.521  16.325  0.00  0.00    +0.000 A 
ATOM      3  C   UNL     1       5.916   4.230  15.201  0.00  0.00    +0.000 A 
ATOM      4  C   UNL     1       5.609   5.580  15.065  0.00  0.00    +0.000 A 
ATOM      5  C   UNL     1       4.887   6.245  16.066  0.00  0.00    +0.000 A 
ATOM      6  C   UNL     1       4.457   5.559  17.211  0.00  0.00    +0.000 A 
ENDROOT
BRANCH   1   8
ATOM      7  O   UNL     1       5.132   3.377  19.430  0.00  0.00    +0.000 OA
ATOM      8  N   UNL     1       4.358   3.419  18.465  0.00  0.00    +0.000 N 
ATOM      9  O   UNL     1       3.285   2.807  18.373  0.00  0.00    +0.000 OA
ENDBRANCH   1   8
BRANCH   3  10
ATOM     10  O   UNL     1       6.617   3.635  14.194  0.00  0.00    +0.000 OA
ATOM     11  H   UNL     1       6.001   3.236  13.558  0.00  0.00    +0.000 HD
ENDBRANCH   3  10
BRANCH   6  12
ATOM     12  C   UNL     1       3.708   6.306  18.233  0.00  0.00    +0.000 C 
ATOM     13  C   UNL     1       2.858   7.294  17.906  0.00  0.00    +0.000 C 
BRANCH  13  14
ATOM     14  C   UNL     1       2.075   8.098  18.863  0.00  0.00    +0.000 A 
ATOM     15  C   UNL     1       1.883   7.726  20.203  0.00  0.00    +0.000 A 
ATOM     16  C   UNL     1       1.186   8.560  21.088  0.00  0.00    +0.000 A 
ATOM     17  C   UNL     1       0.685   9.775  20.637  0.00  0.00    +0.000 A 
ATOM     18  C   UNL     1       0.864  10.165  19.318  0.00  0.00    +0.000 A 
ATOM     19  C   UNL     1       1.559   9.331  18.436  0.00  0.00    +0.000 A 
BRANCH  17  20
ATOM     20  O   UNL     1       0.016  10.626  21.465  0.00  0.00    +0.000 OA
ATOM     21  H   UNL     1      -0.130  10.183  22.316  0.00  0.00    +0.000 HD
ENDBRANCH  17  20
ENDBRANCH  13  14
ENDBRANCH   6  12
TORSDOF 5
ENDMDL
MODEL 7
REMARK VINA RESULT:      -6.8      5.701      6.722
REMARK  Name = 
REMARK  5 active torsions:
REMARK  status: ('A' for Active; 'I' for Inactive)
REMARK    1  A    between atoms: N_2  and  C_4
REMARK    2  A    between atoms: C_6  and  O_7
REMARK    3  A    between atoms: C_10  and  C_11
REMARK    4  A    between atoms: C_12  and  C_13
REMARK    5  A    between atoms: C_16  and  O_17
REMARK                            x       y       z     vdW  Elec       q    Type
REMARK                         _______ _______ _______ _____ _____    ______ ____
ROOT
ATOM      1  C   UNL     1       3.092   5.138  17.843  0.00  0.00    +0.000 A 
ATOM      2  C   UNL     1       4.114   4.236  17.506  0.00  0.00    +0.000 A 
ATOM      3  C   UNL     1       5.340   4.748  17.105  0.00  0.00    +0.000 A 
ATOM      4  C   UNL     1       5.553   6.122  17.049  0.00  0.00    +0.000 A 
ATOM      5  C   UNL     1       4.528   7.011  17.400  0.00  0.00    +0.000 A 
ATOM      6  C   UNL     1       3.272   6.531  17.800  0.00  0.00    +0.000 A 
ENDROOT
BRANCH   1   8
ATOM      7  O   UNL     1       1.580   4.497  19.446  0.00  0.00    +0.000 OA
ATOM      8  N   UNL     1       1.814   4.570  18.233  0.00  0.00    +0.000 N 
ATOM      9  O   UNL     1       1.081   4.143  17.330  0.00  0.00    +0.000 OA
ENDBRANCH   1   8
BRANCH   3  10
ATOM     10  O   UNL     1       6.373   3.932  16.749  0.00  0.00    +0.000 OA
ATOM     11  H   UNL     1       7.143   4.116  17.311  0.00  0.00    +0.000 HD
ENDBRANCH   3  10
BRANCH   6  12
ATOM     12  C   UNL     1       2.234   7.507  18.161  0.00  0.00    +0.000 C 
ATOM     13  C   UNL     1       2.327   8.802  17.815  0.00  0.00    +0.000 C 
BRANCH  13  14
ATOM     14  C   UNL     1       1.339   9.847  18.141  0.00  0.00    +0.000 A 
ATOM     15  C   UNL     1       1.696  11.136  18.565  0.00  0.00    +0.000 A 
ATOM     16  C   UNL     1       0.718  12.114  18.797  0.00  0.00    +0.000 A 
ATOM     17  C   UNL     1      -0.622  11.805  18.598  0.00  0.00    +0.000 A 
ATOM     18  C   UNL     1      -0.999  10.538  18.177  0.00  0.00    +0.000 A 
ATOM     19  C   UNL     1      -0.022   9.564  17.947  0.00  0.00    +0.000 A 
BRANCH  17  20
ATOM     20  O   UNL     1      -1.607  12.727  18.794  0.00  0.00    +0.000 OA
ATOM     21  H   UNL     1      -1.206  13.545  19.132  0.00  0.00    +0.000 HD
ENDBRANCH  17  20
ENDBRANCH  13  14
ENDBRANCH   6  12
TORSDOF 5
ENDMDL
MODEL 8
REMARK VINA RESULT:      -6.8      4.893      5.850
REMARK  Name = 
REMARK  5 active torsions:
REMARK  status: ('A' for Active; 'I' for Inactive)
REMARK    1  A    between atoms: N_2  and  C_4
REMARK    2  A    between atoms: C_6  and  O_7
REMARK    3  A    between atoms: C_10  and  C_11
REMARK    4  A    between atoms: C_12  and  C_13
REMARK    5  A    between atoms: C_16  and  O_17
REMARK                            x       y       z     vdW  Elec       q    Type
REMARK                         _______ _______ _______ _____ _____    ______ ____
ROOT
ATOM      1  C   UNL     1       3.175   4.838  17.656  0.00  0.00    +0.000 A 
ATOM      2  C   UNL     1       4.118   3.930  17.147  0.00  0.00    +0.000 A 
ATOM      3  C   UNL     1       5.323   4.429  16.671  0.00  0.00    +0.000 A 
ATOM      4  C   UNL     1       5.593   5.793  16.708  0.00  0.00    +0.000 A 
ATOM      5  C   UNL     1       4.647   6.686  17.229  0.00  0.00    +0.000 A 
ATOM      6  C   UNL     1       3.414   6.221  17.710  0.00  0.00    +0.000 A 
ENDROOT
BRANCH   1   8
ATOM      7  O   UNL     1       1.865   3.924  19.303  0.00  0.00    +0.000 OA
ATOM      8  N   UNL     1       1.915   4.287  18.121  0.00  0.00    +0.000 N 
ATOM      9  O   UNL     1       1.005   4.162  17.288  0.00  0.00    +0.000 OA
ENDBRANCH   1   8
BRANCH   3  10
ATOM     10  O   UNL     1       6.279   3.608  16.150  0.00  0.00    +0.000 OA
ATOM     11  H   UNL     1       6.711   4.044  15.399  0.00  0.00    +0.000 HD
ENDBRANCH   3  10
BRANCH   6  12
ATOM     12  C   UNL     1       2.461   7.201  18.250  0.00  0.00    +0.000 C 
ATOM     13  C   UNL     1       2.346   7.425  19.570  0.00  0.00    +0.000 C 
BRANCH  13  14
ATOM     14  C   UNL     1       1.414   8.380  20.197  0.00  0.00    +0.000 A 
ATOM     15  C   UNL     1       0.995   8.282  21.532  0.00  0.00    +0.000 A 
ATOM     16  C   UNL     1       0.161   9.256  22.098  0.00  0.00    +0.000 A 
ATOM     17  C   UNL     1      -0.252  10.338  21.330  0.00  0.00    +0.000 A 
ATOM     18  C   UNL     1       0.151  10.458  20.008  0.00  0.00    +0.000 A 
ATOM     19  C   UNL     1       0.982   9.485  19.445  0.00  0.00    +0.000 A 
BRANCH  17  20
ATOM     20  O   UNL     1      -1.050  11.318  21.842  0.00  0.00    +0.000 OA
ATOM     21  H   UNL     1      -0.487  12.037  22.171  0.00  0.00    +0.000 HD
ENDBRANCH  17  20
ENDBRANCH  13  14
ENDBRANCH   6  12
TORSDOF 5
ENDMDL
MODEL 9
REMARK VINA RESULT:      -6.8      4.346      4.782
REMARK  Name = 
REMARK  5 active torsions:
REMARK  status: ('A' for Active; 'I' for Inactive)
REMARK    1  A    between atoms: N_2  and  C_4
REMARK    2  A    between atoms: C_6  and  O_7
REMARK    3  A    between atoms: C_10  and  C_11
REMARK    4  A    between atoms: C_12  and  C_13
REMARK    5  A    between atoms: C_16  and  O_17
REMARK                            x       y       z     vdW  Elec       q    Type
REMARK                         _______ _______ _______ _____ _____    ______ ____
ROOT
ATOM      1  C   UNL     1       4.583   4.240  17.231  0.00  0.00    +0.000 A 
ATOM      2  C   UNL     1       5.318   3.535  16.264  0.00  0.00    +0.000 A 
ATOM      3  C   UNL     1       5.844   4.241  15.192  0.00  0.00    +0.000 A 
ATOM      4  C   UNL     1       5.658   5.616  15.085  0.00  0.00    +0.000 A 
ATOM      5  C   UNL     1       4.933   6.308  16.064  0.00  0.00    +0.000 A 
ATOM      6  C   UNL     1       4.377   5.627  17.156  0.00  0.00    +0.000 A 
ENDROOT
BRANCH   1   8
ATOM      7  O   UNL     1       2.881   3.019  18.169  0.00  0.00    +0.000 OA
ATOM      8  N   UNL     1       4.024   3.467  18.326  0.00  0.00    +0.000 N 
ATOM      9  O   UNL     1       4.703   3.366  19.358  0.00  0.00    +0.000 OA
ENDBRANCH   1   8
BRANCH   3  10
ATOM     10  O   UNL     1       6.555   3.620  14.208  0.00  0.00    +0.000 OA
ATOM     11  H   UNL     1       6.301   3.980  13.343  0.00  0.00    +0.000 HD
ENDBRANCH   3  10
BRANCH   6  12
ATOM     12  C   UNL     1       3.629   6.403  18.157  0.00  0.00    +0.000 C 
ATOM     13  C   UNL     1       2.851   7.443  17.810  0.00  0.00    +0.000 C 
BRANCH  13  14
ATOM     14  C   UNL     1       2.075   8.278  18.745  0.00  0.00    +0.000 A 
ATOM     15  C   UNL     1       1.427   9.463  18.362  0.00  0.00    +0.000 A 
ATOM     16  C   UNL     1       0.646  10.184  19.275  0.00  0.00    +0.000 A 
ATOM     17  C   UNL     1       0.504   9.717  20.576  0.00  0.00    +0.000 A 
ATOM     18  C   UNL     1       1.133   8.547  20.978  0.00  0.00    +0.000 A 
ATOM     19  C   UNL     1       1.913   7.830  20.065  0.00  0.00    +0.000 A 
BRANCH  17  20
ATOM     20  O   UNL     1      -0.258  10.375  21.494  0.00  0.00    +0.000 OA
ATOM     21  H   UNL     1       0.083  11.279  21.594  0.00  0.00    +0.000 HD
ENDBRANCH  17  20
ENDBRANCH  13  14
ENDBRANCH   6  12
TORSDOF 5
ENDMDL
