MODEL 1
REMARK VINA RESULT:      -7.1      0.000      0.000
REMARK  Name = 
REMARK  4 active torsions:
REMARK  status: ('A' for Active; 'I' for Inactive)
REMARK    1  A    between atoms: C_1  and  C_2
REMARK    2  A    between atoms: C_3  and  C_4
REMARK    3  A    between atoms: N_6  and  C_7
REMARK    4  A    between atoms: N_15  and  C_16
REMARK                            x       y       z     vdW  Elec       q    Type
REMARK                         _______ _______ _______ _____ _____    ______ ____
ROOT
ATOM      1  C   UNL     1       4.801   6.981  16.954  0.00  0.00    +0.000 C 
ATOM      2  C   UNL     1       5.749   6.294  17.866  0.00  0.00    +0.000 A 
ATOM      3  C   UNL     1       7.043   6.629  18.245  0.00  0.00    +0.000 A 
ATOM      4  N   UNL     1       7.427   5.798  19.274  0.00  0.00    +0.000 NA
ATOM      5  N   UNL     1       6.420   4.990  19.559  0.00  0.00    +0.000 NA
ATOM      6  N   UNL     1       5.427   5.195  18.656  0.00  0.00    +0.000 N 
ENDROOT
BRANCH   6   7
ATOM      7  C   UNL     1       4.259   4.394  18.699  0.00  0.00    +0.000 A 
ATOM      8  C   UNL     1       3.384   4.517  19.791  0.00  0.00    +0.000 A 
ATOM      9  C   UNL     1       2.189   3.787  19.818  0.00  0.00    +0.000 A 
ATOM     10  C   UNL     1       1.887   2.905  18.782  0.00  0.00    +0.000 A 
ATOM     11 CL   UNL     1       0.413   2.021  18.810  0.00  0.00    +0.000 Cl
ATOM     12  C   UNL     1       2.777   2.732  17.727  0.00  0.00    +0.000 A 
ATOM     13  C   UNL     1       3.958   3.474  17.695  0.00  0.00    +0.000 A 
ATOM     14  F   UNL     1       4.832   3.194  16.721  0.00  0.00    +0.000 F 
ENDBRANCH   6   7
BRANCH   3  15
ATOM     15  C   UNL     1       7.915   7.710  17.772  0.00  0.00    +0.000 C 
ATOM     16  O   UNL     1       8.358   7.771  16.629  0.00  0.00    +0.000 OA
ATOM     17  N   UNL     1       8.185   8.654  18.741  0.00  0.00    +0.000 N 
ATOM     18  H   UNL     1       7.794   8.470  19.661  0.00  0.00    +0.000 HD
BRANCH  17  19
ATOM     19  C   UNL     1       9.019   9.841  18.582  0.00  0.00    +0.000 C 
ATOM     20  C   UNL     1       9.620  10.360  19.895  0.00  0.00    +0.000 C 
ATOM     21  C   UNL     1      10.523  11.565  19.622  0.00  0.00    +0.000 C 
ATOM     22  C   UNL     1       9.800  12.617  18.783  0.00  0.00    +0.000 C 
ATOM     23  O   UNL     1       9.286  12.047  17.578  0.00  0.00    +0.000 OA
ATOM     24  C   UNL     1       8.341  11.000  17.837  0.00  0.00    +0.000 C 
ENDBRANCH  17  19
ENDBRANCH   3  15
TORSDOF 3
ENDMDL
MODEL 2
REMARK VINA RESULT:      -7.0      1.012      1.405
REMARK  Name = 
REMARK  4 active torsions:
REMARK  status: ('A' for Active; 'I' for Inactive)
REMARK    1  A    between atoms: C_1  and  C_2
REMARK    2  A    between atoms: C_3  and  C_4
REMARK    3  A    between atoms: N_6  and  C_7
REMARK    4  A    between atoms: N_15  and  C_16
REMARK                            x       y       z     vdW  Elec       q    Type
REMARK                         _______ _______ _______ _____ _____    ______ ____
ROOT
ATOM      1  C   UNL     1       4.759   6.995  16.836  0.00  0.00    +0.000 C 
ATOM      2  C   UNL     1       5.666   6.313  17.791  0.00  0.00    +0.000 A 
ATOM      3  C   UNL     1       6.957   6.628  18.197  0.00  0.00    +0.000 A 
ATOM      4  N   UNL     1       7.294   5.816  19.258  0.00  0.00    +0.000 NA
ATOM      5  N   UNL     1       6.262   5.038  19.535  0.00  0.00    +0.000 NA
ATOM      6  N   UNL     1       5.299   5.242  18.600  0.00  0.00    +0.000 N 
ENDROOT
BRANCH   6   7
ATOM      7  C   UNL     1       4.111   4.468  18.632  0.00  0.00    +0.000 A 
ATOM      8  C   UNL     1       4.032   3.303  17.853  0.00  0.00    +0.000 A 
ATOM      9  C   UNL     1       2.896   2.486  17.925  0.00  0.00    +0.000 A 
ATOM     10  C   UNL     1       1.825   2.853  18.738  0.00  0.00    +0.000 A 
ATOM     11 CL   UNL     1       0.438   1.842  18.836  0.00  0.00    +0.000 Cl
ATOM     12  C   UNL     1       1.871   4.037  19.466  0.00  0.00    +0.000 A 
ATOM     13  C   UNL     1       3.011   4.838  19.405  0.00  0.00    +0.000 A 
ATOM     14  F   UNL     1       2.966   6.019  20.033  0.00  0.00    +0.000 F 
ENDBRANCH   6   7
BRANCH   3  15
ATOM     15  C   UNL     1       7.867   7.676  17.721  0.00  0.00    +0.000 C 
ATOM     16  O   UNL     1       8.371   7.678  16.602  0.00  0.00    +0.000 OA
ATOM     17  N   UNL     1       8.095   8.664  18.656  0.00  0.00    +0.000 N 
ATOM     18  H   UNL     1       7.653   8.529  19.562  0.00  0.00    +0.000 HD
BRANCH  17  19
ATOM     19  C   UNL     1       8.951   9.834  18.487  0.00  0.00    +0.000 C 
ATOM     20  C   UNL     1       9.602  10.323  19.787  0.00  0.00    +0.000 C 
ATOM     21  C   UNL     1      10.523  11.511  19.500  0.00  0.00    +0.000 C 
ATOM     22  C   UNL     1       9.800  12.589  18.696  0.00  0.00    +0.000 C 
ATOM     23  O   UNL     1       9.237  12.046  17.501  0.00  0.00    +0.000 OA
ATOM     24  C   UNL     1       8.277  11.017  17.776  0.00  0.00    +0.000 C 
ENDBRANCH  17  19
ENDBRANCH   3  15
TORSDOF 3
ENDMDL
MODEL 3
REMARK VINA RESULT:      -6.8      5.962      7.135
REMARK  Name = 
REMARK  4 active torsions:
REMARK  status: ('A' for Active; 'I' for Inactive)
REMARK    1  A    between atoms: C_1  and  C_2
REMARK    2  A    between atoms: C_3  and  C_4
REMARK    3  A    between atoms: N_6  and  C_7
REMARK    4  A    between atoms: N_15  and  C_16
REMARK                            x       y       z     vdW  Elec       q    Type
REMARK                         _______ _______ _______ _____ _____    ______ ____
ROOT
ATOM      1  C   UNL     1       1.475   7.403  20.720  0.00  0.00    +0.000 C 
ATOM      2  C   UNL     1       1.830   7.812  19.339  0.00  0.00    +0.000 A 
ATOM      3  C   UNL     1       1.780   9.056  18.721  0.00  0.00    +0.000 A 
ATOM      4  N   UNL     1       2.415   8.967  17.502  0.00  0.00    +0.000 NA
ATOM      5  N   UNL     1       2.874   7.735  17.357  0.00  0.00    +0.000 NA
ATOM      6  N   UNL     1       2.446   6.984  18.405  0.00  0.00    +0.000 N 
ENDROOT
BRANCH   6   7
ATOM      7  C   UNL     1       2.745   5.599  18.446  0.00  0.00    +0.000 A 
ATOM      8  C   UNL     1       1.831   4.685  17.898  0.00  0.00    +0.000 A 
ATOM      9  C   UNL     1       2.140   3.319  17.865  0.00  0.00    +0.000 A 
ATOM     10  C   UNL     1       3.336   2.861  18.415  0.00  0.00    +0.000 A 
ATOM     11 CL   UNL     1       3.719   1.186  18.361  0.00  0.00    +0.000 Cl
ATOM     12  C   UNL     1       4.219   3.754  19.015  0.00  0.00    +0.000 A 
ATOM     13  C   UNL     1       3.916   5.115  19.030  0.00  0.00    +0.000 A 
ATOM     14  F   UNL     1       4.739   5.919  19.713  0.00  0.00    +0.000 F 
ENDBRANCH   6   7
BRANCH   3  15
ATOM     15  C   UNL     1       1.251  10.333  19.214  0.00  0.00    +0.000 C 
ATOM     16  O   UNL     1       1.612  11.425  18.787  0.00  0.00    +0.000 OA
ATOM     17  N   UNL     1       0.302  10.182  20.203  0.00  0.00    +0.000 N 
ATOM     18  H   UNL     1       0.118   9.228  20.501  0.00  0.00    +0.000 HD
BRANCH  17  19
ATOM     19  C   UNL     1      -0.405  11.257  20.894  0.00  0.00    +0.000 C 
ATOM     20  C   UNL     1      -0.779  10.925  22.345  0.00  0.00    +0.000 C 
ATOM     21  C   UNL     1      -1.460  12.127  23.002  0.00  0.00    +0.000 C 
ATOM     22  C   UNL     1      -2.610  12.648  22.143  0.00  0.00    +0.000 C 
ATOM     23  O   UNL     1      -2.167  12.940  20.816  0.00  0.00    +0.000 OA
ATOM     24  C   UNL     1      -1.645  11.781  20.154  0.00  0.00    +0.000 C 
ENDBRANCH  17  19
ENDBRANCH   3  15
TORSDOF 3
ENDMDL
MODEL 4
REMARK VINA RESULT:      -6.7      5.971      7.150
REMARK  Name = 
REMARK  4 active torsions:
REMARK  status: ('A' for Active; 'I' for Inactive)
REMARK    1  A    between atoms: C_1  and  C_2
REMARK    2  A    between atoms: C_3  and  C_4
REMARK    3  A    between atoms: N_6  and  C_7
REMARK    4  A    between atoms: N_15  and  C_16
REMARK                            x       y       z     vdW  Elec       q    Type
REMARK                         _______ _______ _______ _____ _____    ______ ____
ROOT
ATOM      1  C   UNL     1       1.616   7.393  20.708  0.00  0.00    +0.000 C 
ATOM      2  C   UNL     1       1.893   7.821  19.314  0.00  0.00    +0.000 A 
ATOM      3  C   UNL     1       1.784   9.068  18.712  0.00  0.00    +0.000 A 
ATOM      4  N   UNL     1       2.360   9.003  17.462  0.00  0.00    +0.000 NA
ATOM      5  N   UNL     1       2.839   7.784  17.283  0.00  0.00    +0.000 NA
ATOM      6  N   UNL     1       2.481   7.015  18.344  0.00  0.00    +0.000 N 
ENDROOT
BRANCH   6   7
ATOM      7  C   UNL     1       2.814   5.637  18.359  0.00  0.00    +0.000 A 
ATOM      8  C   UNL     1       4.048   5.236  18.893  0.00  0.00    +0.000 A 
ATOM      9  C   UNL     1       4.365   3.875  18.982  0.00  0.00    +0.000 A 
ATOM     10  C   UNL     1       3.473   2.919  18.501  0.00  0.00    +0.000 A 
ATOM     11 CL   UNL     1       3.857   1.248  18.625  0.00  0.00    +0.000 Cl
ATOM     12  C   UNL     1       2.274   3.311  17.915  0.00  0.00    +0.000 A 
ATOM     13  C   UNL     1       1.954   4.667  17.844  0.00  0.00    +0.000 A 
ATOM     14  F   UNL     1       0.845   5.001  17.175  0.00  0.00    +0.000 F 
ENDBRANCH   6   7
BRANCH   3  15
ATOM     15  C   UNL     1       1.250  10.328  19.241  0.00  0.00    +0.000 C 
ATOM     16  O   UNL     1       1.628  11.434  18.865  0.00  0.00    +0.000 OA
ATOM     17  N   UNL     1       0.277  10.145  20.201  0.00  0.00    +0.000 N 
ATOM     18  H   UNL     1       0.081   9.182  20.457  0.00  0.00    +0.000 HD
BRANCH  17  19
ATOM     19  C   UNL     1      -0.440  11.197  20.917  0.00  0.00    +0.000 C 
ATOM     20  C   UNL     1      -0.817  10.825  22.357  0.00  0.00    +0.000 C 
ATOM     21  C   UNL     1      -1.509  12.005  23.042  0.00  0.00    +0.000 C 
ATOM     22  C   UNL     1      -2.659  12.540  22.191  0.00  0.00    +0.000 C 
ATOM     23  O   UNL     1      -2.213  12.870  20.875  0.00  0.00    +0.000 OA
ATOM     24  C   UNL     1      -1.680  11.732  20.185  0.00  0.00    +0.000 C 
ENDBRANCH  17  19
ENDBRANCH   3  15
TORSDOF 3
ENDMDL
MODEL 5
REMARK VINA RESULT:      -6.7      6.435      9.074
REMARK  Name = 
REMARK  4 active torsions:
REMARK  status: ('A' for Active; 'I' for Inactive)
REMARK    1  A    between atoms: C_1  and  C_2
REMARK    2  A    between atoms: C_3  and  C_4
REMARK    3  A    between atoms: N_6  and  C_7
REMARK    4  A    between atoms: N_15  and  C_16
REMARK                            x       y       z     vdW  Elec       q    Type
REMARK                         _______ _______ _______ _____ _____    ______ ____
ROOT
ATOM      1  C   UNL     1       0.327   9.211  20.842  0.00  0.00    +0.000 C 
ATOM      2  C   UNL     1       1.223   9.132  19.662  0.00  0.00    +0.000 A 
ATOM      3  C   UNL     1       1.918   8.057  19.123  0.00  0.00    +0.000 A 
ATOM      4  N   UNL     1       2.439   8.436  17.905  0.00  0.00    +0.000 NA
ATOM      5  N   UNL     1       2.073   9.683  17.663  0.00  0.00    +0.000 NA
ATOM      6  N   UNL     1       1.424  10.167  18.753  0.00  0.00    +0.000 N 
ENDROOT
BRANCH   6   7
ATOM      7  C   UNL     1       0.992  11.517  18.774  0.00  0.00    +0.000 A 
ATOM      8  C   UNL     1       1.912  12.525  19.103  0.00  0.00    +0.000 A 
ATOM      9  C   UNL     1       1.524  13.870  19.059  0.00  0.00    +0.000 A 
ATOM     10  C   UNL     1       0.212  14.207  18.731  0.00  0.00    +0.000 A 
ATOM     11 CL   UNL     1      -0.259  15.859  18.664  0.00  0.00    +0.000 Cl
ATOM     12  C   UNL     1      -0.721  13.211  18.463  0.00  0.00    +0.000 A 
ATOM     13  C   UNL     1      -0.326  11.873  18.490  0.00  0.00    +0.000 A 
ATOM     14  F   UNL     1      -1.281  10.949  18.335  0.00  0.00    +0.000 F 
ENDBRANCH   6   7
BRANCH   3  15
ATOM     15  C   UNL     1       2.069   6.685  19.623  0.00  0.00    +0.000 C 
ATOM     16  O   UNL     1       1.917   6.373  20.799  0.00  0.00    +0.000 OA
ATOM     17  N   UNL     1       2.396   5.780  18.634  0.00  0.00    +0.000 N 
ATOM     18  H   UNL     1       2.536   6.168  17.706  0.00  0.00    +0.000 HD
BRANCH  17  19
ATOM     19  C   UNL     1       2.617   4.348  18.812  0.00  0.00    +0.000 C 
ATOM     20  C   UNL     1       4.054   3.984  19.204  0.00  0.00    +0.000 C 
ATOM     21  C   UNL     1       4.174   2.474  19.425  0.00  0.00    +0.000 C 
ATOM     22  C   UNL     1       3.612   1.696  18.237  0.00  0.00    +0.000 C 
ATOM     23  O   UNL     1       2.269   2.093  17.953  0.00  0.00    +0.000 OA
ATOM     24  C   UNL     1       2.177   3.484  17.621  0.00  0.00    +0.000 C 
ENDBRANCH  17  19
ENDBRANCH   3  15
TORSDOF 3
ENDMDL
MODEL 6
REMARK VINA RESULT:      -6.7      6.229      7.818
REMARK  Name = 
REMARK  4 active torsions:
REMARK  status: ('A' for Active; 'I' for Inactive)
REMARK    1  A    between atoms: C_1  and  C_2
REMARK    2  A    between atoms: C_3  and  C_4
REMARK    3  A    between atoms: N_6  and  C_7
REMARK    4  A    between atoms: N_15  and  C_16
REMARK                            x       y       z     vdW  Elec       q    Type
REMARK                         _______ _______ _______ _____ _____    ______ ____
ROOT
ATOM      1  C   UNL     1       1.236   8.046  20.988  0.00  0.00    +0.000 C 
ATOM      2  C   UNL     1       1.568   8.610  19.657  0.00  0.00    +0.000 A 
ATOM      3  C   UNL     1       2.271   8.061  18.591  0.00  0.00    +0.000 A 
ATOM      4  N   UNL     1       2.128   8.888  17.499  0.00  0.00    +0.000 NA
ATOM      5  N   UNL     1       1.349   9.902  17.839  0.00  0.00    +0.000 NA
ATOM      6  N   UNL     1       1.079   9.817  19.167  0.00  0.00    +0.000 N 
ENDROOT
BRANCH   6   7
ATOM      7  C   UNL     1       0.318  10.834  19.796  0.00  0.00    +0.000 A 
ATOM      8  C   UNL     1       0.954  11.712  20.688  0.00  0.00    +0.000 A 
ATOM      9  C   UNL     1       0.237  12.767  21.266  0.00  0.00    +0.000 A 
ATOM     10  C   UNL     1      -1.120  12.921  20.988  0.00  0.00    +0.000 A 
ATOM     11 CL   UNL     1      -1.996  14.226  21.686  0.00  0.00    +0.000 Cl
ATOM     12  C   UNL     1      -1.772  12.020  20.153  0.00  0.00    +0.000 A 
ATOM     13  C   UNL     1      -1.050  10.980  19.566  0.00  0.00    +0.000 A 
ATOM     14  F   UNL     1      -1.739  10.076  18.861  0.00  0.00    +0.000 F 
ENDBRANCH   6   7
BRANCH   3  15
ATOM     15  C   UNL     1       3.001   6.792  18.496  0.00  0.00    +0.000 C 
ATOM     16  O   UNL     1       2.678   5.778  19.106  0.00  0.00    +0.000 OA
ATOM     17  N   UNL     1       4.086   6.853  17.646  0.00  0.00    +0.000 N 
ATOM     18  H   UNL     1       4.276   7.761  17.232  0.00  0.00    +0.000 HD
BRANCH  17  19
ATOM     19  C   UNL     1       5.009   5.762  17.344  0.00  0.00    +0.000 C 
ATOM     20  C   UNL     1       6.370   5.886  18.042  0.00  0.00    +0.000 C 
ATOM     21  C   UNL     1       7.243   4.674  17.713  0.00  0.00    +0.000 C 
ATOM     22  C   UNL     1       7.310   4.434  16.206  0.00  0.00    +0.000 C 
ATOM     23  O   UNL     1       6.001   4.320  15.646  0.00  0.00    +0.000 OA
ATOM     24  C   UNL     1       5.224   5.509  15.844  0.00  0.00    +0.000 C 
ENDBRANCH  17  19
ENDBRANCH   3  15
TORSDOF 3
ENDMDL
MODEL 7
REMARK VINA RESULT:      -6.7      7.542      9.614
REMARK  Name = 
REMARK  4 active torsions:
REMARK  status: ('A' for Active; 'I' for Inactive)
REMARK    1  A    between atoms: C_1  and  C_2
REMARK    2  A    between atoms: C_3  and  C_4
REMARK    3  A    between atoms: N_6  and  C_7
REMARK    4  A    between atoms: N_15  and  C_16
REMARK                            x       y       z     vdW  Elec       q    Type
REMARK                         _______ _______ _______ _____ _____    ______ ____
ROOT
ATOM      1  C   UNL     1      -0.197  10.219  19.334  0.00  0.00    +0.000 C 
ATOM      2  C   UNL     1       0.368   9.764  20.628  0.00  0.00    +0.000 A 
ATOM      3  C   UNL     1       1.228   8.713  20.922  0.00  0.00    +0.000 A 
ATOM      4  N   UNL     1       1.632   8.830  22.233  0.00  0.00    +0.000 NA
ATOM      5  N   UNL     1       1.081   9.916  22.747  0.00  0.00    +0.000 NA
ATOM      6  N   UNL     1       0.228  10.446  21.833  0.00  0.00    +0.000 N 
ENDROOT
BRANCH   6   7
ATOM      7  C   UNL     1      -0.548  11.583  22.171  0.00  0.00    +0.000 A 
ATOM      8  C   UNL     1      -1.749  11.407  22.877  0.00  0.00    +0.000 A 
ATOM      9  C   UNL     1      -2.495  12.521  23.282  0.00  0.00    +0.000 A 
ATOM     10  C   UNL     1      -2.067  13.805  22.949  0.00  0.00    +0.000 A 
ATOM     11 CL   UNL     1      -2.975  15.172  23.460  0.00  0.00    +0.000 Cl
ATOM     12  C   UNL     1      -0.909  13.985  22.198  0.00  0.00    +0.000 A 
ATOM     13  C   UNL     1      -0.161  12.874  21.810  0.00  0.00    +0.000 A 
ATOM     14  F   UNL     1       0.880  13.088  20.998  0.00  0.00    +0.000 F 
ENDBRANCH   6   7
BRANCH   3  15
ATOM     15  C   UNL     1       1.757   7.656  20.052  0.00  0.00    +0.000 C 
ATOM     16  O   UNL     1       2.180   7.860  18.919  0.00  0.00    +0.000 OA
ATOM     17  N   UNL     1       1.733   6.408  20.640  0.00  0.00    +0.000 N 
ATOM     18  H   UNL     1       1.320   6.361  21.567  0.00  0.00    +0.000 HD
BRANCH  17  19
ATOM     19  C   UNL     1       2.185   5.159  20.034  0.00  0.00    +0.000 C 
ATOM     20  C   UNL     1       1.652   3.900  20.731  0.00  0.00    +0.000 C 
ATOM     21  C   UNL     1       2.129   2.647  19.993  0.00  0.00    +0.000 C 
ATOM     22  C   UNL     1       3.641   2.675  19.778  0.00  0.00    +0.000 C 
ATOM     23  O   UNL     1       4.043   3.875  19.114  0.00  0.00    +0.000 OA
ATOM     24  C   UNL     1       3.708   5.047  19.869  0.00  0.00    +0.000 C 
ENDBRANCH  17  19
ENDBRANCH   3  15
TORSDOF 3
ENDMDL
MODEL 8
REMARK VINA RESULT:      -6.6      6.268      9.039
REMARK  Name = 
REMARK  4 active torsions:
REMARK  status: ('A' for Active; 'I' for Inactive)
REMARK    1  A    between atoms: C_1  and  C_2
REMARK    2  A    between atoms: C_3  and  C_4
REMARK    3  A    between atoms: N_6  and  C_7
REMARK    4  A    between atoms: N_15  and  C_16
REMARK                            x       y       z     vdW  Elec       q    Type
REMARK                         _______ _______ _______ _____ _____    ______ ____
ROOT
ATOM      1  C   UNL     1       0.781   8.748  20.773  0.00  0.00    +0.000 C 
ATOM      2  C   UNL     1       1.466   8.933  19.470  0.00  0.00    +0.000 A 
ATOM      3  C   UNL     1       2.155   8.027  18.673  0.00  0.00    +0.000 A 
ATOM      4  N   UNL     1       2.424   8.624  17.461  0.00  0.00    +0.000 NA
ATOM      5  N   UNL     1       1.909   9.842  17.471  0.00  0.00    +0.000 NA
ATOM      6  N   UNL     1       1.414  10.097  18.709  0.00  0.00    +0.000 N 
ENDROOT
BRANCH   6   7
ATOM      7  C   UNL     1       0.870  11.373  19.002  0.00  0.00    +0.000 A 
ATOM      8  C   UNL     1       1.733  12.417  19.370  0.00  0.00    +0.000 A 
ATOM      9  C   UNL     1       1.224  13.702  19.594  0.00  0.00    +0.000 A 
ATOM     10  C   UNL     1      -0.146  13.936  19.492  0.00  0.00    +0.000 A 
ATOM     11 CL   UNL     1      -0.768  15.518  19.752  0.00  0.00    +0.000 Cl
ATOM     12  C   UNL     1      -1.015  12.894  19.186  0.00  0.00    +0.000 A 
ATOM     13  C   UNL     1      -0.502  11.619  18.947  0.00  0.00    +0.000 A 
ATOM     14  F   UNL     1      -1.382  10.627  18.767  0.00  0.00    +0.000 F 
ENDBRANCH   6   7
BRANCH   3  15
ATOM     15  C   UNL     1       2.514   6.627  18.929  0.00  0.00    +0.000 C 
ATOM     16  O   UNL     1       3.118   6.255  19.930  0.00  0.00    +0.000 OA
ATOM     17  N   UNL     1       2.099   5.769  17.931  0.00  0.00    +0.000 N 
ATOM     18  H   UNL     1       1.645   6.204  17.132  0.00  0.00    +0.000 HD
BRANCH  17  19
ATOM     19  C   UNL     1       2.307   4.325  17.892  0.00  0.00    +0.000 C 
ATOM     20  C   UNL     1       1.586   3.561  19.010  0.00  0.00    +0.000 C 
ATOM     21  C   UNL     1       1.813   2.056  18.852  0.00  0.00    +0.000 C 
ATOM     22  C   UNL     1       3.299   1.735  18.705  0.00  0.00    +0.000 C 
ATOM     23  O   UNL     1       3.882   2.481  17.636  0.00  0.00    +0.000 OA
ATOM     24  C   UNL     1       3.781   3.896  17.847  0.00  0.00    +0.000 C 
ENDBRANCH  17  19
ENDBRANCH   3  15
TORSDOF 3
ENDMDL
MODEL 9
REMARK VINA RESULT:      -6.6      6.286      8.735
REMARK  Name = 
REMARK  4 active torsions:
REMARK  status: ('A' for Active; 'I' for Inactive)
REMARK    1  A    between atoms: C_1  and  C_2
REMARK    2  A    between atoms: C_3  and  C_4
REMARK    3  A    between atoms: N_6  and  C_7
REMARK    4  A    between atoms: N_15  and  C_16
REMARK                            x       y       z     vdW  Elec       q    Type
REMARK                         _______ _______ _______ _____ _____    ______ ____
ROOT
ATOM      1  C   UNL     1       1.297   7.978  20.790  0.00  0.00    +0.000 C 
ATOM      2  C   UNL     1       1.566   8.696  19.520  0.00  0.00    +0.000 A 
ATOM      3  C   UNL     1       2.276   8.304  18.392  0.00  0.00    +0.000 A 
ATOM      4  N   UNL     1       2.062   9.230  17.395  0.00  0.00    +0.000 NA
ATOM      5  N   UNL     1       1.233  10.155  17.852  0.00  0.00    +0.000 NA
ATOM      6  N   UNL     1       0.998   9.916  19.168  0.00  0.00    +0.000 N 
ENDROOT
BRANCH   6   7
ATOM      7  C   UNL     1       0.194  10.815  19.913  0.00  0.00    +0.000 A 
ATOM      8  C   UNL     1       0.776  11.550  20.957  0.00  0.00    +0.000 A 
ATOM      9  C   UNL     1       0.017  12.495  21.658  0.00  0.00    +0.000 A 
ATOM     10  C   UNL     1      -1.330  12.676  21.348  0.00  0.00    +0.000 A 
ATOM     11 CL   UNL     1      -2.257  13.847  22.200  0.00  0.00    +0.000 Cl
ATOM     12  C   UNL     1      -1.930  11.908  20.355  0.00  0.00    +0.000 A 
ATOM     13  C   UNL     1      -1.166  10.980  19.648  0.00  0.00    +0.000 A 
ATOM     14  F   UNL     1      -1.809  10.189  18.781  0.00  0.00    +0.000 F 
ENDBRANCH   6   7
BRANCH   3  15
ATOM     15  C   UNL     1       3.076   7.098  18.152  0.00  0.00    +0.000 C 
ATOM     16  O   UNL     1       4.231   7.122  17.738  0.00  0.00    +0.000 OA
ATOM     17  N   UNL     1       2.400   5.931  18.444  0.00  0.00    +0.000 N 
ATOM     18  H   UNL     1       1.434   6.040  18.740  0.00  0.00    +0.000 HD
BRANCH  17  19
ATOM     19  C   UNL     1       2.920   4.574  18.308  0.00  0.00    +0.000 C 
ATOM     20  C   UNL     1       1.889   3.561  17.791  0.00  0.00    +0.000 C 
ATOM     21  C   UNL     1       2.539   2.186  17.626  0.00  0.00    +0.000 C 
ATOM     22  C   UNL     1       3.276   1.766  18.896  0.00  0.00    +0.000 C 
ATOM     23  O   UNL     1       4.220   2.762  19.294  0.00  0.00    +0.000 OA
ATOM     24  C   UNL     1       3.592   4.020  19.573  0.00  0.00    +0.000 C 
ENDBRANCH  17  19
ENDBRANCH   3  15
TORSDOF 3
ENDMDL
