MODEL 1
REMARK VINA RESULT:      -7.7      0.000      0.000
REMARK  Name = 
REMARK  7 active torsions:
REMARK  status: ('A' for Active; 'I' for Inactive)
REMARK    1  A    between atoms: C_1  and  C_2
REMARK    2  A    between atoms: C_2  and  C_3
REMARK    3  A    between atoms: C_3  and  O_4
REMARK    4  A    between atoms: O_4  and  C_5
REMARK    5  A    between atoms: C_8  and  N_9
REMARK    6  A    between atoms: N_16  and  C_17
REMARK    7  A    between atoms: C_17  and  C_18
REMARK                            x       y       z     vdW  Elec       q    Type
REMARK                         _______ _______ _______ _____ _____    ______ ____
ROOT
ATOM      1  C   UNL     1       2.263   6.755  19.937  0.00  0.00    +0.000 A 
ATOM      2  C   UNL     1       1.664   7.965  20.227  0.00  0.00    +0.000 A 
ATOM      3  C   UNL     1       1.089   8.331  21.442  0.00  0.00    +0.000 A 
ATOM      4  C   UNL     1       0.495   9.610  21.379  0.00  0.00    +0.000 A 
ATOM      5  C   UNL     1       0.488  10.429  20.208  0.00  0.00    +0.000 A 
ATOM      6  C   UNL     1       1.099  10.030  18.996  0.00  0.00    +0.000 A 
ATOM      7  C   UNL     1       1.705   8.760  19.026  0.00  0.00    +0.000 A 
ATOM      8  N   UNL     1       2.348   8.091  18.066  0.00  0.00    +0.000 NA
ATOM      9  N   UNL     1       2.747   6.924  18.644  0.00  0.00    +0.000 N 
ENDROOT
BRANCH   4  10
ATOM     10  N   UNL     1      -0.152  10.119  22.605  0.00  0.00    +0.000 N 
ATOM     11  O   UNL     1      -1.096  10.904  22.474  0.00  0.00    +0.000 OA
ATOM     12  O   UNL     1       0.299   9.730  23.693  0.00  0.00    +0.000 OA
ENDBRANCH   4  10
BRANCH   1  13
ATOM     13  O   UNL     1       2.411   5.607  20.613  0.00  0.00    +0.000 OA
BRANCH  13  14
ATOM     14  C   UNL     1       1.292   4.700  20.539  0.00  0.00    +0.000 C 
BRANCH  14  16
ATOM     15  C   UNL     1       1.671   2.318  19.824  0.00  0.00    +0.000 C 
ATOM     16  C   UNL     1       1.756   3.316  20.967  0.00  0.00    +0.000 C 
ENDBRANCH  14  16
ENDBRANCH  13  14
ENDBRANCH   1  13
BRANCH   9  17
ATOM     17  C   UNL     1       3.461   5.951  17.816  0.00  0.00    +0.000 C 
BRANCH  17  18
ATOM     18  C   UNL     1       4.961   6.017  17.988  0.00  0.00    +0.000 A 
ATOM     19  C   UNL     1       5.578   5.309  19.029  0.00  0.00    +0.000 A 
ATOM     20  C   UNL     1       6.946   5.444  19.268  0.00  0.00    +0.000 A 
ATOM     21  C   UNL     1       7.721   6.264  18.451  0.00  0.00    +0.000 A 
ATOM     22  C   UNL     1       7.134   6.923  17.373  0.00  0.00    +0.000 A 
ATOM     23  C   UNL     1       5.760   6.803  17.142  0.00  0.00    +0.000 A 
ENDBRANCH  17  18
ENDBRANCH   9  17
TORSDOF 6
ENDMDL
MODEL 2
REMARK VINA RESULT:      -7.6      1.781      2.162
REMARK  Name = 
REMARK  7 active torsions:
REMARK  status: ('A' for Active; 'I' for Inactive)
REMARK    1  A    between atoms: C_1  and  C_2
REMARK    2  A    between atoms: C_2  and  C_3
REMARK    3  A    between atoms: C_3  and  O_4
REMARK    4  A    between atoms: O_4  and  C_5
REMARK    5  A    between atoms: C_8  and  N_9
REMARK    6  A    between atoms: N_16  and  C_17
REMARK    7  A    between atoms: C_17  and  C_18
REMARK                            x       y       z     vdW  Elec       q    Type
REMARK                         _______ _______ _______ _____ _____    ______ ____
ROOT
ATOM      1  C   UNL     1       2.695   5.693  19.821  0.00  0.00    +0.000 A 
ATOM      2  C   UNL     1       2.290   6.996  19.606  0.00  0.00    +0.000 A 
ATOM      3  C   UNL     1       1.596   7.803  20.504  0.00  0.00    +0.000 A 
ATOM      4  C   UNL     1       1.267   9.056  19.942  0.00  0.00    +0.000 A 
ATOM      5  C   UNL     1       1.610   9.446  18.610  0.00  0.00    +0.000 A 
ATOM      6  C   UNL     1       2.333   8.605  17.733  0.00  0.00    +0.000 A 
ATOM      7  C   UNL     1       2.680   7.349  18.264  0.00  0.00    +0.000 A 
ATOM      8  N   UNL     1       3.340   6.332  17.706  0.00  0.00    +0.000 NA
ATOM      9  N   UNL     1       3.414   5.375  18.673  0.00  0.00    +0.000 N 
ENDROOT
BRANCH   4  10
ATOM     10  N   UNL     1       0.528  10.009  20.793  0.00  0.00    +0.000 N 
ATOM     11  O   UNL     1       1.109  10.468  21.782  0.00  0.00    +0.000 OA
ATOM     12  O   UNL     1      -0.636  10.286  20.464  0.00  0.00    +0.000 OA
ENDBRANCH   4  10
BRANCH   1  13
ATOM     13  O   UNL     1       2.513   4.817  20.818  0.00  0.00    +0.000 OA
BRANCH  13  14
ATOM     14  C   UNL     1       1.243   4.133  20.812  0.00  0.00    +0.000 C 
BRANCH  14  16
ATOM     15  C   UNL     1       0.804   2.473  18.974  0.00  0.00    +0.000 C 
ATOM     16  C   UNL     1       1.457   2.708  20.327  0.00  0.00    +0.000 C 
ENDBRANCH  14  16
ENDBRANCH  13  14
ENDBRANCH   1  13
BRANCH   9  17
ATOM     17  C   UNL     1       4.065   4.106  18.343  0.00  0.00    +0.000 C 
BRANCH  17  18
ATOM     18  C   UNL     1       5.139   4.250  17.288  0.00  0.00    +0.000 A 
ATOM     19  C   UNL     1       6.425   4.670  17.653  0.00  0.00    +0.000 A 
ATOM     20  C   UNL     1       7.397   4.912  16.681  0.00  0.00    +0.000 A 
ATOM     21  C   UNL     1       7.104   4.708  15.335  0.00  0.00    +0.000 A 
ATOM     22  C   UNL     1       5.850   4.229  14.962  0.00  0.00    +0.000 A 
ATOM     23  C   UNL     1       4.869   4.002  15.933  0.00  0.00    +0.000 A 
ENDBRANCH  17  18
ENDBRANCH   9  17
TORSDOF 6
ENDMDL
MODEL 3
REMARK VINA RESULT:      -7.6      0.335      1.242
REMARK  Name = 
REMARK  7 active torsions:
REMARK  status: ('A' for Active; 'I' for Inactive)
REMARK    1  A    between atoms: C_1  and  C_2
REMARK    2  A    between atoms: C_2  and  C_3
REMARK    3  A    between atoms: C_3  and  O_4
REMARK    4  A    between atoms: O_4  and  C_5
REMARK    5  A    between atoms: C_8  and  N_9
REMARK    6  A    between atoms: N_16  and  C_17
REMARK    7  A    between atoms: C_17  and  C_18
REMARK                            x       y       z     vdW  Elec       q    Type
REMARK                         _______ _______ _______ _____ _____    ______ ____
ROOT
ATOM      1  C   UNL     1       2.199   6.811  19.962  0.00  0.00    +0.000 A 
ATOM      2  C   UNL     1       1.602   8.014  20.284  0.00  0.00    +0.000 A 
ATOM      3  C   UNL     1       1.038   8.353  21.511  0.00  0.00    +0.000 A 
ATOM      4  C   UNL     1       0.442   9.633  21.482  0.00  0.00    +0.000 A 
ATOM      5  C   UNL     1       0.424  10.477  20.329  0.00  0.00    +0.000 A 
ATOM      6  C   UNL     1       1.024  10.105  19.103  0.00  0.00    +0.000 A 
ATOM      7  C   UNL     1       1.631   8.836  19.100  0.00  0.00    +0.000 A 
ATOM      8  N   UNL     1       2.265   8.188  18.120  0.00  0.00    +0.000 NA
ATOM      9  N   UNL     1       2.671   7.009  18.669  0.00  0.00    +0.000 N 
ENDROOT
BRANCH   4  10
ATOM     10  N   UNL     1      -0.194  10.114  22.724  0.00  0.00    +0.000 N 
ATOM     11  O   UNL     1       0.271   9.720  23.798  0.00  0.00    +0.000 OA
ATOM     12  O   UNL     1      -1.162  10.882  22.611  0.00  0.00    +0.000 OA
ENDBRANCH   4  10
BRANCH   1  13
ATOM     13  O   UNL     1       2.355   5.649  20.611  0.00  0.00    +0.000 OA
BRANCH  13  14
ATOM     14  C   UNL     1       1.240   4.738  20.519  0.00  0.00    +0.000 C 
BRANCH  14  16
ATOM     15  C   UNL     1       1.064   2.815  18.907  0.00  0.00    +0.000 C 
ATOM     16  C   UNL     1       1.763   3.361  20.142  0.00  0.00    +0.000 C 
ENDBRANCH  14  16
ENDBRANCH  13  14
ENDBRANCH   1  13
BRANCH   9  17
ATOM     17  C   UNL     1       3.378   6.054  17.813  0.00  0.00    +0.000 C 
BRANCH  17  18
ATOM     18  C   UNL     1       4.876   6.074  18.017  0.00  0.00    +0.000 A 
ATOM     19  C   UNL     1       5.692   6.799  17.138  0.00  0.00    +0.000 A 
ATOM     20  C   UNL     1       7.082   6.742  17.248  0.00  0.00    +0.000 A 
ATOM     21  C   UNL     1       7.673   5.983  18.256  0.00  0.00    +0.000 A 
ATOM     22  C   UNL     1       6.873   5.309  19.177  0.00  0.00    +0.000 A 
ATOM     23  C   UNL     1       5.481   5.352  19.058  0.00  0.00    +0.000 A 
ENDBRANCH  17  18
ENDBRANCH   9  17
TORSDOF 6
ENDMDL
MODEL 4
REMARK VINA RESULT:      -7.6      1.732      2.169
REMARK  Name = 
REMARK  7 active torsions:
REMARK  status: ('A' for Active; 'I' for Inactive)
REMARK    1  A    between atoms: C_1  and  C_2
REMARK    2  A    between atoms: C_2  and  C_3
REMARK    3  A    between atoms: C_3  and  O_4
REMARK    4  A    between atoms: O_4  and  C_5
REMARK    5  A    between atoms: C_8  and  N_9
REMARK    6  A    between atoms: N_16  and  C_17
REMARK    7  A    between atoms: C_17  and  C_18
REMARK                            x       y       z     vdW  Elec       q    Type
REMARK                         _______ _______ _______ _____ _____    ______ ____
ROOT
ATOM      1  C   UNL     1       2.623   5.749  19.848  0.00  0.00    +0.000 A 
ATOM      2  C   UNL     1       2.217   7.056  19.670  0.00  0.00    +0.000 A 
ATOM      3  C   UNL     1       1.524   7.838  20.591  0.00  0.00    +0.000 A 
ATOM      4  C   UNL     1       1.194   9.106  20.064  0.00  0.00    +0.000 A 
ATOM      5  C   UNL     1       1.534   9.532  18.742  0.00  0.00    +0.000 A 
ATOM      6  C   UNL     1       2.255   8.716  17.841  0.00  0.00    +0.000 A 
ATOM      7  C   UNL     1       2.604   7.446  18.337  0.00  0.00    +0.000 A 
ATOM      8  N   UNL     1       3.264   6.445  17.750  0.00  0.00    +0.000 NA
ATOM      9  N   UNL     1       3.340   5.462  18.691  0.00  0.00    +0.000 N 
ENDROOT
BRANCH   4  10
ATOM     10  N   UNL     1       0.455  10.035  20.942  0.00  0.00    +0.000 N 
ATOM     11  O   UNL     1       0.963  10.324  22.030  0.00  0.00    +0.000 OA
ATOM     12  O   UNL     1      -0.634  10.464  20.533  0.00  0.00    +0.000 OA
ENDBRANCH   4  10
BRANCH   1  13
ATOM     13  O   UNL     1       2.443   4.845  20.821  0.00  0.00    +0.000 OA
BRANCH  13  14
ATOM     14  C   UNL     1       1.182   4.146  20.787  0.00  0.00    +0.000 C 
BRANCH  14  16
ATOM     15  C   UNL     1       0.853   2.433  18.975  0.00  0.00    +0.000 C 
ATOM     16  C   UNL     1       1.431   2.710  20.353  0.00  0.00    +0.000 C 
ENDBRANCH  14  16
ENDBRANCH  13  14
ENDBRANCH   1  13
BRANCH   9  17
ATOM     17  C   UNL     1       3.991   4.203  18.325  0.00  0.00    +0.000 C 
BRANCH  17  18
ATOM     18  C   UNL     1       5.087   4.382  17.299  0.00  0.00    +0.000 A 
ATOM     19  C   UNL     1       4.820   4.150  15.943  0.00  0.00    +0.000 A 
ATOM     20  C   UNL     1       5.844   4.206  14.997  0.00  0.00    +0.000 A 
ATOM     21  C   UNL     1       7.142   4.522  15.390  0.00  0.00    +0.000 A 
ATOM     22  C   UNL     1       7.410   4.817  16.725  0.00  0.00    +0.000 A 
ATOM     23  C   UNL     1       6.389   4.746  17.677  0.00  0.00    +0.000 A 
ENDBRANCH  17  18
ENDBRANCH   9  17
TORSDOF 6
ENDMDL
MODEL 5
REMARK VINA RESULT:      -7.5      1.063      1.118
REMARK  Name = 
REMARK  7 active torsions:
REMARK  status: ('A' for Active; 'I' for Inactive)
REMARK    1  A    between atoms: C_1  and  C_2
REMARK    2  A    between atoms: C_2  and  C_3
REMARK    3  A    between atoms: C_3  and  O_4
REMARK    4  A    between atoms: O_4  and  C_5
REMARK    5  A    between atoms: C_8  and  N_9
REMARK    6  A    between atoms: N_16  and  C_17
REMARK    7  A    between atoms: C_17  and  C_18
REMARK                            x       y       z     vdW  Elec       q    Type
REMARK                         _______ _______ _______ _____ _____    ______ ____
ROOT
ATOM      1  C   UNL     1       2.341   6.206  19.781  0.00  0.00    +0.000 A 
ATOM      2  C   UNL     1       1.894   7.509  19.873  0.00  0.00    +0.000 A 
ATOM      3  C   UNL     1       1.318   8.107  20.992  0.00  0.00    +0.000 A 
ATOM      4  C   UNL     1       0.900   9.429  20.727  0.00  0.00    +0.000 A 
ATOM      5  C   UNL     1       1.053  10.074  19.460  0.00  0.00    +0.000 A 
ATOM      6  C   UNL     1       1.660   9.440  18.351  0.00  0.00    +0.000 A 
ATOM      7  C   UNL     1       2.092   8.122  18.583  0.00  0.00    +0.000 A 
ATOM      8  N   UNL     1       2.683   7.253  17.760  0.00  0.00    +0.000 NA
ATOM      9  N   UNL     1       2.900   6.136  18.509  0.00  0.00    +0.000 N 
ENDROOT
BRANCH   4  10
ATOM     10  N   UNL     1       0.272  10.177  21.833  0.00  0.00    +0.000 N 
ATOM     11  O   UNL     1       0.546  11.376  21.946  0.00  0.00    +0.000 OA
ATOM     12  O   UNL     1      -0.490   9.552  22.586  0.00  0.00    +0.000 OA
ENDBRANCH   4  10
BRANCH   1  13
ATOM     13  O   UNL     1       2.307   5.152  20.608  0.00  0.00    +0.000 OA
BRANCH  13  14
ATOM     14  C   UNL     1       1.095   4.372  20.563  0.00  0.00    +0.000 C 
BRANCH  14  16
ATOM     15  C   UNL     1       0.906   2.497  18.896  0.00  0.00    +0.000 C 
ATOM     16  C   UNL     1       1.454   2.929  20.247  0.00  0.00    +0.000 C 
ENDBRANCH  14  16
ENDBRANCH  13  14
ENDBRANCH   1  13
BRANCH   9  17
ATOM     17  C   UNL     1       3.517   4.977  17.860  0.00  0.00    +0.000 C 
BRANCH  17  18
ATOM     18  C   UNL     1       5.022   4.959  17.990  0.00  0.00    +0.000 A 
ATOM     19  C   UNL     1       5.628   5.411  19.171  0.00  0.00    +0.000 A 
ATOM     20  C   UNL     1       7.017   5.502  19.268  0.00  0.00    +0.000 A 
ATOM     21  C   UNL     1       7.819   5.115  18.197  0.00  0.00    +0.000 A 
ATOM     22  C   UNL     1       7.234   4.604  17.040  0.00  0.00    +0.000 A 
ATOM     23  C   UNL     1       5.842   4.527  16.934  0.00  0.00    +0.000 A 
ENDBRANCH  17  18
ENDBRANCH   9  17
TORSDOF 6
ENDMDL
MODEL 6
REMARK VINA RESULT:      -7.3      3.180      6.976
REMARK  Name = 
REMARK  7 active torsions:
REMARK  status: ('A' for Active; 'I' for Inactive)
REMARK    1  A    between atoms: C_1  and  C_2
REMARK    2  A    between atoms: C_2  and  C_3
REMARK    3  A    between atoms: C_3  and  O_4
REMARK    4  A    between atoms: O_4  and  C_5
REMARK    5  A    between atoms: C_8  and  N_9
REMARK    6  A    between atoms: N_16  and  C_17
REMARK    7  A    between atoms: C_17  and  C_18
REMARK                            x       y       z     vdW  Elec       q    Type
REMARK                         _______ _______ _______ _____ _____    ______ ____
ROOT
ATOM      1  C   UNL     1       3.389   5.105  17.777  0.00  0.00    +0.000 A 
ATOM      2  C   UNL     1       4.634   5.250  17.199  0.00  0.00    +0.000 A 
ATOM      3  C   UNL     1       5.005   4.834  15.923  0.00  0.00    +0.000 A 
ATOM      4  C   UNL     1       6.376   5.063  15.671  0.00  0.00    +0.000 A 
ATOM      5  C   UNL     1       7.271   5.653  16.616  0.00  0.00    +0.000 A 
ATOM      6  C   UNL     1       6.853   6.079  17.898  0.00  0.00    +0.000 A 
ATOM      7  C   UNL     1       5.491   5.870  18.179  0.00  0.00    +0.000 A 
ATOM      8  N   UNL     1       4.788   6.142  19.281  0.00  0.00    +0.000 NA
ATOM      9  N   UNL     1       3.512   5.753  19.001  0.00  0.00    +0.000 N 
ENDROOT
BRANCH   4  10
ATOM     10  N   UNL     1       6.899   4.666  14.349  0.00  0.00    +0.000 N 
ATOM     11  O   UNL     1       6.390   3.683  13.800  0.00  0.00    +0.000 OA
ATOM     12  O   UNL     1       7.823   5.343  13.873  0.00  0.00    +0.000 OA
ENDBRANCH   4  10
BRANCH   1  13
ATOM     13  O   UNL     1       2.251   4.509  17.394  0.00  0.00    +0.000 OA
BRANCH  13  14
ATOM     14  C   UNL     1       2.207   3.081  17.592  0.00  0.00    +0.000 C 
BRANCH  14  16
ATOM     15  C   UNL     1       1.664   2.352  19.937  0.00  0.00    +0.000 C 
ATOM     16  C   UNL     1       1.101   2.759  18.584  0.00  0.00    +0.000 C 
ENDBRANCH  14  16
ENDBRANCH  13  14
ENDBRANCH   1  13
BRANCH   9  17
ATOM     17  C   UNL     1       2.499   5.900  20.048  0.00  0.00    +0.000 C 
BRANCH  17  18
ATOM     18  C   UNL     1       1.876   7.276  20.078  0.00  0.00    +0.000 A 
ATOM     19  C   UNL     1       1.178   7.703  21.216  0.00  0.00    +0.000 A 
ATOM     20  C   UNL     1       0.505   8.926  21.221  0.00  0.00    +0.000 A 
ATOM     21  C   UNL     1       0.546   9.751  20.099  0.00  0.00    +0.000 A 
ATOM     22  C   UNL     1       1.289   9.368  18.983  0.00  0.00    +0.000 A 
ATOM     23  C   UNL     1       1.950   8.136  18.970  0.00  0.00    +0.000 A 
ENDBRANCH  17  18
ENDBRANCH   9  17
TORSDOF 6
ENDMDL
MODEL 7
REMARK VINA RESULT:      -7.3      3.572      5.686
REMARK  Name = 
REMARK  7 active torsions:
REMARK  status: ('A' for Active; 'I' for Inactive)
REMARK    1  A    between atoms: C_1  and  C_2
REMARK    2  A    between atoms: C_2  and  C_3
REMARK    3  A    between atoms: C_3  and  O_4
REMARK    4  A    between atoms: O_4  and  C_5
REMARK    5  A    between atoms: C_8  and  N_9
REMARK    6  A    between atoms: N_16  and  C_17
REMARK    7  A    between atoms: C_17  and  C_18
REMARK                            x       y       z     vdW  Elec       q    Type
REMARK                         _______ _______ _______ _____ _____    ______ ____
ROOT
ATOM      1  C   UNL     1       5.587   6.412  16.798  0.00  0.00    +0.000 A 
ATOM      2  C   UNL     1       4.327   6.564  17.342  0.00  0.00    +0.000 A 
ATOM      3  C   UNL     1       3.721   7.766  17.700  0.00  0.00    +0.000 A 
ATOM      4  C   UNL     1       2.459   7.562  18.300  0.00  0.00    +0.000 A 
ATOM      5  C   UNL     1       1.876   6.274  18.511  0.00  0.00    +0.000 A 
ATOM      6  C   UNL     1       2.514   5.076  18.117  0.00  0.00    +0.000 A 
ATOM      7  C   UNL     1       3.773   5.244  17.511  0.00  0.00    +0.000 A 
ATOM      8  N   UNL     1       4.630   4.334  17.042  0.00  0.00    +0.000 NA
ATOM      9  N   UNL     1       5.679   5.048  16.545  0.00  0.00    +0.000 N 
ENDROOT
BRANCH   4  10
ATOM     10  N   UNL     1       1.710   8.760  18.727  0.00  0.00    +0.000 N 
ATOM     11  O   UNL     1       1.335   8.815  19.903  0.00  0.00    +0.000 OA
ATOM     12  O   UNL     1       1.497   9.636  17.875  0.00  0.00    +0.000 OA
ENDBRANCH   4  10
BRANCH   1  13
ATOM     13  O   UNL     1       6.591   7.259  16.532  0.00  0.00    +0.000 OA
BRANCH  13  14
ATOM     14  C   UNL     1       7.514   7.482  17.618  0.00  0.00    +0.000 C 
BRANCH  14  16
ATOM     15  C   UNL     1       8.824   9.274  18.801  0.00  0.00    +0.000 C 
ATOM     16  C   UNL     1       7.894   8.954  17.642  0.00  0.00    +0.000 C 
ENDBRANCH  14  16
ENDBRANCH  13  14
ENDBRANCH   1  13
BRANCH   9  17
ATOM     17  C   UNL     1       6.812   4.312  15.981  0.00  0.00    +0.000 C 
BRANCH  17  18
ATOM     18  C   UNL     1       6.867   4.377  14.472  0.00  0.00    +0.000 A 
ATOM     19  C   UNL     1       6.086   3.500  13.705  0.00  0.00    +0.000 A 
ATOM     20  C   UNL     1       6.204   3.473  12.315  0.00  0.00    +0.000 A 
ATOM     21  C   UNL     1       7.082   4.343  11.672  0.00  0.00    +0.000 A 
ATOM     22  C   UNL     1       7.817   5.264  12.416  0.00  0.00    +0.000 A 
ATOM     23  C   UNL     1       7.713   5.281  13.810  0.00  0.00    +0.000 A 
ENDBRANCH  17  18
ENDBRANCH   9  17
TORSDOF 6
ENDMDL
MODEL 8
REMARK VINA RESULT:      -7.2      3.195      7.033
REMARK  Name = 
REMARK  7 active torsions:
REMARK  status: ('A' for Active; 'I' for Inactive)
REMARK    1  A    between atoms: C_1  and  C_2
REMARK    2  A    between atoms: C_2  and  C_3
REMARK    3  A    between atoms: C_3  and  O_4
REMARK    4  A    between atoms: O_4  and  C_5
REMARK    5  A    between atoms: C_8  and  N_9
REMARK    6  A    between atoms: N_16  and  C_17
REMARK    7  A    between atoms: C_17  and  C_18
REMARK                            x       y       z     vdW  Elec       q    Type
REMARK                         _______ _______ _______ _____ _____    ______ ____
ROOT
ATOM      1  C   UNL     1       3.442   5.069  17.790  0.00  0.00    +0.000 A 
ATOM      2  C   UNL     1       4.678   5.222  17.193  0.00  0.00    +0.000 A 
ATOM      3  C   UNL     1       5.034   4.803  15.914  0.00  0.00    +0.000 A 
ATOM      4  C   UNL     1       6.398   5.044  15.641  0.00  0.00    +0.000 A 
ATOM      5  C   UNL     1       7.302   5.647  16.570  0.00  0.00    +0.000 A 
ATOM      6  C   UNL     1       6.899   6.077  17.855  0.00  0.00    +0.000 A 
ATOM      7  C   UNL     1       5.542   5.855  18.158  0.00  0.00    +0.000 A 
ATOM      8  N   UNL     1       4.853   6.126  19.268  0.00  0.00    +0.000 NA
ATOM      9  N   UNL     1       3.578   5.724  19.010  0.00  0.00    +0.000 N 
ENDROOT
BRANCH   4  10
ATOM     10  N   UNL     1       6.906   4.646  14.313  0.00  0.00    +0.000 N 
ATOM     11  O   UNL     1       6.389   3.665  13.770  0.00  0.00    +0.000 OA
ATOM     12  O   UNL     1       7.828   5.320  13.827  0.00  0.00    +0.000 OA
ENDBRANCH   4  10
BRANCH   1  13
ATOM     13  O   UNL     1       2.305   4.459  17.427  0.00  0.00    +0.000 OA
BRANCH  13  14
ATOM     14  C   UNL     1       2.281   3.031  17.627  0.00  0.00    +0.000 C 
BRANCH  14  16
ATOM     15  C   UNL     1       1.642   2.377  19.970  0.00  0.00    +0.000 C 
ATOM     16  C   UNL     1       1.138   2.689  18.570  0.00  0.00    +0.000 C 
ENDBRANCH  14  16
ENDBRANCH  13  14
ENDBRANCH   1  13
BRANCH   9  17
ATOM     17  C   UNL     1       2.579   5.866  20.071  0.00  0.00    +0.000 C 
BRANCH  17  18
ATOM     18  C   UNL     1       1.893   7.213  20.060  0.00  0.00    +0.000 A 
ATOM     19  C   UNL     1       1.951   8.018  18.913  0.00  0.00    +0.000 A 
ATOM     20  C   UNL     1       1.417   9.307  18.922  0.00  0.00    +0.000 A 
ATOM     21  C   UNL     1       0.792   9.797  20.066  0.00  0.00    +0.000 A 
ATOM     22  C   UNL     1       0.670   8.985  21.192  0.00  0.00    +0.000 A 
ATOM     23  C   UNL     1       1.220   7.699  21.192  0.00  0.00    +0.000 A 
ENDBRANCH  17  18
ENDBRANCH   9  17
TORSDOF 6
ENDMDL
MODEL 9
REMARK VINA RESULT:      -7.2      3.628      7.348
REMARK  Name = 
REMARK  7 active torsions:
REMARK  status: ('A' for Active; 'I' for Inactive)
REMARK    1  A    between atoms: C_1  and  C_2
REMARK    2  A    between atoms: C_2  and  C_3
REMARK    3  A    between atoms: C_3  and  O_4
REMARK    4  A    between atoms: O_4  and  C_5
REMARK    5  A    between atoms: C_8  and  N_9
REMARK    6  A    between atoms: N_16  and  C_17
REMARK    7  A    between atoms: C_17  and  C_18
REMARK                            x       y       z     vdW  Elec       q    Type
REMARK                         _______ _______ _______ _____ _____    ______ ____
ROOT
ATOM      1  C   UNL     1       3.730   4.696  17.270  0.00  0.00    +0.000 A 
ATOM      2  C   UNL     1       4.820   4.785  16.426  0.00  0.00    +0.000 A 
ATOM      3  C   UNL     1       4.914   4.254  15.142  0.00  0.00    +0.000 A 
ATOM      4  C   UNL     1       6.194   4.457  14.581  0.00  0.00    +0.000 A 
ATOM      5  C   UNL     1       7.262   5.128  15.254  0.00  0.00    +0.000 A 
ATOM      6  C   UNL     1       7.122   5.669  16.553  0.00  0.00    +0.000 A 
ATOM      7  C   UNL     1       5.856   5.489  17.140  0.00  0.00    +0.000 A 
ATOM      8  N   UNL     1       5.402   5.861  18.338  0.00  0.00    +0.000 NA
ATOM      9  N   UNL     1       4.103   5.452  18.376  0.00  0.00    +0.000 N 
ENDROOT
BRANCH   4  10
ATOM     10  N   UNL     1       6.428   3.941  13.218  0.00  0.00    +0.000 N 
ATOM     11  O   UNL     1       7.374   4.411  12.579  0.00  0.00    +0.000 OA
ATOM     12  O   UNL     1       5.653   3.068  12.796  0.00  0.00    +0.000 OA
ENDBRANCH   4  10
BRANCH   1  13
ATOM     13  O   UNL     1       2.548   4.070  17.196  0.00  0.00    +0.000 OA
BRANCH  13  14
ATOM     14  C   UNL     1       2.467   2.819  17.910  0.00  0.00    +0.000 C 
BRANCH  14  16
ATOM     15  C   UNL     1       1.102   2.931  20.020  0.00  0.00    +0.000 C 
ATOM     16  C   UNL     1       1.079   2.693  18.519  0.00  0.00    +0.000 C 
ENDBRANCH  14  16
ENDBRANCH  13  14
ENDBRANCH   1  13
BRANCH   9  17
ATOM     17  C   UNL     1       3.337   5.694  19.600  0.00  0.00    +0.000 C 
BRANCH  17  18
ATOM     18  C   UNL     1       2.495   6.947  19.531  0.00  0.00    +0.000 A 
ATOM     19  C   UNL     1       2.440   7.688  18.342  0.00  0.00    +0.000 A 
ATOM     20  C   UNL     1       1.755   8.903  18.292  0.00  0.00    +0.000 A 
ATOM     21  C   UNL     1       1.092   9.378  19.420  0.00  0.00    +0.000 A 
ATOM     22  C   UNL     1       1.083   8.622  20.591  0.00  0.00    +0.000 A 
ATOM     23  C   UNL     1       1.783   7.413  20.648  0.00  0.00    +0.000 A 
ENDBRANCH  17  18
ENDBRANCH   9  17
TORSDOF 6
ENDMDL
