MODEL 1
REMARK VINA RESULT:      -6.1      0.000      0.000
REMARK  Name = 
REMARK  4 active torsions:
REMARK  status: ('A' for Active; 'I' for Inactive)
REMARK    1  A    between atoms: C_1  and  C_2
REMARK    2  A    between atoms: C_2  and  C_3
REMARK    3  A    between atoms: N_4  and  N_5
REMARK    4  A    between atoms: N_9  and  N_10
REMARK                            x       y       z     vdW  Elec       q    Type
REMARK                         _______ _______ _______ _____ _____    ______ ____
ROOT
ATOM      1  C   UNL     1       2.240   2.200  17.800  0.00  0.00    +0.000 C 
ATOM      2  C   UNL     1       3.415   3.064  18.174  0.00  0.00    +0.000 C 
ATOM      3  N   UNL     1       3.828   3.315  19.382  0.00  0.00    +0.000 NA
ENDROOT
BRANCH   3   4
ATOM      4  N   UNL     1       3.140   2.747  20.420  0.00  0.00    +0.000 N 
ATOM      5  C   UNL     1       2.386   3.459  21.305  0.00  0.00    +0.000 C 
ATOM      6  N   UNL     1       2.281   4.743  21.299  0.00  0.00    +0.000 NA
ATOM      7  N   UNL     1       1.699   2.727  22.208  0.00  0.00    +0.000 N 
ATOM      8  H   UNL     1       3.151   1.746  20.567  0.00  0.00    +0.000 HD
ATOM      9  H   UNL     1       2.870   5.037  20.506  0.00  0.00    +0.000 HD
ATOM     10  H   UNL     1       2.109   1.872  22.548  0.00  0.00    +0.000 HD
ATOM     11  H   UNL     1       1.344   3.317  22.955  0.00  0.00    +0.000 HD
ENDBRANCH   3   4
BRANCH   2  12
ATOM     12  C   UNL     1       4.182   3.717  17.054  0.00  0.00    +0.000 C 
ATOM     13  N   UNL     1       5.118   4.559  17.340  0.00  0.00    +0.000 NA
BRANCH  13  14
ATOM     14  N   UNL     1       5.800   5.079  16.276  0.00  0.00    +0.000 N 
ATOM     15  C   UNL     1       7.131   4.852  16.082  0.00  0.00    +0.000 C 
ATOM     16  N   UNL     1       7.883   4.232  16.925  0.00  0.00    +0.000 NA
ATOM     17  N   UNL     1       7.650   5.301  14.920  0.00  0.00    +0.000 N 
ATOM     18  H   UNL     1       5.306   5.515  15.505  0.00  0.00    +0.000 HD
ATOM     19  H   UNL     1       7.236   3.986  17.691  0.00  0.00    +0.000 HD
ATOM     20  H   UNL     1       7.301   6.174  14.560  0.00  0.00    +0.000 HD
ATOM     21  H   UNL     1       8.666   5.285  14.966  0.00  0.00    +0.000 HD
ENDBRANCH  13  14
ENDBRANCH   2  12
TORSDOF 3
ENDMDL
MODEL 2
REMARK VINA RESULT:      -5.9      1.500      6.399
REMARK  Name = 
REMARK  4 active torsions:
REMARK  status: ('A' for Active; 'I' for Inactive)
REMARK    1  A    between atoms: C_1  and  C_2
REMARK    2  A    between atoms: C_2  and  C_3
REMARK    3  A    between atoms: N_4  and  N_5
REMARK    4  A    between atoms: N_9  and  N_10
REMARK                            x       y       z     vdW  Elec       q    Type
REMARK                         _______ _______ _______ _____ _____    ______ ____
ROOT
ATOM      1  C   UNL     1       3.748   6.727  17.717  0.00  0.00    +0.000 C 
ATOM      2  C   UNL     1       4.258   5.439  18.307  0.00  0.00    +0.000 C 
ATOM      3  N   UNL     1       5.196   4.686  17.810  0.00  0.00    +0.000 NA
ENDROOT
BRANCH   3   4
ATOM      4  N   UNL     1       5.784   5.091  16.643  0.00  0.00    +0.000 N 
ATOM      5  C   UNL     1       7.081   4.828  16.320  0.00  0.00    +0.000 C 
ATOM      6  N   UNL     1       7.913   4.223  17.096  0.00  0.00    +0.000 NA
ATOM      7  N   UNL     1       7.467   5.218  15.086  0.00  0.00    +0.000 N 
ATOM      8  H   UNL     1       5.258   5.601  15.944  0.00  0.00    +0.000 HD
ATOM      9  H   UNL     1       7.358   4.015  17.940  0.00  0.00    +0.000 HD
ATOM     10  H   UNL     1       7.065   6.057  14.698  0.00  0.00    +0.000 HD
ATOM     11  H   UNL     1       8.480   5.191  15.000  0.00  0.00    +0.000 HD
ENDBRANCH   3   4
BRANCH   2  12
ATOM     12  C   UNL     1       3.618   4.958  19.583  0.00  0.00    +0.000 C 
ATOM     13  N   UNL     1       3.277   3.717  19.688  0.00  0.00    +0.000 NA
BRANCH  13  14
ATOM     14  N   UNL     1       2.744   3.342  20.889  0.00  0.00    +0.000 N 
ATOM     15  C   UNL     1       1.427   3.016  21.033  0.00  0.00    +0.000 C 
ATOM     16  N   UNL     1       0.552   3.137  20.094  0.00  0.00    +0.000 NA
ATOM     17  N   UNL     1       1.062   2.525  22.235  0.00  0.00    +0.000 N 
ATOM     18  H   UNL     1       3.343   3.134  21.680  0.00  0.00    +0.000 HD
ATOM     19  H   UNL     1       1.099   3.503  19.298  0.00  0.00    +0.000 HD
ATOM     20  H   UNL     1       1.505   2.914  23.052  0.00  0.00    +0.000 HD
ATOM     21  H   UNL     1       0.048   2.525  22.315  0.00  0.00    +0.000 HD
ENDBRANCH  13  14
ENDBRANCH   2  12
TORSDOF 3
ENDMDL
MODEL 3
REMARK VINA RESULT:      -5.8      1.152      6.350
REMARK  Name = 
REMARK  4 active torsions:
REMARK  status: ('A' for Active; 'I' for Inactive)
REMARK    1  A    between atoms: C_1  and  C_2
REMARK    2  A    between atoms: C_2  and  C_3
REMARK    3  A    between atoms: N_4  and  N_5
REMARK    4  A    between atoms: N_9  and  N_10
REMARK                            x       y       z     vdW  Elec       q    Type
REMARK                         _______ _______ _______ _____ _____    ______ ____
ROOT
ATOM      1  C   UNL     1       4.051   3.488  16.986  0.00  0.00    +0.000 C 
ATOM      2  C   UNL     1       4.526   4.310  18.154  0.00  0.00    +0.000 C 
ATOM      3  N   UNL     1       5.435   5.240  18.117  0.00  0.00    +0.000 NA
ENDROOT
BRANCH   3   4
ATOM      4  N   UNL     1       6.023   5.507  16.910  0.00  0.00    +0.000 N 
ATOM      5  C   UNL     1       7.219   4.982  16.520  0.00  0.00    +0.000 C 
ATOM      6  N   UNL     1       7.953   4.225  17.259  0.00  0.00    +0.000 NA
ATOM      7  N   UNL     1       7.603   5.276  15.259  0.00  0.00    +0.000 N 
ATOM      8  H   UNL     1       5.573   6.110  16.233  0.00  0.00    +0.000 HD
ATOM      9  H   UNL     1       7.419   4.140  18.137  0.00  0.00    +0.000 HD
ATOM     10  H   UNL     1       7.358   6.177  14.879  0.00  0.00    +0.000 HD
ATOM     11  H   UNL     1       8.581   5.042  15.117  0.00  0.00    +0.000 HD
ENDBRANCH   3   4
BRANCH   2  12
ATOM     12  C   UNL     1       3.910   4.028  19.499  0.00  0.00    +0.000 C 
ATOM     13  N   UNL     1       3.249   2.933  19.671  0.00  0.00    +0.000 NA
BRANCH  13  14
ATOM     14  N   UNL     1       2.756   2.722  20.927  0.00  0.00    +0.000 N 
ATOM     15  C   UNL     1       1.425   2.804  21.213  0.00  0.00    +0.000 C 
ATOM     16  N   UNL     1       0.533   3.192  20.367  0.00  0.00    +0.000 NA
ATOM     17  N   UNL     1       1.057   2.433  22.457  0.00  0.00    +0.000 N 
ATOM     18  H   UNL     1       3.345   2.335  21.657  0.00  0.00    +0.000 HD
ATOM     19  H   UNL     1       1.078   3.385  19.512  0.00  0.00    +0.000 HD
ATOM     20  H   UNL     1       1.678   2.662  23.215  0.00  0.00    +0.000 HD
ATOM     21  H   UNL     1       0.103   2.735  22.640  0.00  0.00    +0.000 HD
ENDBRANCH  13  14
ENDBRANCH   2  12
TORSDOF 3
ENDMDL
MODEL 4
REMARK VINA RESULT:      -5.7      0.980      1.262
REMARK  Name = 
REMARK  4 active torsions:
REMARK  status: ('A' for Active; 'I' for Inactive)
REMARK    1  A    between atoms: C_1  and  C_2
REMARK    2  A    between atoms: C_2  and  C_3
REMARK    3  A    between atoms: N_4  and  N_5
REMARK    4  A    between atoms: N_9  and  N_10
REMARK                            x       y       z     vdW  Elec       q    Type
REMARK                         _______ _______ _______ _____ _____    ______ ____
ROOT
ATOM      1  C   UNL     1       1.799   3.770  17.754  0.00  0.00    +0.000 C 
ATOM      2  C   UNL     1       2.995   4.465  18.347  0.00  0.00    +0.000 C 
ATOM      3  N   UNL     1       3.246   4.611  19.616  0.00  0.00    +0.000 NA
ENDROOT
BRANCH   3   4
ATOM      4  N   UNL     1       2.347   4.089  20.506  0.00  0.00    +0.000 N 
ATOM      5  C   UNL     1       2.595   2.990  21.273  0.00  0.00    +0.000 C 
ATOM      6  N   UNL     1       3.675   2.289  21.207  0.00  0.00    +0.000 NA
ATOM      7  N   UNL     1       1.634   2.671  22.166  0.00  0.00    +0.000 N 
ATOM      8  H   UNL     1       1.442   4.520  20.646  0.00  0.00    +0.000 HD
ATOM      9  H   UNL     1       4.235   2.763  20.483  0.00  0.00    +0.000 HD
ATOM     10  H   UNL     1       0.672   2.844  21.920  0.00  0.00    +0.000 HD
ATOM     11  H   UNL     1       1.784   1.737  22.538  0.00  0.00    +0.000 HD
ENDBRANCH   3   4
BRANCH   2  12
ATOM     12  C   UNL     1       3.993   5.066  17.393  0.00  0.00    +0.000 C 
ATOM     13  N   UNL     1       4.736   4.283  16.683  0.00  0.00    +0.000 NA
BRANCH  13  14
ATOM     14  N   UNL     1       5.587   4.896  15.808  0.00  0.00    +0.000 N 
ATOM     15  C   UNL     1       6.941   4.863  15.962  0.00  0.00    +0.000 C 
ATOM     16  N   UNL     1       7.533   4.357  16.989  0.00  0.00    +0.000 NA
ATOM     17  N   UNL     1       7.671   5.383  14.953  0.00  0.00    +0.000 N 
ATOM     18  H   UNL     1       5.248   5.258  14.923  0.00  0.00    +0.000 HD
ATOM     19  H   UNL     1       6.754   4.019  17.576  0.00  0.00    +0.000 HD
ATOM     20  H   UNL     1       7.307   6.198  14.487  0.00  0.00    +0.000 HD
ATOM     21  H   UNL     1       8.633   5.513  15.253  0.00  0.00    +0.000 HD
ENDBRANCH  13  14
ENDBRANCH   2  12
TORSDOF 3
ENDMDL
MODEL 5
REMARK VINA RESULT:      -5.7      1.272      1.459
REMARK  Name = 
REMARK  4 active torsions:
REMARK  status: ('A' for Active; 'I' for Inactive)
REMARK    1  A    between atoms: C_1  and  C_2
REMARK    2  A    between atoms: C_2  and  C_3
REMARK    3  A    between atoms: N_4  and  N_5
REMARK    4  A    between atoms: N_9  and  N_10
REMARK                            x       y       z     vdW  Elec       q    Type
REMARK                         _______ _______ _______ _____ _____    ______ ____
ROOT
ATOM      1  C   UNL     1       4.434   2.170  19.735  0.00  0.00    +0.000 C 
ATOM      2  C   UNL     1       3.949   3.553  19.391  0.00  0.00    +0.000 C 
ATOM      3  N   UNL     1       3.072   4.246  20.057  0.00  0.00    +0.000 NA
ENDROOT
BRANCH   3   4
ATOM      4  N   UNL     1       2.532   3.678  21.179  0.00  0.00    +0.000 N 
ATOM      5  C   UNL     1       1.308   3.079  21.207  0.00  0.00    +0.000 C 
ATOM      6  N   UNL     1       0.502   3.030  20.203  0.00  0.00    +0.000 NA
ATOM      7  N   UNL     1       0.974   2.486  22.373  0.00  0.00    +0.000 N 
ATOM      8  H   UNL     1       3.041   3.664  22.053  0.00  0.00    +0.000 HD
ATOM      9  H   UNL     1       1.010   3.521  19.452  0.00  0.00    +0.000 HD
ATOM     10  H   UNL     1       1.295   2.901  23.234  0.00  0.00    +0.000 HD
ATOM     11  H   UNL     1      -0.017   2.259  22.391  0.00  0.00    +0.000 HD
ENDBRANCH   3   4
BRANCH   2  12
ATOM     12  C   UNL     1       4.512   4.199  18.152  0.00  0.00    +0.000 C 
ATOM     13  N   UNL     1       5.521   4.998  18.262  0.00  0.00    +0.000 NA
BRANCH  13  14
ATOM     14  N   UNL     1       6.007   5.512  17.094  0.00  0.00    +0.000 N 
ATOM     15  C   UNL     1       7.160   5.062  16.521  0.00  0.00    +0.000 C 
ATOM     16  N   UNL     1       7.946   4.203  17.074  0.00  0.00    +0.000 NA
ATOM     17  N   UNL     1       7.451   5.552  15.298  0.00  0.00    +0.000 N 
ATOM     18  H   UNL     1       5.441   6.133  16.525  0.00  0.00    +0.000 HD
ATOM     19  H   UNL     1       7.478   3.986  17.968  0.00  0.00    +0.000 HD
ATOM     20  H   UNL     1       7.224   6.516  15.116  0.00  0.00    +0.000 HD
ATOM     21  H   UNL     1       8.415   5.336  15.059  0.00  0.00    +0.000 HD
ENDBRANCH  13  14
ENDBRANCH   2  12
TORSDOF 3
ENDMDL
MODEL 6
REMARK VINA RESULT:      -5.7      1.054      1.229
REMARK  Name = 
REMARK  4 active torsions:
REMARK  status: ('A' for Active; 'I' for Inactive)
REMARK    1  A    between atoms: C_1  and  C_2
REMARK    2  A    between atoms: C_2  and  C_3
REMARK    3  A    between atoms: N_4  and  N_5
REMARK    4  A    between atoms: N_9  and  N_10
REMARK                            x       y       z     vdW  Elec       q    Type
REMARK                         _______ _______ _______ _____ _____    ______ ____
ROOT
ATOM      1  C   UNL     1       2.636   3.365  17.343  0.00  0.00    +0.000 C 
ATOM      2  C   UNL     1       3.872   3.564  18.179  0.00  0.00    +0.000 C 
ATOM      3  N   UNL     1       3.989   3.306  19.448  0.00  0.00    +0.000 NA
ENDROOT
BRANCH   3   4
ATOM      4  N   UNL     1       2.895   2.805  20.099  0.00  0.00    +0.000 N 
ATOM      5  C   UNL     1       2.109   3.543  20.933  0.00  0.00    +0.000 C 
ATOM      6  N   UNL     1       2.338   4.771  21.246  0.00  0.00    +0.000 NA
ATOM      7  N   UNL     1       1.015   2.914  21.414  0.00  0.00    +0.000 N 
ATOM      8  H   UNL     1       2.607   1.843  19.971  0.00  0.00    +0.000 HD
ATOM      9  H   UNL     1       3.197   5.004  20.726  0.00  0.00    +0.000 HD
ATOM     10  H   UNL     1       1.072   1.925  21.602  0.00  0.00    +0.000 HD
ATOM     11  H   UNL     1       0.608   3.438  22.183  0.00  0.00    +0.000 HD
ENDBRANCH   3   4
BRANCH   2  12
ATOM     12  C   UNL     1       5.089   4.131  17.495  0.00  0.00    +0.000 C 
ATOM     13  N   UNL     1       4.953   4.719  16.353  0.00  0.00    +0.000 NA
BRANCH  13  14
ATOM     14  N   UNL     1       6.091   5.247  15.812  0.00  0.00    +0.000 N 
ATOM     15  C   UNL     1       6.682   4.722  14.701  0.00  0.00    +0.000 C 
ATOM     16  N   UNL     1       6.298   3.632  14.132  0.00  0.00    +0.000 NA
ATOM     17  N   UNL     1       7.715   5.423  14.187  0.00  0.00    +0.000 N 
ATOM     18  H   UNL     1       6.442   6.147  16.121  0.00  0.00    +0.000 HD
ATOM     19  H   UNL     1       5.495   3.329  14.706  0.00  0.00    +0.000 HD
ATOM     20  H   UNL     1       8.335   5.881  14.834  0.00  0.00    +0.000 HD
ATOM     21  H   UNL     1       8.219   4.852  13.514  0.00  0.00    +0.000 HD
ENDBRANCH  13  14
ENDBRANCH   2  12
TORSDOF 3
ENDMDL
MODEL 7
REMARK VINA RESULT:      -5.7      1.969      2.405
REMARK  Name = 
REMARK  4 active torsions:
REMARK  status: ('A' for Active; 'I' for Inactive)
REMARK    1  A    between atoms: C_1  and  C_2
REMARK    2  A    between atoms: C_2  and  C_3
REMARK    3  A    between atoms: N_4  and  N_5
REMARK    4  A    between atoms: N_9  and  N_10
REMARK                            x       y       z     vdW  Elec       q    Type
REMARK                         _______ _______ _______ _____ _____    ______ ____
ROOT
ATOM      1  C   UNL     1       3.636   5.759  19.449  0.00  0.00    +0.000 C 
ATOM      2  C   UNL     1       3.369   5.274  18.049  0.00  0.00    +0.000 C 
ATOM      3  N   UNL     1       2.368   4.533  17.672  0.00  0.00    +0.000 NA
ENDROOT
BRANCH   3   4
ATOM      4  N   UNL     1       1.465   4.151  18.626  0.00  0.00    +0.000 N 
ATOM      5  C   UNL     1       1.239   2.854  18.976  0.00  0.00    +0.000 C 
ATOM      6  N   UNL     1       1.805   1.842  18.413  0.00  0.00    +0.000 NA
ATOM      7  N   UNL     1       0.383   2.666  20.004  0.00  0.00    +0.000 N 
ATOM      8  H   UNL     1       0.924   4.838  19.136  0.00  0.00    +0.000 HD
ATOM      9  H   UNL     1       2.418   2.265  17.701  0.00  0.00    +0.000 HD
ATOM     10  H   UNL     1      -0.389   3.305  20.110  0.00  0.00    +0.000 HD
ATOM     11  H   UNL     1       0.099   1.692  20.062  0.00  0.00    +0.000 HD
ENDBRANCH   3   4
BRANCH   2  12
ATOM     12  C   UNL     1       4.355   5.663  16.979  0.00  0.00    +0.000 C 
ATOM     13  N   UNL     1       4.864   4.744  16.227  0.00  0.00    +0.000 NA
BRANCH  13  14
ATOM     14  N   UNL     1       5.717   5.174  15.250  0.00  0.00    +0.000 N 
ATOM     15  C   UNL     1       7.067   5.006  15.334  0.00  0.00    +0.000 C 
ATOM     16  N   UNL     1       7.668   4.537  16.374  0.00  0.00    +0.000 NA
ATOM     17  N   UNL     1       7.781   5.344  14.240  0.00  0.00    +0.000 N 
ATOM     18  H   UNL     1       5.362   5.485  14.352  0.00  0.00    +0.000 HD
ATOM     19  H   UNL     1       6.896   4.344  17.033  0.00  0.00    +0.000 HD
ATOM     20  H   UNL     1       7.475   6.146  13.714  0.00  0.00    +0.000 HD
ATOM     21  H   UNL     1       8.769   5.395  14.473  0.00  0.00    +0.000 HD
ENDBRANCH  13  14
ENDBRANCH   2  12
TORSDOF 3
ENDMDL
MODEL 8
REMARK VINA RESULT:      -5.6      1.752      6.279
REMARK  Name = 
REMARK  4 active torsions:
REMARK  status: ('A' for Active; 'I' for Inactive)
REMARK    1  A    between atoms: C_1  and  C_2
REMARK    2  A    between atoms: C_2  and  C_3
REMARK    3  A    between atoms: N_4  and  N_5
REMARK    4  A    between atoms: N_9  and  N_10
REMARK                            x       y       z     vdW  Elec       q    Type
REMARK                         _______ _______ _______ _____ _____    ______ ____
ROOT
ATOM      1  C   UNL     1       4.910   6.911  16.449  0.00  0.00    +0.000 C 
ATOM      2  C   UNL     1       5.377   5.646  17.118  0.00  0.00    +0.000 C 
ATOM      3  N   UNL     1       6.419   4.942  16.784  0.00  0.00    +0.000 NA
ENDROOT
BRANCH   3   4
ATOM      4  N   UNL     1       7.171   5.380  15.728  0.00  0.00    +0.000 N 
ATOM      5  C   UNL     1       7.130   4.818  14.487  0.00  0.00    +0.000 C 
ATOM      6  N   UNL     1       6.427   3.782  14.184  0.00  0.00    +0.000 NA
ATOM      7  N   UNL     1       7.866   5.439  13.540  0.00  0.00    +0.000 N 
ATOM      8  H   UNL     1       7.793   6.173  15.825  0.00  0.00    +0.000 HD
ATOM      9  H   UNL     1       5.951   3.538  15.065  0.00  0.00    +0.000 HD
ATOM     10  H   UNL     1       8.734   5.874  13.812  0.00  0.00    +0.000 HD
ATOM     11  H   UNL     1       7.961   4.852  12.716  0.00  0.00    +0.000 HD
ENDBRANCH   3   4
BRANCH   2  12
ATOM     12  C   UNL     1       4.560   5.128  18.273  0.00  0.00    +0.000 C 
ATOM     13  N   UNL     1       4.037   3.950  18.196  0.00  0.00    +0.000 NA
BRANCH  13  14
ATOM     14  N   UNL     1       3.347   3.528  19.297  0.00  0.00    +0.000 N 
ATOM     15  C   UNL     1       3.849   2.602  20.163  0.00  0.00    +0.000 C 
ATOM     16  N   UNL     1       4.952   1.964  19.969  0.00  0.00    +0.000 NA
ATOM     17  N   UNL     1       3.131   2.381  21.284  0.00  0.00    +0.000 N 
ATOM     18  H   UNL     1       2.507   4.011  19.599  0.00  0.00    +0.000 HD
ATOM     19  H   UNL     1       5.294   2.338  19.070  0.00  0.00    +0.000 HD
ATOM     20  H   UNL     1       2.127   2.405  21.207  0.00  0.00    +0.000 HD
ATOM     21  H   UNL     1       3.459   1.536  21.744  0.00  0.00    +0.000 HD
ENDBRANCH  13  14
ENDBRANCH   2  12
TORSDOF 3
ENDMDL
MODEL 9
REMARK VINA RESULT:      -5.6      1.302      6.469
REMARK  Name = 
REMARK  4 active torsions:
REMARK  status: ('A' for Active; 'I' for Inactive)
REMARK    1  A    between atoms: C_1  and  C_2
REMARK    2  A    between atoms: C_2  and  C_3
REMARK    3  A    between atoms: N_4  and  N_5
REMARK    4  A    between atoms: N_9  and  N_10
REMARK                            x       y       z     vdW  Elec       q    Type
REMARK                         _______ _______ _______ _____ _____    ______ ____
ROOT
ATOM      1  C   UNL     1       4.506   6.302  17.141  0.00  0.00    +0.000 C 
ATOM      2  C   UNL     1       4.677   4.808  17.215  0.00  0.00    +0.000 C 
ATOM      3  N   UNL     1       5.633   4.118  16.665  0.00  0.00    +0.000 NA
ENDROOT
BRANCH   3   4
ATOM      4  N   UNL     1       6.579   4.800  15.949  0.00  0.00    +0.000 N 
ATOM      5  C   UNL     1       6.847   4.562  14.634  0.00  0.00    +0.000 C 
ATOM      6  N   UNL     1       6.285   3.637  13.935  0.00  0.00    +0.000 NA
ATOM      7  N   UNL     1       7.743   5.394  14.061  0.00  0.00    +0.000 N 
ATOM      8  H   UNL     1       7.121   5.540  16.375  0.00  0.00    +0.000 HD
ATOM      9  H   UNL     1       5.637   3.185  14.597  0.00  0.00    +0.000 HD
ATOM     10  H   UNL     1       8.504   5.743  14.623  0.00  0.00    +0.000 HD
ATOM     11  H   UNL     1       8.052   5.028  13.165  0.00  0.00    +0.000 HD
ENDBRANCH   3   4
BRANCH   2  12
ATOM     12  C   UNL     1       3.642   4.027  17.981  0.00  0.00    +0.000 C 
ATOM     13  N   UNL     1       3.873   3.715  19.213  0.00  0.00    +0.000 NA
BRANCH  13  14
ATOM     14  N   UNL     1       2.873   3.045  19.859  0.00  0.00    +0.000 N 
ATOM     15  C   UNL     1       2.083   3.641  20.798  0.00  0.00    +0.000 C 
ATOM     16  N   UNL     1       2.274   4.836  21.241  0.00  0.00    +0.000 NA
ATOM     17  N   UNL     1       1.043   2.912  21.253  0.00  0.00    +0.000 N 
ATOM     18  H   UNL     1       2.574   2.128  19.543  0.00  0.00    +0.000 HD
ATOM     19  H   UNL     1       3.102   5.160  20.716  0.00  0.00    +0.000 HD
ATOM     20  H   UNL     1       1.182   1.921  21.367  0.00  0.00    +0.000 HD
ATOM     21  H   UNL     1       0.658   3.343  22.090  0.00  0.00    +0.000 HD
ENDBRANCH  13  14
ENDBRANCH   2  12
TORSDOF 3
ENDMDL
