MODEL 1
REMARK VINA RESULT:      -8.2      0.000      0.000
REMARK  Name = 
REMARK  7 active torsions:
REMARK  status: ('A' for Active; 'I' for Inactive)
REMARK    1  A    between atoms: C_1  and  C_2
REMARK    2  A    between atoms: C_4  and  C_5
REMARK    3  A    between atoms: C_7  and  N_8
REMARK    4  A    between atoms: N_11  and  C_12
REMARK    5  A    between atoms: C_12  and  C_13
REMARK    6  A    between atoms: N_15  and  C_16
REMARK    7  A    between atoms: C_22  and  C_23
REMARK                            x       y       z     vdW  Elec       q    Type
REMARK                         _______ _______ _______ _____ _____    ______ ____
ROOT
ATOM      1  C   UNL     1       4.745   5.050  18.190  0.00  0.00    +0.000 A 
ATOM      2  C   UNL     1       4.525   4.572  16.820  0.00  0.00    +0.000 A 
ATOM      3  C   UNL     1       5.496   4.795  15.929  0.00  0.00    +0.000 A 
ATOM      4  C   UNL     1       6.729   5.560  16.368  0.00  0.00    +0.000 A 
ATOM      5  O   UNL     1       7.598   5.817  15.532  0.00  0.00    +0.000 OA
ATOM      6  N   UNL     1       6.778   5.956  17.696  0.00  0.00    +0.000 N 
ATOM      7  N   UNL     1       5.780   5.700  18.608  0.00  0.00    +0.000 NA
ENDROOT
BRANCH   1  11
ATOM      8  C   UNL     1       1.493   2.878  21.483  0.00  0.00    +0.000 C 
ATOM      9  C   UNL     1       2.273   3.727  20.562  0.00  0.00    +0.000 A 
ATOM     10  C   UNL     1       3.331   3.491  19.714  0.00  0.00    +0.000 A 
ATOM     11  C   UNL     1       3.676   4.746  19.121  0.00  0.00    +0.000 A 
ATOM     12  C   UNL     1       2.753   5.650  19.622  0.00  0.00    +0.000 A 
ATOM     13  C   UNL     1       2.469   7.082  19.382  0.00  0.00    +0.000 C 
ATOM     14  O   UNL     1       1.911   5.035  20.499  0.00  0.00    +0.000 OA
ENDBRANCH   1  11
BRANCH   3  15
ATOM     15  N   UNL     1       5.432   4.382  14.608  0.00  0.00    +0.000 N 
ATOM     16  H   UNL     1       4.707   4.815  14.052  0.00  0.00    +0.000 HD
ATOM     17  H   UNL     1       6.359   4.390  14.169  0.00  0.00    +0.000 HD
ENDBRANCH   3  15
BRANCH   6  18
ATOM     18  C   UNL     1       7.980   6.612  18.215  0.00  0.00    +0.000 C 
BRANCH  18  19
ATOM     19  C   UNL     1       8.004   8.139  18.125  0.00  0.00    +0.000 C 
ATOM     20  O   UNL     1       7.267   8.734  17.337  0.00  0.00    +0.000 OA
ATOM     21  N   UNL     1       8.876   8.812  18.955  0.00  0.00    +0.000 N 
ATOM     22  H   UNL     1       9.573   8.267  19.450  0.00  0.00    +0.000 HD
BRANCH  21  23
ATOM     23  C   UNL     1       8.959  10.256  18.921  0.00  0.00    +0.000 C 
ATOM     24  C   UNL     1       9.383  10.855  20.253  0.00  0.00    +0.000 C 
ATOM     25  C   UNL     1       9.781  12.278  19.888  0.00  0.00    +0.000 C 
ATOM     26  C   UNL     1      10.299  12.210  18.451  0.00  0.00    +0.000 C 
ATOM     27  C   UNL     1      10.010  10.793  17.953  0.00  0.00    +0.000 C 
ENDBRANCH  21  23
ENDBRANCH  18  19
ENDBRANCH   6  18
TORSDOF 5
ENDMDL
MODEL 2
REMARK VINA RESULT:      -7.9      2.915      5.278
REMARK  Name = 
REMARK  7 active torsions:
REMARK  status: ('A' for Active; 'I' for Inactive)
REMARK    1  A    between atoms: C_1  and  C_2
REMARK    2  A    between atoms: C_4  and  C_5
REMARK    3  A    between atoms: C_7  and  N_8
REMARK    4  A    between atoms: N_11  and  C_12
REMARK    5  A    between atoms: C_12  and  C_13
REMARK    6  A    between atoms: N_15  and  C_16
REMARK    7  A    between atoms: C_22  and  C_23
REMARK                            x       y       z     vdW  Elec       q    Type
REMARK                         _______ _______ _______ _____ _____    ______ ____
ROOT
ATOM      1  C   UNL     1       2.048   5.604  19.870  0.00  0.00    +0.000 A 
ATOM      2  C   UNL     1       1.762   4.739  21.020  0.00  0.00    +0.000 A 
ATOM      3  C   UNL     1       2.080   3.445  20.908  0.00  0.00    +0.000 A 
ATOM      4  C   UNL     1       2.663   2.946  19.601  0.00  0.00    +0.000 A 
ATOM      5  O   UNL     1       2.901   1.743  19.477  0.00  0.00    +0.000 OA
ATOM      6  N   UNL     1       2.860   3.890  18.604  0.00  0.00    +0.000 N 
ATOM      7  N   UNL     1       2.549   5.223  18.742  0.00  0.00    +0.000 NA
ENDROOT
BRANCH   1  11
ATOM      8  C   UNL     1       0.512  10.148  21.638  0.00  0.00    +0.000 C 
ATOM      9  C   UNL     1       1.017   8.975  20.899  0.00  0.00    +0.000 A 
ATOM     10  C   UNL     1       1.045   7.625  21.160  0.00  0.00    +0.000 A 
ATOM     11  C   UNL     1       1.720   7.003  20.063  0.00  0.00    +0.000 A 
ATOM     12  C   UNL     1       2.006   8.034  19.182  0.00  0.00    +0.000 A 
ATOM     13  C   UNL     1       2.608   8.108  17.833  0.00  0.00    +0.000 C 
ATOM     14  O   UNL     1       1.589   9.227  19.692  0.00  0.00    +0.000 OA
ENDBRANCH   1  11
BRANCH   3  15
ATOM     15  N   UNL     1       1.885   2.519  21.921  0.00  0.00    +0.000 N 
ATOM     16  H   UNL     1       1.553   2.898  22.797  0.00  0.00    +0.000 HD
ATOM     17  H   UNL     1       1.355   1.707  21.586  0.00  0.00    +0.000 HD
ENDBRANCH   3  15
BRANCH   6  18
ATOM     18  C   UNL     1       3.510   3.500  17.351  0.00  0.00    +0.000 C 
BRANCH  18  19
ATOM     19  C   UNL     1       4.795   4.250  17.000  0.00  0.00    +0.000 C 
ATOM     20  O   UNL     1       5.302   4.140  15.882  0.00  0.00    +0.000 OA
ATOM     21  N   UNL     1       5.355   5.047  17.977  0.00  0.00    +0.000 N 
ATOM     22  H   UNL     1       4.993   4.962  18.920  0.00  0.00    +0.000 HD
BRANCH  21  23
ATOM     23  C   UNL     1       6.574   5.782  17.719  0.00  0.00    +0.000 C 
ATOM     24  C   UNL     1       6.319   7.206  17.253  0.00  0.00    +0.000 C 
ATOM     25  C   UNL     1       7.671   7.883  17.429  0.00  0.00    +0.000 C 
ATOM     26  C   UNL     1       8.343   7.170  18.603  0.00  0.00    +0.000 C 
ATOM     27  C   UNL     1       7.452   5.977  18.953  0.00  0.00    +0.000 C 
ENDBRANCH  21  23
ENDBRANCH  18  19
ENDBRANCH   6  18
TORSDOF 5
ENDMDL
MODEL 3
REMARK VINA RESULT:      -7.8      3.880      6.752
REMARK  Name = 
REMARK  7 active torsions:
REMARK  status: ('A' for Active; 'I' for Inactive)
REMARK    1  A    between atoms: C_1  and  C_2
REMARK    2  A    between atoms: C_4  and  C_5
REMARK    3  A    between atoms: C_7  and  N_8
REMARK    4  A    between atoms: N_11  and  C_12
REMARK    5  A    between atoms: C_12  and  C_13
REMARK    6  A    between atoms: N_15  and  C_16
REMARK    7  A    between atoms: C_22  and  C_23
REMARK                            x       y       z     vdW  Elec       q    Type
REMARK                         _______ _______ _______ _____ _____    ______ ____
ROOT
ATOM      1  C   UNL     1       4.381   4.662  17.215  0.00  0.00    +0.000 A 
ATOM      2  C   UNL     1       3.661   3.384  17.244  0.00  0.00    +0.000 A 
ATOM      3  C   UNL     1       2.607   3.292  18.062  0.00  0.00    +0.000 A 
ATOM      4  C   UNL     1       2.254   4.480  18.934  0.00  0.00    +0.000 A 
ATOM      5  O   UNL     1       1.319   4.376  19.731  0.00  0.00    +0.000 OA
ATOM      6  N   UNL     1       3.044   5.612  18.798  0.00  0.00    +0.000 N 
ATOM      7  N   UNL     1       4.112   5.700  17.935  0.00  0.00    +0.000 NA
ENDROOT
BRANCH   1  11
ATOM      8  C   UNL     1       7.401   4.879  13.095  0.00  0.00    +0.000 C 
ATOM      9  C   UNL     1       6.765   4.805  14.425  0.00  0.00    +0.000 A 
ATOM     10  C   UNL     1       5.464   4.676  14.852  0.00  0.00    +0.000 A 
ATOM     11  C   UNL     1       5.489   4.716  16.281  0.00  0.00    +0.000 A 
ATOM     12  C   UNL     1       6.831   4.813  16.617  0.00  0.00    +0.000 A 
ATOM     13  C   UNL     1       7.583   4.819  17.891  0.00  0.00    +0.000 C 
ATOM     14  O   UNL     1       7.600   4.876  15.494  0.00  0.00    +0.000 OA
ENDBRANCH   1  11
BRANCH   3  15
ATOM     15  N   UNL     1       1.824   2.155  18.175  0.00  0.00    +0.000 N 
ATOM     16  H   UNL     1       1.691   1.632  17.320  0.00  0.00    +0.000 HD
ATOM     17  H   UNL     1       2.111   1.583  18.977  0.00  0.00    +0.000 HD
ENDBRANCH   3  15
BRANCH   6  18
ATOM     18  C   UNL     1       2.702   6.830  19.535  0.00  0.00    +0.000 C 
BRANCH  18  19
ATOM     19  C   UNL     1       2.102   7.969  18.710  0.00  0.00    +0.000 C 
ATOM     20  O   UNL     1       2.228   7.992  17.485  0.00  0.00    +0.000 OA
ATOM     21  N   UNL     1       1.420   8.957  19.390  0.00  0.00    +0.000 N 
ATOM     22  H   UNL     1       1.498   8.975  20.401  0.00  0.00    +0.000 HD
BRANCH  21  23
ATOM     23  C   UNL     1       0.830  10.069  18.677  0.00  0.00    +0.000 C 
ATOM     24  C   UNL     1      -0.672  10.178  18.889  0.00  0.00    +0.000 C 
ATOM     25  C   UNL     1      -0.995  11.585  18.405  0.00  0.00    +0.000 C 
ATOM     26  C   UNL     1       0.260  12.416  18.675  0.00  0.00    +0.000 C 
ATOM     27  C   UNL     1       1.342  11.435  19.129  0.00  0.00    +0.000 C 
ENDBRANCH  21  23
ENDBRANCH  18  19
ENDBRANCH   6  18
TORSDOF 5
ENDMDL
MODEL 4
REMARK VINA RESULT:      -7.7      3.610      7.575
REMARK  Name = 
REMARK  7 active torsions:
REMARK  status: ('A' for Active; 'I' for Inactive)
REMARK    1  A    between atoms: C_1  and  C_2
REMARK    2  A    between atoms: C_4  and  C_5
REMARK    3  A    between atoms: C_7  and  N_8
REMARK    4  A    between atoms: N_11  and  C_12
REMARK    5  A    between atoms: C_12  and  C_13
REMARK    6  A    between atoms: N_15  and  C_16
REMARK    7  A    between atoms: C_22  and  C_23
REMARK                            x       y       z     vdW  Elec       q    Type
REMARK                         _______ _______ _______ _____ _____    ______ ____
ROOT
ATOM      1  C   UNL     1       6.295   4.901  15.413  0.00  0.00    +0.000 A 
ATOM      2  C   UNL     1       7.348   4.379  16.293  0.00  0.00    +0.000 A 
ATOM      3  C   UNL     1       7.378   4.835  17.549  0.00  0.00    +0.000 A 
ATOM      4  C   UNL     1       6.369   5.885  17.970  0.00  0.00    +0.000 A 
ATOM      5  O   UNL     1       6.435   6.348  19.111  0.00  0.00    +0.000 OA
ATOM      6  N   UNL     1       5.447   6.284  17.015  0.00  0.00    +0.000 N 
ATOM      7  N   UNL     1       5.413   5.789  15.731  0.00  0.00    +0.000 NA
ENDROOT
BRANCH   1  11
ATOM      8  C   UNL     1       5.281   2.346  11.102  0.00  0.00    +0.000 C 
ATOM      9  C   UNL     1       5.790   3.181  12.208  0.00  0.00    +0.000 A 
ATOM     10  C   UNL     1       5.436   3.330  13.528  0.00  0.00    +0.000 A 
ATOM     11  C   UNL     1       6.287   4.341  14.075  0.00  0.00    +0.000 A 
ATOM     12  C   UNL     1       7.141   4.694  13.042  0.00  0.00    +0.000 A 
ATOM     13  C   UNL     1       8.302   5.602  12.921  0.00  0.00    +0.000 C 
ATOM     14  O   UNL     1       6.833   3.999  11.911  0.00  0.00    +0.000 OA
ENDBRANCH   1  11
BRANCH   3  15
ATOM     15  N   UNL     1       8.303   4.415  18.493  0.00  0.00    +0.000 N 
ATOM     16  H   UNL     1       8.080   4.647  19.451  0.00  0.00    +0.000 HD
ATOM     17  H   UNL     1       8.564   3.434  18.347  0.00  0.00    +0.000 HD
ENDBRANCH   3  15
BRANCH   6  18
ATOM     18  C   UNL     1       4.382   7.220  17.378  0.00  0.00    +0.000 C 
BRANCH  18  19
ATOM     19  C   UNL     1       3.119   6.601  17.978  0.00  0.00    +0.000 C 
ATOM     20  O   UNL     1       2.190   7.314  18.361  0.00  0.00    +0.000 OA
ATOM     21  N   UNL     1       3.065   5.225  18.068  0.00  0.00    +0.000 N 
ATOM     22  H   UNL     1       3.920   4.707  17.899  0.00  0.00    +0.000 HD
BRANCH  21  23
ATOM     23  C   UNL     1       1.905   4.569  18.630  0.00  0.00    +0.000 C 
ATOM     24  C   UNL     1       1.710   3.157  18.101  0.00  0.00    +0.000 C 
ATOM     25  C   UNL     1       0.723   2.545  19.085  0.00  0.00    +0.000 C 
ATOM     26  C   UNL     1       0.986   3.236  20.423  0.00  0.00    +0.000 C 
ATOM     27  C   UNL     1       1.982   4.363  20.141  0.00  0.00    +0.000 C 
ENDBRANCH  21  23
ENDBRANCH  18  19
ENDBRANCH   6  18
TORSDOF 5
ENDMDL
MODEL 5
REMARK VINA RESULT:      -7.6      3.941      5.716
REMARK  Name = 
REMARK  7 active torsions:
REMARK  status: ('A' for Active; 'I' for Inactive)
REMARK    1  A    between atoms: C_1  and  C_2
REMARK    2  A    between atoms: C_4  and  C_5
REMARK    3  A    between atoms: C_7  and  N_8
REMARK    4  A    between atoms: N_11  and  C_12
REMARK    5  A    between atoms: C_12  and  C_13
REMARK    6  A    between atoms: N_15  and  C_16
REMARK    7  A    between atoms: C_22  and  C_23
REMARK                            x       y       z     vdW  Elec       q    Type
REMARK                         _______ _______ _______ _____ _____    ______ ____
ROOT
ATOM      1  C   UNL     1       2.980   6.038  19.707  0.00  0.00    +0.000 A 
ATOM      2  C   UNL     1       2.259   4.769  19.861  0.00  0.00    +0.000 A 
ATOM      3  C   UNL     1       2.969   3.642  19.742  0.00  0.00    +0.000 A 
ATOM      4  C   UNL     1       4.445   3.740  19.412  0.00  0.00    +0.000 A 
ATOM      5  O   UNL     1       5.087   2.701  19.245  0.00  0.00    +0.000 OA
ATOM      6  N   UNL     1       4.973   5.016  19.285  0.00  0.00    +0.000 N 
ATOM      7  N   UNL     1       4.235   6.168  19.431  0.00  0.00    +0.000 NA
ENDROOT
BRANCH   1  11
ATOM      8  C   UNL     1      -0.015   9.792  21.461  0.00  0.00    +0.000 C 
ATOM      9  C   UNL     1       0.839   8.846  20.716  0.00  0.00    +0.000 A 
ATOM     10  C   UNL     1       1.387   7.621  21.016  0.00  0.00    +0.000 A 
ATOM     11  C   UNL     1       2.167   7.225  19.884  0.00  0.00    +0.000 A 
ATOM     12  C   UNL     1       1.984   8.233  18.949  0.00  0.00    +0.000 A 
ATOM     13  C   UNL     1       2.419   8.440  17.551  0.00  0.00    +0.000 C 
ATOM     14  O   UNL     1       1.189   9.216  19.457  0.00  0.00    +0.000 OA
ENDBRANCH   1  11
BRANCH   3  15
ATOM     15  N   UNL     1       2.424   2.376  19.884  0.00  0.00    +0.000 N 
ATOM     16  H   UNL     1       2.977   1.723  20.423  0.00  0.00    +0.000 HD
ATOM     17  H   UNL     1       1.438   2.424  20.164  0.00  0.00    +0.000 HD
ENDBRANCH   3  15
BRANCH   6  18
ATOM     18  C   UNL     1       6.411   5.190  19.064  0.00  0.00    +0.000 C 
BRANCH  18  19
ATOM     19  C   UNL     1       6.959   4.645  17.745  0.00  0.00    +0.000 C 
ATOM     20  O   UNL     1       8.094   4.171  17.684  0.00  0.00    +0.000 OA
ATOM     21  N   UNL     1       6.135   4.705  16.640  0.00  0.00    +0.000 N 
ATOM     22  H   UNL     1       5.288   5.258  16.712  0.00  0.00    +0.000 HD
BRANCH  21  23
ATOM     23  C   UNL     1       6.588   4.215  15.357  0.00  0.00    +0.000 C 
ATOM     24  C   UNL     1       5.443   3.802  14.444  0.00  0.00    +0.000 C 
ATOM     25  C   UNL     1       6.100   3.712  13.074  0.00  0.00    +0.000 C 
ATOM     26  C   UNL     1       7.235   4.736  13.088  0.00  0.00    +0.000 C 
ATOM     27  C   UNL     1       7.333   5.255  14.524  0.00  0.00    +0.000 C 
ENDBRANCH  21  23
ENDBRANCH  18  19
ENDBRANCH   6  18
TORSDOF 5
ENDMDL
MODEL 6
REMARK VINA RESULT:      -7.6      1.003      1.606
REMARK  Name = 
REMARK  7 active torsions:
REMARK  status: ('A' for Active; 'I' for Inactive)
REMARK    1  A    between atoms: C_1  and  C_2
REMARK    2  A    between atoms: C_4  and  C_5
REMARK    3  A    between atoms: C_7  and  N_8
REMARK    4  A    between atoms: N_11  and  C_12
REMARK    5  A    between atoms: C_12  and  C_13
REMARK    6  A    between atoms: N_15  and  C_16
REMARK    7  A    between atoms: C_22  and  C_23
REMARK                            x       y       z     vdW  Elec       q    Type
REMARK                         _______ _______ _______ _____ _____    ______ ____
ROOT
ATOM      1  C   UNL     1       4.791   4.586  17.600  0.00  0.00    +0.000 A 
ATOM      2  C   UNL     1       4.714   4.214  16.182  0.00  0.00    +0.000 A 
ATOM      3  C   UNL     1       5.736   4.573  15.398  0.00  0.00    +0.000 A 
ATOM      4  C   UNL     1       6.874   5.373  16.001  0.00  0.00    +0.000 A 
ATOM      5  O   UNL     1       7.787   5.754  15.265  0.00  0.00    +0.000 OA
ATOM      6  N   UNL     1       6.789   5.656  17.356  0.00  0.00    +0.000 N 
ATOM      7  N   UNL     1       5.742   5.261  18.155  0.00  0.00    +0.000 NA
ENDROOT
BRANCH   1  11
ATOM      8  C   UNL     1       0.648   4.191  20.569  0.00  0.00    +0.000 C 
ATOM      9  C   UNL     1       1.848   4.030  19.725  0.00  0.00    +0.000 A 
ATOM     10  C   UNL     1       2.750   4.912  19.176  0.00  0.00    +0.000 A 
ATOM     11  C   UNL     1       3.675   4.136  18.409  0.00  0.00    +0.000 A 
ATOM     12  C   UNL     1       3.287   2.818  18.598  0.00  0.00    +0.000 A 
ATOM     13  C   UNL     1       3.828   1.508  18.176  0.00  0.00    +0.000 C 
ATOM     14  O   UNL     1       2.178   2.757  19.386  0.00  0.00    +0.000 OA
ENDBRANCH   1  11
BRANCH   3  15
ATOM     15  N   UNL     1       5.806   4.271  14.047  0.00  0.00    +0.000 N 
ATOM     16  H   UNL     1       5.398   4.957  13.427  0.00  0.00    +0.000 HD
ATOM     17  H   UNL     1       6.751   3.973  13.781  0.00  0.00    +0.000 HD
ENDBRANCH   3  15
BRANCH   6  18
ATOM     18  C   UNL     1       7.897   6.339  18.027  0.00  0.00    +0.000 C 
BRANCH  18  19
ATOM     19  C   UNL     1       7.875   7.867  17.975  0.00  0.00    +0.000 C 
ATOM     20  O   UNL     1       7.095   8.459  17.227  0.00  0.00    +0.000 OA
ATOM     21  N   UNL     1       8.754   8.545  18.794  0.00  0.00    +0.000 N 
ATOM     22  H   UNL     1       9.482   8.008  19.253  0.00  0.00    +0.000 HD
BRANCH  21  23
ATOM     23  C   UNL     1       8.794   9.991  18.795  0.00  0.00    +0.000 C 
ATOM     24  C   UNL     1       9.266  10.569  20.119  0.00  0.00    +0.000 C 
ATOM     25  C   UNL     1       9.606  12.012  19.773  0.00  0.00    +0.000 C 
ATOM     26  C   UNL     1      10.053  11.995  18.311  0.00  0.00    +0.000 C 
ATOM     27  C   UNL     1       9.779  10.583  17.790  0.00  0.00    +0.000 C 
ENDBRANCH  21  23
ENDBRANCH  18  19
ENDBRANCH   6  18
TORSDOF 5
ENDMDL
MODEL 7
REMARK VINA RESULT:      -7.4      4.249      5.968
REMARK  Name = 
REMARK  7 active torsions:
REMARK  status: ('A' for Active; 'I' for Inactive)
REMARK    1  A    between atoms: C_1  and  C_2
REMARK    2  A    between atoms: C_4  and  C_5
REMARK    3  A    between atoms: C_7  and  N_8
REMARK    4  A    between atoms: N_11  and  C_12
REMARK    5  A    between atoms: C_12  and  C_13
REMARK    6  A    between atoms: N_15  and  C_16
REMARK    7  A    between atoms: C_22  and  C_23
REMARK                            x       y       z     vdW  Elec       q    Type
REMARK                         _______ _______ _______ _____ _____    ______ ____
ROOT
ATOM      1  C   UNL     1       2.922   6.274  18.478  0.00  0.00    +0.000 A 
ATOM      2  C   UNL     1       1.908   5.225  18.325  0.00  0.00    +0.000 A 
ATOM      3  C   UNL     1       2.341   3.967  18.193  0.00  0.00    +0.000 A 
ATOM      4  C   UNL     1       3.834   3.709  18.161  0.00  0.00    +0.000 A 
ATOM      5  O   UNL     1       4.235   2.557  17.980  0.00  0.00    +0.000 OA
ATOM      6  N   UNL     1       4.662   4.812  18.305  0.00  0.00    +0.000 N 
ATOM      7  N   UNL     1       4.201   6.099  18.463  0.00  0.00    +0.000 NA
ENDROOT
BRANCH   1  11
ATOM      8  C   UNL     1       1.434  11.138  17.965  0.00  0.00    +0.000 C 
ATOM      9  C   UNL     1       1.767   9.759  18.370  0.00  0.00    +0.000 A 
ATOM     10  C   UNL     1       2.456   8.731  17.769  0.00  0.00    +0.000 A 
ATOM     11  C   UNL     1       2.392   7.612  18.657  0.00  0.00    +0.000 A 
ATOM     12  C   UNL     1       1.705   8.072  19.770  0.00  0.00    +0.000 A 
ATOM     13  C   UNL     1       1.349   7.490  21.082  0.00  0.00    +0.000 C 
ATOM     14  O   UNL     1       1.319   9.366  19.591  0.00  0.00    +0.000 OA
ENDBRANCH   1  11
BRANCH   3  15
ATOM     15  N   UNL     1       1.496   2.877  18.061  0.00  0.00    +0.000 N 
ATOM     16  H   UNL     1       1.241   2.418  18.925  0.00  0.00    +0.000 HD
ATOM     17  H   UNL     1       0.702   3.093  17.449  0.00  0.00    +0.000 HD
ENDBRANCH   3  15
BRANCH   6  18
ATOM     18  C   UNL     1       6.113   4.628  18.383  0.00  0.00    +0.000 C 
BRANCH  18  19
ATOM     19  C   UNL     1       6.828   4.357  17.058  0.00  0.00    +0.000 C 
ATOM     20  O   UNL     1       8.052   4.230  17.020  0.00  0.00    +0.000 OA
ATOM     21  N   UNL     1       6.050   4.262  15.923  0.00  0.00    +0.000 N 
ATOM     22  H   UNL     1       5.079   4.545  15.990  0.00  0.00    +0.000 HD
BRANCH  21  23
ATOM     23  C   UNL     1       6.657   4.014  14.634  0.00  0.00    +0.000 C 
ATOM     24  C   UNL     1       5.644   3.626  13.568  0.00  0.00    +0.000 C 
ATOM     25  C   UNL     1       6.414   3.806  12.267  0.00  0.00    +0.000 C 
ATOM     26  C   UNL     1       7.420   4.926  12.531  0.00  0.00    +0.000 C 
ATOM     27  C   UNL     1       7.342   5.236  14.027  0.00  0.00    +0.000 C 
ENDBRANCH  21  23
ENDBRANCH  18  19
ENDBRANCH   6  18
TORSDOF 5
ENDMDL
MODEL 8
REMARK VINA RESULT:      -7.4      4.227      6.012
REMARK  Name = 
REMARK  7 active torsions:
REMARK  status: ('A' for Active; 'I' for Inactive)
REMARK    1  A    between atoms: C_1  and  C_2
REMARK    2  A    between atoms: C_4  and  C_5
REMARK    3  A    between atoms: C_7  and  N_8
REMARK    4  A    between atoms: N_11  and  C_12
REMARK    5  A    between atoms: C_12  and  C_13
REMARK    6  A    between atoms: N_15  and  C_16
REMARK    7  A    between atoms: C_22  and  C_23
REMARK                            x       y       z     vdW  Elec       q    Type
REMARK                         _______ _______ _______ _____ _____    ______ ____
ROOT
ATOM      1  C   UNL     1       2.542   5.952  19.635  0.00  0.00    +0.000 A 
ATOM      2  C   UNL     1       1.765   4.785  20.069  0.00  0.00    +0.000 A 
ATOM      3  C   UNL     1       2.282   3.577  19.822  0.00  0.00    +0.000 A 
ATOM      4  C   UNL     1       3.598   3.485  19.076  0.00  0.00    +0.000 A 
ATOM      5  O   UNL     1       4.047   2.371  18.796  0.00  0.00    +0.000 OA
ATOM      6  N   UNL     1       4.201   4.683  18.722  0.00  0.00    +0.000 N 
ATOM      7  N   UNL     1       3.667   5.920  19.003  0.00  0.00    +0.000 NA
ENDROOT
BRANCH   1  11
ATOM      8  C   UNL     1       0.359   9.981  21.903  0.00  0.00    +0.000 C 
ATOM      9  C   UNL     1       0.980   8.973  21.022  0.00  0.00    +0.000 A 
ATOM     10  C   UNL     1       1.347   7.658  21.190  0.00  0.00    +0.000 A 
ATOM     11  C   UNL     1       1.950   7.234  19.965  0.00  0.00    +0.000 A 
ATOM     12  C   UNL     1       1.853   8.326  19.116  0.00  0.00    +0.000 A 
ATOM     13  C   UNL     1       2.192   8.569  17.698  0.00  0.00    +0.000 C 
ATOM     14  O   UNL     1       1.274   9.379  19.759  0.00  0.00    +0.000 OA
ENDBRANCH   1  11
BRANCH   3  15
ATOM     15  N   UNL     1       1.669   2.391  20.194  0.00  0.00    +0.000 N 
ATOM     16  H   UNL     1       1.808   1.614  19.563  0.00  0.00    +0.000 HD
ATOM     17  H   UNL     1       1.851   2.170  21.179  0.00  0.00    +0.000 HD
ENDBRANCH   3  15
BRANCH   6  18
ATOM     18  C   UNL     1       5.520   4.674  18.087  0.00  0.00    +0.000 C 
BRANCH  18  19
ATOM     19  C   UNL     1       5.562   5.095  16.618  0.00  0.00    +0.000 C 
ATOM     20  O   UNL     1       5.099   6.179  16.261  0.00  0.00    +0.000 OA
ATOM     21  N   UNL     1       6.135   4.218  15.720  0.00  0.00    +0.000 N 
ATOM     22  H   UNL     1       6.339   3.278  16.042  0.00  0.00    +0.000 HD
BRANCH  21  23
ATOM     23  C   UNL     1       6.204   4.545  14.313  0.00  0.00    +0.000 C 
ATOM     24  C   UNL     1       7.544   5.142  13.910  0.00  0.00    +0.000 C 
ATOM     25  C   UNL     1       7.537   5.031  12.392  0.00  0.00    +0.000 C 
ATOM     26  C   UNL     1       6.693   3.797  12.068  0.00  0.00    +0.000 C 
ATOM     27  C   UNL     1       6.075   3.336  13.389  0.00  0.00    +0.000 C 
ENDBRANCH  21  23
ENDBRANCH  18  19
ENDBRANCH   6  18
TORSDOF 5
ENDMDL
MODEL 9
REMARK VINA RESULT:      -7.3      0.957      1.287
REMARK  Name = 
REMARK  7 active torsions:
REMARK  status: ('A' for Active; 'I' for Inactive)
REMARK    1  A    between atoms: C_1  and  C_2
REMARK    2  A    between atoms: C_4  and  C_5
REMARK    3  A    between atoms: C_7  and  N_8
REMARK    4  A    between atoms: N_11  and  C_12
REMARK    5  A    between atoms: C_12  and  C_13
REMARK    6  A    between atoms: N_15  and  C_16
REMARK    7  A    between atoms: C_22  and  C_23
REMARK                            x       y       z     vdW  Elec       q    Type
REMARK                         _______ _______ _______ _____ _____    ______ ____
ROOT
ATOM      1  C   UNL     1       4.609   5.145  18.187  0.00  0.00    +0.000 A 
ATOM      2  C   UNL     1       5.040   4.005  17.370  0.00  0.00    +0.000 A 
ATOM      3  C   UNL     1       5.964   4.238  16.432  0.00  0.00    +0.000 A 
ATOM      4  C   UNL     1       6.468   5.654  16.238  0.00  0.00    +0.000 A 
ATOM      5  O   UNL     1       7.276   5.879  15.334  0.00  0.00    +0.000 OA
ATOM      6  N   UNL     1       5.949   6.623  17.083  0.00  0.00    +0.000 N 
ATOM      7  N   UNL     1       5.015   6.364  18.060  0.00  0.00    +0.000 NA
ENDROOT
BRANCH   1  11
ATOM      8  C   UNL     1       1.727   2.936  21.785  0.00  0.00    +0.000 C 
ATOM      9  C   UNL     1       2.396   3.792  20.787  0.00  0.00    +0.000 A 
ATOM     10  C   UNL     1       3.382   3.572  19.853  0.00  0.00    +0.000 A 
ATOM     11  C   UNL     1       3.636   4.825  19.213  0.00  0.00    +0.000 A 
ATOM     12  C   UNL     1       2.733   5.711  19.781  0.00  0.00    +0.000 A 
ATOM     13  C   UNL     1       2.386   7.130  19.546  0.00  0.00    +0.000 C 
ATOM     14  O   UNL     1       1.991   5.087  20.738  0.00  0.00    +0.000 OA
ENDBRANCH   1  11
BRANCH   3  15
ATOM     15  N   UNL     1       6.478   3.252  15.603  0.00  0.00    +0.000 N 
ATOM     16  H   UNL     1       7.432   2.979  15.794  0.00  0.00    +0.000 HD
ATOM     17  H   UNL     1       5.826   2.466  15.511  0.00  0.00    +0.000 HD
ENDBRANCH   3  15
BRANCH   6  18
ATOM     18  C   UNL     1       6.461   7.993  17.020  0.00  0.00    +0.000 C 
BRANCH  18  19
ATOM     19  C   UNL     1       7.712   8.282  17.851  0.00  0.00    +0.000 C 
ATOM     20  O   UNL     1       8.292   7.376  18.450  0.00  0.00    +0.000 OA
ATOM     21  N   UNL     1       8.157   9.587  17.898  0.00  0.00    +0.000 N 
ATOM     22  H   UNL     1       7.546  10.308  17.531  0.00  0.00    +0.000 HD
BRANCH  21  23
ATOM     23  C   UNL     1       9.330   9.937  18.669  0.00  0.00    +0.000 C 
ATOM     24  C   UNL     1      10.146  11.050  18.031  0.00  0.00    +0.000 C 
ATOM     25  C   UNL     1      11.057  11.512  19.160  0.00  0.00    +0.000 C 
ATOM     26  C   UNL     1      10.276  11.265  20.451  0.00  0.00    +0.000 C 
ATOM     27  C   UNL     1       9.016  10.493  20.056  0.00  0.00    +0.000 C 
ENDBRANCH  21  23
ENDBRANCH  18  19
ENDBRANCH   6  18
TORSDOF 5
ENDMDL
