MODEL 1
REMARK VINA RESULT:      -7.0      0.000      0.000
REMARK  Name = 
REMARK  6 active torsions:
REMARK  status: ('A' for Active; 'I' for Inactive)
REMARK    1  A    between atoms: C_1  and  O_2
REMARK    2  A    between atoms: O_2  and  C_3
REMARK    3  A    between atoms: C_7  and  C_8
REMARK    4  A    between atoms: C_9  and  N_10
REMARK    5  A    between atoms: C_11  and  C_13
REMARK    6  A    between atoms: N_20  and  C_21
REMARK                            x       y       z     vdW  Elec       q    Type
REMARK                         _______ _______ _______ _____ _____    ______ ____
ROOT
ATOM      1  C   UNL     1       2.788   5.757  17.650  0.00  0.00    +0.000 C 
ATOM      2  C   UNL     1       4.236   6.190  17.328  0.00  0.00    +0.000 C 
ATOM      3  C   UNL     1       4.074   7.690  17.112  0.00  0.00    +0.000 C 
ATOM      4  C   UNL     1       2.860   8.088  17.940  0.00  0.00    +0.000 C 
ATOM      5  N   UNL     1       2.244   6.861  18.491  0.00  0.00    +0.000 NA
ENDROOT
BRANCH   1  10
ATOM      6  C   UNL     1       3.386   2.209  19.015  0.00  0.00    +0.000 A 
ATOM      7  C   UNL     1       2.097   1.688  18.984  0.00  0.00    +0.000 A 
ATOM      8  C   UNL     1       1.033   2.489  18.571  0.00  0.00    +0.000 A 
ATOM      9  C   UNL     1       1.266   3.811  18.179  0.00  0.00    +0.000 A 
ATOM     10  C   UNL     1       2.568   4.342  18.157  0.00  0.00    +0.000 A 
ATOM     11  C   UNL     1       3.623   3.514  18.571  0.00  0.00    +0.000 A 
BRANCH   6  13
ATOM     12  C   UNL     1       4.912   1.736  20.731  0.00  0.00    +0.000 C 
ATOM     13  O   UNL     1       4.366   1.366  19.467  0.00  0.00    +0.000 OA
ENDBRANCH   6  13
ENDBRANCH   1  10
BRANCH   2  14
ATOM     14  N   UNL     1       4.828   5.541  16.167  0.00  0.00    +0.000 N 
ATOM     15  C   UNL     1       6.168   5.656  15.867  0.00  0.00    +0.000 C 
ATOM     16  O   UNL     1       6.978   6.220  16.593  0.00  0.00    +0.000 OA
ATOM     17  H   UNL     1       4.251   5.053  15.486  0.00  0.00    +0.000 HD
BRANCH  15  18
ATOM     18  C   UNL     1       6.530   5.070  14.573  0.00  0.00    +0.000 A 
ATOM     19  C   UNL     1       5.825   4.043  13.972  0.00  0.00    +0.000 A 
ATOM     20  S   UNL     1       6.556   3.600  12.487  0.00  0.00    +0.000 S 
ATOM     21  C   UNL     1       7.759   4.796  12.747  0.00  0.00    +0.000 A 
ATOM     22  N   UNL     1       7.655   5.498  13.855  0.00  0.00    +0.000 NA
ENDBRANCH  15  18
ENDBRANCH   2  14
BRANCH   5  23
ATOM     23  C   UNL     1       2.483   6.765  19.949  0.00  0.00    +0.000 C 
ATOM     24  C   UNL     1       1.583   7.584  20.854  0.00  0.00    +0.000 C 
ATOM     25  C   UNL     1       1.473   6.091  20.840  0.00  0.00    +0.000 C 
ENDBRANCH   5  23
TORSDOF 5
ENDMDL
MODEL 2
REMARK VINA RESULT:      -6.5      3.726      6.758
REMARK  Name = 
REMARK  6 active torsions:
REMARK  status: ('A' for Active; 'I' for Inactive)
REMARK    1  A    between atoms: C_1  and  O_2
REMARK    2  A    between atoms: O_2  and  C_3
REMARK    3  A    between atoms: C_7  and  C_8
REMARK    4  A    between atoms: C_9  and  N_10
REMARK    5  A    between atoms: C_11  and  C_13
REMARK    6  A    between atoms: N_20  and  C_21
REMARK                            x       y       z     vdW  Elec       q    Type
REMARK                         _______ _______ _______ _____ _____    ______ ____
ROOT
ATOM      1  C   UNL     1       3.775   5.305  17.702  0.00  0.00    +0.000 C 
ATOM      2  C   UNL     1       2.637   5.658  18.688  0.00  0.00    +0.000 C 
ATOM      3  C   UNL     1       1.470   4.861  18.118  0.00  0.00    +0.000 C 
ATOM      4  C   UNL     1       2.103   3.683  17.390  0.00  0.00    +0.000 C 
ATOM      5  N   UNL     1       3.572   3.860  17.397  0.00  0.00    +0.000 NA
ENDROOT
BRANCH   1  10
ATOM      6  C   UNL     1       7.199   7.061  17.689  0.00  0.00    +0.000 A 
ATOM      7  C   UNL     1       7.842   6.402  18.733  0.00  0.00    +0.000 A 
ATOM      8  C   UNL     1       7.162   5.432  19.467  0.00  0.00    +0.000 A 
ATOM      9  C   UNL     1       5.838   5.115  19.147  0.00  0.00    +0.000 A 
ATOM     10  C   UNL     1       5.186   5.733  18.066  0.00  0.00    +0.000 A 
ATOM     11  C   UNL     1       5.894   6.702  17.337  0.00  0.00    +0.000 A 
BRANCH   6  13
ATOM     12  C   UNL     1       8.227   9.162  17.848  0.00  0.00    +0.000 C 
ATOM     13  O   UNL     1       7.928   8.023  17.043  0.00  0.00    +0.000 OA
ENDBRANCH   6  13
ENDBRANCH   1  10
BRANCH   2  14
ATOM     14  N   UNL     1       2.325   7.076  18.782  0.00  0.00    +0.000 N 
ATOM     15  C   UNL     1       1.768   7.630  19.915  0.00  0.00    +0.000 C 
ATOM     16  O   UNL     1       1.585   7.006  20.954  0.00  0.00    +0.000 OA
ATOM     17  H   UNL     1       2.424   7.692  17.979  0.00  0.00    +0.000 HD
BRANCH  15  18
ATOM     18  C   UNL     1       1.377   9.033  19.749  0.00  0.00    +0.000 A 
ATOM     19  C   UNL     1       0.764   9.780  20.738  0.00  0.00    +0.000 A 
ATOM     20  S   UNL     1       0.430  11.364  20.177  0.00  0.00    +0.000 S 
ATOM     21  C   UNL     1       1.116  10.947  18.660  0.00  0.00    +0.000 A 
ATOM     22  N   UNL     1       1.573   9.719  18.543  0.00  0.00    +0.000 NA
ENDBRANCH  15  18
ENDBRANCH   2  14
BRANCH   5  23
ATOM     23  C   UNL     1       4.211   2.890  18.314  0.00  0.00    +0.000 C 
ATOM     24  C   UNL     1       3.381   2.385  19.478  0.00  0.00    +0.000 C 
ATOM     25  C   UNL     1       3.737   1.461  18.356  0.00  0.00    +0.000 C 
ENDBRANCH   5  23
TORSDOF 5
ENDMDL
MODEL 3
REMARK VINA RESULT:      -6.2      3.378      6.537
REMARK  Name = 
REMARK  6 active torsions:
REMARK  status: ('A' for Active; 'I' for Inactive)
REMARK    1  A    between atoms: C_1  and  O_2
REMARK    2  A    between atoms: O_2  and  C_3
REMARK    3  A    between atoms: C_7  and  C_8
REMARK    4  A    between atoms: C_9  and  N_10
REMARK    5  A    between atoms: C_11  and  C_13
REMARK    6  A    between atoms: N_20  and  C_21
REMARK                            x       y       z     vdW  Elec       q    Type
REMARK                         _______ _______ _______ _____ _____    ______ ____
ROOT
ATOM      1  C   UNL     1       3.361   4.760  17.473  0.00  0.00    +0.000 C 
ATOM      2  C   UNL     1       2.660   5.285  18.747  0.00  0.00    +0.000 C 
ATOM      3  C   UNL     1       1.391   4.442  18.777  0.00  0.00    +0.000 C 
ATOM      4  C   UNL     1       1.745   3.154  18.048  0.00  0.00    +0.000 C 
ATOM      5  N   UNL     1       3.105   3.292  17.482  0.00  0.00    +0.000 NA
ENDROOT
BRANCH   1  10
ATOM      6  C   UNL     1       6.763   5.402  15.793  0.00  0.00    +0.000 A 
ATOM      7  C   UNL     1       7.484   5.950  16.849  0.00  0.00    +0.000 A 
ATOM      8  C   UNL     1       6.866   6.157  18.080  0.00  0.00    +0.000 A 
ATOM      9  C   UNL     1       5.524   5.802  18.256  0.00  0.00    +0.000 A 
ATOM     10  C   UNL     1       4.792   5.202  17.217  0.00  0.00    +0.000 A 
ATOM     11  C   UNL     1       5.438   4.999  15.988  0.00  0.00    +0.000 A 
BRANCH   6  13
ATOM     12  C   UNL     1       6.777   4.433  13.658  0.00  0.00    +0.000 C 
ATOM     13  O   UNL     1       7.437   5.267  14.608  0.00  0.00    +0.000 OA
ENDBRANCH   6  13
ENDBRANCH   1  10
BRANCH   2  14
ATOM     14  N   UNL     1       2.360   6.709  18.741  0.00  0.00    +0.000 N 
ATOM     15  C   UNL     1       1.896   7.365  19.860  0.00  0.00    +0.000 C 
ATOM     16  O   UNL     1       1.794   6.837  20.961  0.00  0.00    +0.000 OA
ATOM     17  H   UNL     1       2.398   7.252  17.881  0.00  0.00    +0.000 HD
BRANCH  15  18
ATOM     18  C   UNL     1       1.497   8.753  19.602  0.00  0.00    +0.000 A 
ATOM     19  C   UNL     1       0.767   9.518  20.494  0.00  0.00    +0.000 A 
ATOM     20  S   UNL     1       0.464  11.073  19.842  0.00  0.00    +0.000 S 
ATOM     21  C   UNL     1       1.316  10.622  18.423  0.00  0.00    +0.000 A 
ATOM     22  N   UNL     1       1.807   9.402  18.400  0.00  0.00    +0.000 NA
ENDBRANCH  15  18
ENDBRANCH   2  14
BRANCH   5  23
ATOM     23  C   UNL     1       4.070   2.453  18.228  0.00  0.00    +0.000 C 
ATOM     24  C   UNL     1       3.827   2.270  19.713  0.00  0.00    +0.000 C 
ATOM     25  C   UNL     1       3.645   1.116  18.777  0.00  0.00    +0.000 C 
ENDBRANCH   5  23
TORSDOF 5
ENDMDL
MODEL 4
REMARK VINA RESULT:      -6.1      3.358      6.382
REMARK  Name = 
REMARK  6 active torsions:
REMARK  status: ('A' for Active; 'I' for Inactive)
REMARK    1  A    between atoms: C_1  and  O_2
REMARK    2  A    between atoms: O_2  and  C_3
REMARK    3  A    between atoms: C_7  and  C_8
REMARK    4  A    between atoms: C_9  and  N_10
REMARK    5  A    between atoms: C_11  and  C_13
REMARK    6  A    between atoms: N_20  and  C_21
REMARK                            x       y       z     vdW  Elec       q    Type
REMARK                         _______ _______ _______ _____ _____    ______ ____
ROOT
ATOM      1  C   UNL     1       3.286   4.484  17.307  0.00  0.00    +0.000 C 
ATOM      2  C   UNL     1       2.722   5.086  18.614  0.00  0.00    +0.000 C 
ATOM      3  C   UNL     1       1.445   4.277  18.807  0.00  0.00    +0.000 C 
ATOM      4  C   UNL     1       1.702   2.947  18.113  0.00  0.00    +0.000 C 
ATOM      5  N   UNL     1       3.004   3.025  17.413  0.00  0.00    +0.000 NA
ENDROOT
BRANCH   1  10
ATOM      6  C   UNL     1       6.816   6.016  17.292  0.00  0.00    +0.000 A 
ATOM      7  C   UNL     1       7.257   5.663  16.020  0.00  0.00    +0.000 A 
ATOM      8  C   UNL     1       6.441   4.895  15.191  0.00  0.00    +0.000 A 
ATOM      9  C   UNL     1       5.178   4.491  15.633  0.00  0.00    +0.000 A 
ATOM     10  C   UNL     1       4.694   4.878  16.895  0.00  0.00    +0.000 A 
ATOM     11  C   UNL     1       5.531   5.656  17.710  0.00  0.00    +0.000 A 
BRANCH   6  13
ATOM     12  C   UNL     1       7.824   8.102  17.653  0.00  0.00    +0.000 C 
ATOM     13  O   UNL     1       7.693   6.740  18.054  0.00  0.00    +0.000 OA
ENDBRANCH   6  13
ENDBRANCH   1  10
BRANCH   2  14
ATOM     14  N   UNL     1       2.451   6.515  18.566  0.00  0.00    +0.000 N 
ATOM     15  C   UNL     1       2.038   7.221  19.675  0.00  0.00    +0.000 C 
ATOM     16  O   UNL     1       1.962   6.735  20.797  0.00  0.00    +0.000 OA
ATOM     17  H   UNL     1       2.470   7.025  17.686  0.00  0.00    +0.000 HD
BRANCH  15  18
ATOM     18  C   UNL     1       1.658   8.606  19.380  0.00  0.00    +0.000 A 
ATOM     19  C   UNL     1       0.882   9.383  20.220  0.00  0.00    +0.000 A 
ATOM     20  S   UNL     1       0.620  10.932  19.535  0.00  0.00    +0.000 S 
ATOM     21  C   UNL     1       1.549  10.462  18.171  0.00  0.00    +0.000 A 
ATOM     22  N   UNL     1       2.037   9.241  18.189  0.00  0.00    +0.000 NA
ENDBRANCH  15  18
ENDBRANCH   2  14
BRANCH   5  23
ATOM     23  C   UNL     1       4.020   2.200  18.105  0.00  0.00    +0.000 C 
ATOM     24  C   UNL     1       4.078   2.295  19.617  0.00  0.00    +0.000 C 
ATOM     25  C   UNL     1       3.594   1.038  18.964  0.00  0.00    +0.000 C 
ENDBRANCH   5  23
TORSDOF 5
ENDMDL
MODEL 5
REMARK VINA RESULT:      -6.0      3.340      6.041
REMARK  Name = 
REMARK  6 active torsions:
REMARK  status: ('A' for Active; 'I' for Inactive)
REMARK    1  A    between atoms: C_1  and  O_2
REMARK    2  A    between atoms: O_2  and  C_3
REMARK    3  A    between atoms: C_7  and  C_8
REMARK    4  A    between atoms: C_9  and  N_10
REMARK    5  A    between atoms: C_11  and  C_13
REMARK    6  A    between atoms: N_20  and  C_21
REMARK                            x       y       z     vdW  Elec       q    Type
REMARK                         _______ _______ _______ _____ _____    ______ ____
ROOT
ATOM      1  C   UNL     1       4.341   5.627  18.122  0.00  0.00    +0.000 C 
ATOM      2  C   UNL     1       3.532   6.857  17.651  0.00  0.00    +0.000 C 
ATOM      3  C   UNL     1       4.637   7.800  17.189  0.00  0.00    +0.000 C 
ATOM      4  C   UNL     1       5.794   6.899  16.783  0.00  0.00    +0.000 C 
ATOM      5  N   UNL     1       5.447   5.503  17.132  0.00  0.00    +0.000 NA
ENDROOT
BRANCH   1  10
ATOM      6  C   UNL     1       2.742   2.688  20.023  0.00  0.00    +0.000 A 
ATOM      7  C   UNL     1       2.225   1.937  18.972  0.00  0.00    +0.000 A 
ATOM      8  C   UNL     1       2.348   2.399  17.663  0.00  0.00    +0.000 A 
ATOM      9  C   UNL     1       3.000   3.609  17.407  0.00  0.00    +0.000 A 
ATOM     10  C   UNL     1       3.573   4.357  18.450  0.00  0.00    +0.000 A 
ATOM     11  C   UNL     1       3.442   3.870  19.759  0.00  0.00    +0.000 A 
BRANCH   6  13
ATOM     12  C   UNL     1       1.340   2.615  21.901  0.00  0.00    +0.000 C 
ATOM     13  O   UNL     1       2.547   2.179  21.280  0.00  0.00    +0.000 OA
ENDBRANCH   6  13
ENDBRANCH   1  10
BRANCH   2  14
ATOM     14  N   UNL     1       2.694   7.469  18.671  0.00  0.00    +0.000 N 
ATOM     15  C   UNL     1       1.953   8.605  18.426  0.00  0.00    +0.000 C 
ATOM     16  O   UNL     1       1.861   9.129  17.322  0.00  0.00    +0.000 OA
ATOM     17  H   UNL     1       2.697   7.129  19.629  0.00  0.00    +0.000 HD
BRANCH  15  18
ATOM     18  C   UNL     1       1.312   9.156  19.625  0.00  0.00    +0.000 A 
ATOM     19  C   UNL     1       1.248   8.489  20.834  0.00  0.00    +0.000 A 
ATOM     20  S   UNL     1       0.402   9.425  21.993  0.00  0.00    +0.000 S 
ATOM     21  C   UNL     1       0.174  10.646  20.809  0.00  0.00    +0.000 A 
ATOM     22  N   UNL     1       0.681  10.407  19.619  0.00  0.00    +0.000 NA
ENDBRANCH  15  18
ENDBRANCH   2  14
BRANCH   5  23
ATOM     23  C   UNL     1       5.163   4.714  15.912  0.00  0.00    +0.000 C 
ATOM     24  C   UNL     1       6.110   4.884  14.740  0.00  0.00    +0.000 C 
ATOM     25  C   UNL     1       6.084   3.595  15.501  0.00  0.00    +0.000 C 
ENDBRANCH   5  23
TORSDOF 5
ENDMDL
MODEL 6
REMARK VINA RESULT:      -6.0      1.413      1.507
REMARK  Name = 
REMARK  6 active torsions:
REMARK  status: ('A' for Active; 'I' for Inactive)
REMARK    1  A    between atoms: C_1  and  O_2
REMARK    2  A    between atoms: O_2  and  C_3
REMARK    3  A    between atoms: C_7  and  C_8
REMARK    4  A    between atoms: C_9  and  N_10
REMARK    5  A    between atoms: C_11  and  C_13
REMARK    6  A    between atoms: N_20  and  C_21
REMARK                            x       y       z     vdW  Elec       q    Type
REMARK                         _______ _______ _______ _____ _____    ______ ____
ROOT
ATOM      1  C   UNL     1       2.257   6.339  18.621  0.00  0.00    +0.000 C 
ATOM      2  C   UNL     1       3.601   6.912  18.113  0.00  0.00    +0.000 C 
ATOM      3  C   UNL     1       3.176   8.268  17.564  0.00  0.00    +0.000 C 
ATOM      4  C   UNL     1       1.930   8.650  18.351  0.00  0.00    +0.000 C 
ATOM      5  N   UNL     1       1.550   7.509  19.213  0.00  0.00    +0.000 NA
ENDROOT
BRANCH   1  10
ATOM      6  C   UNL     1       3.457   3.123  20.362  0.00  0.00    +0.000 A 
ATOM      7  C   UNL     1       2.274   2.673  20.939  0.00  0.00    +0.000 A 
ATOM      8  C   UNL     1       1.107   3.424  20.808  0.00  0.00    +0.000 A 
ATOM      9  C   UNL     1       1.125   4.624  20.089  0.00  0.00    +0.000 A 
ATOM     10  C   UNL     1       2.298   5.071  19.457  0.00  0.00    +0.000 A 
ATOM     11  C   UNL     1       3.459   4.295  19.598  0.00  0.00    +0.000 A 
BRANCH   6  13
ATOM     12  C   UNL     1       4.747   1.326  19.587  0.00  0.00    +0.000 C 
ATOM     13  O   UNL     1       4.564   2.343  20.568  0.00  0.00    +0.000 OA
ENDBRANCH   6  13
ENDBRANCH   1  10
BRANCH   2  14
ATOM     14  N   UNL     1       4.269   6.107  17.102  0.00  0.00    +0.000 N 
ATOM     15  C   UNL     1       5.594   6.295  16.773  0.00  0.00    +0.000 C 
ATOM     16  O   UNL     1       6.334   7.074  17.363  0.00  0.00    +0.000 OA
ATOM     17  H   UNL     1       3.754   5.435  16.538  0.00  0.00    +0.000 HD
BRANCH  15  18
ATOM     18  C   UNL     1       6.030   5.502  15.620  0.00  0.00    +0.000 A 
ATOM     19  C   UNL     1       5.229   4.571  14.984  0.00  0.00    +0.000 A 
ATOM     20  S   UNL     1       6.082   3.821  13.701  0.00  0.00    +0.000 S 
ATOM     21  C   UNL     1       7.454   4.779  14.081  0.00  0.00    +0.000 A 
ATOM     22  N   UNL     1       7.323   5.612  15.090  0.00  0.00    +0.000 NA
ENDBRANCH  15  18
ENDBRANCH   2  14
BRANCH   5  23
ATOM     23  C   UNL     1       1.835   7.809  20.634  0.00  0.00    +0.000 C 
ATOM     24  C   UNL     1       1.282   9.106  21.194  0.00  0.00    +0.000 C 
ATOM     25  C   UNL     1       0.723   7.794  21.650  0.00  0.00    +0.000 C 
ENDBRANCH   5  23
TORSDOF 5
ENDMDL
MODEL 7
REMARK VINA RESULT:      -6.0      3.855      6.370
REMARK  Name = 
REMARK  6 active torsions:
REMARK  status: ('A' for Active; 'I' for Inactive)
REMARK    1  A    between atoms: C_1  and  O_2
REMARK    2  A    between atoms: O_2  and  C_3
REMARK    3  A    between atoms: C_7  and  C_8
REMARK    4  A    between atoms: C_9  and  N_10
REMARK    5  A    between atoms: C_11  and  C_13
REMARK    6  A    between atoms: N_20  and  C_21
REMARK                            x       y       z     vdW  Elec       q    Type
REMARK                         _______ _______ _______ _____ _____    ______ ____
ROOT
ATOM      1  C   UNL     1       3.462   6.112  19.014  0.00  0.00    +0.000 C 
ATOM      2  C   UNL     1       2.518   7.197  18.446  0.00  0.00    +0.000 C 
ATOM      3  C   UNL     1       3.478   8.045  17.620  0.00  0.00    +0.000 C 
ATOM      4  C   UNL     1       4.603   7.103  17.215  0.00  0.00    +0.000 C 
ATOM      5  N   UNL     1       4.397   5.806  17.896  0.00  0.00    +0.000 NA
ENDROOT
BRANCH   1  10
ATOM      6  C   UNL     1       2.980   2.853  21.003  0.00  0.00    +0.000 A 
ATOM      7  C   UNL     1       1.600   2.689  20.919  0.00  0.00    +0.000 A 
ATOM      8  C   UNL     1       0.825   3.647  20.269  0.00  0.00    +0.000 A 
ATOM      9  C   UNL     1       1.435   4.765  19.691  0.00  0.00    +0.000 A 
ATOM     10  C   UNL     1       2.831   4.924  19.721  0.00  0.00    +0.000 A 
ATOM     11  C   UNL     1       3.592   3.944  20.377  0.00  0.00    +0.000 A 
BRANCH   6  13
ATOM     12  C   UNL     1       4.847   1.436  21.038  0.00  0.00    +0.000 C 
ATOM     13  O   UNL     1       3.661   1.884  21.690  0.00  0.00    +0.000 OA
ENDBRANCH   6  13
ENDBRANCH   1  10
BRANCH   2  14
ATOM     14  N   UNL     1       1.824   7.992  19.448  0.00  0.00    +0.000 N 
ATOM     15  C   UNL     1       1.056   9.086  19.112  0.00  0.00    +0.000 C 
ATOM     16  O   UNL     1       0.816   9.416  17.956  0.00  0.00    +0.000 OA
ATOM     17  H   UNL     1       1.956   7.820  20.441  0.00  0.00    +0.000 HD
BRANCH  15  18
ATOM     18  C   UNL     1       0.580   9.847  20.271  0.00  0.00    +0.000 A 
ATOM     19  C   UNL     1       0.010   9.264  21.388  0.00  0.00    +0.000 A 
ATOM     20  S   UNL     1      -0.449  10.462  22.524  0.00  0.00    +0.000 S 
ATOM     21  C   UNL     1       0.135  11.670  21.453  0.00  0.00    +0.000 A 
ATOM     22  N   UNL     1       0.644  11.246  20.317  0.00  0.00    +0.000 NA
ENDBRANCH  15  18
ENDBRANCH   2  14
BRANCH   5  23
ATOM     23  C   UNL     1       3.964   4.771  16.930  0.00  0.00    +0.000 C 
ATOM     24  C   UNL     1       5.022   4.196  16.008  0.00  0.00    +0.000 C 
ATOM     25  C   UNL     1       4.427   3.346  17.088  0.00  0.00    +0.000 C 
ENDBRANCH   5  23
TORSDOF 5
ENDMDL
MODEL 8
REMARK VINA RESULT:      -5.9      3.740      6.548
REMARK  Name = 
REMARK  6 active torsions:
REMARK  status: ('A' for Active; 'I' for Inactive)
REMARK    1  A    between atoms: C_1  and  O_2
REMARK    2  A    between atoms: O_2  and  C_3
REMARK    3  A    between atoms: C_7  and  C_8
REMARK    4  A    between atoms: C_9  and  N_10
REMARK    5  A    between atoms: C_11  and  C_13
REMARK    6  A    between atoms: N_20  and  C_21
REMARK                            x       y       z     vdW  Elec       q    Type
REMARK                         _______ _______ _______ _____ _____    ______ ____
ROOT
ATOM      1  C   UNL     1       2.785   4.925  18.654  0.00  0.00    +0.000 C 
ATOM      2  C   UNL     1       2.594   5.935  19.809  0.00  0.00    +0.000 C 
ATOM      3  C   UNL     1       1.552   5.231  20.671  0.00  0.00    +0.000 C 
ATOM      4  C   UNL     1       1.736   3.746  20.395  0.00  0.00    +0.000 C 
ATOM      5  N   UNL     1       2.730   3.589  19.310  0.00  0.00    +0.000 NA
ENDROOT
BRANCH   1  10
ATOM      6  C   UNL     1       5.781   6.505  16.826  0.00  0.00    +0.000 A 
ATOM      7  C   UNL     1       5.975   5.594  15.792  0.00  0.00    +0.000 A 
ATOM      8  C   UNL     1       5.177   4.453  15.712  0.00  0.00    +0.000 A 
ATOM      9  C   UNL     1       4.177   4.232  16.663  0.00  0.00    +0.000 A 
ATOM     10  C   UNL     1       3.932   5.164  17.686  0.00  0.00    +0.000 A 
ATOM     11  C   UNL     1       4.744   6.308  17.744  0.00  0.00    +0.000 A 
BRANCH   6  13
ATOM     12  C   UNL     1       7.701   7.450  17.784  0.00  0.00    +0.000 C 
ATOM     13  O   UNL     1       6.630   7.578  16.851  0.00  0.00    +0.000 OA
ENDBRANCH   6  13
ENDBRANCH   1  10
BRANCH   2  14
ATOM     14  N   UNL     1       2.150   7.259  19.402  0.00  0.00    +0.000 N 
ATOM     15  C   UNL     1       1.622   8.163  20.298  0.00  0.00    +0.000 C 
ATOM     16  O   UNL     1       1.576   7.970  21.507  0.00  0.00    +0.000 OA
ATOM     17  H   UNL     1       2.130   7.529  18.421  0.00  0.00    +0.000 HD
BRANCH  15  18
ATOM     18  C   UNL     1       1.082   9.370  19.663  0.00  0.00    +0.000 A 
ATOM     19  C   UNL     1       0.044  10.114  20.192  0.00  0.00    +0.000 A 
ATOM     20  S   UNL     1      -0.335  11.433  19.165  0.00  0.00    +0.000 S 
ATOM     21  C   UNL     1       0.900  10.921  18.088  0.00  0.00    +0.000 A 
ATOM     22  N   UNL     1       1.570   9.844  18.438  0.00  0.00    +0.000 NA
ENDBRANCH  15  18
ENDBRANCH   2  14
BRANCH   5  23
ATOM     23  C   UNL     1       4.005   3.056  19.842  0.00  0.00    +0.000 C 
ATOM     24  C   UNL     1       3.918   1.934  20.858  0.00  0.00    +0.000 C 
ATOM     25  C   UNL     1       4.451   1.662  19.486  0.00  0.00    +0.000 C 
ENDBRANCH   5  23
TORSDOF 5
ENDMDL
MODEL 9
REMARK VINA RESULT:      -5.9      3.091      5.729
REMARK  Name = 
REMARK  6 active torsions:
REMARK  status: ('A' for Active; 'I' for Inactive)
REMARK    1  A    between atoms: C_1  and  O_2
REMARK    2  A    between atoms: O_2  and  C_3
REMARK    3  A    between atoms: C_7  and  C_8
REMARK    4  A    between atoms: C_9  and  N_10
REMARK    5  A    between atoms: C_11  and  C_13
REMARK    6  A    between atoms: N_20  and  C_21
REMARK                            x       y       z     vdW  Elec       q    Type
REMARK                         _______ _______ _______ _____ _____    ______ ____
ROOT
ATOM      1  C   UNL     1       5.211   5.178  17.904  0.00  0.00    +0.000 C 
ATOM      2  C   UNL     1       4.632   6.442  17.226  0.00  0.00    +0.000 C 
ATOM      3  C   UNL     1       5.895   7.142  16.738  0.00  0.00    +0.000 C 
ATOM      4  C   UNL     1       6.918   6.033  16.533  0.00  0.00    +0.000 C 
ATOM      5  N   UNL     1       6.338   4.762  17.022  0.00  0.00    +0.000 NA
ENDROOT
BRANCH   1  10
ATOM      6  C   UNL     1       3.119   2.739  20.021  0.00  0.00    +0.000 A 
ATOM      7  C   UNL     1       2.496   1.989  19.029  0.00  0.00    +0.000 A 
ATOM      8  C   UNL     1       2.710   2.297  17.686  0.00  0.00    +0.000 A 
ATOM      9  C   UNL     1       3.559   3.352  17.339  0.00  0.00    +0.000 A 
ATOM     10  C   UNL     1       4.237   4.091  18.325  0.00  0.00    +0.000 A 
ATOM     11  C   UNL     1       4.010   3.758  19.669  0.00  0.00    +0.000 A 
BRANCH   6  13
ATOM     12  C   UNL     1       1.457   2.572  21.666  0.00  0.00    +0.000 C 
ATOM     13  O   UNL     1       2.826   2.392  21.313  0.00  0.00    +0.000 OA
ENDBRANCH   6  13
ENDBRANCH   1  10
BRANCH   2  14
ATOM     14  N   UNL     1       3.844   7.300  18.097  0.00  0.00    +0.000 N 
ATOM     15  C   UNL     1       2.487   7.127  18.264  0.00  0.00    +0.000 C 
ATOM     16  O   UNL     1       1.859   6.192  17.780  0.00  0.00    +0.000 OA
ATOM     17  H   UNL     1       4.255   8.116  18.544  0.00  0.00    +0.000 HD
BRANCH  15  18
ATOM     18  C   UNL     1       1.853   8.192  19.047  0.00  0.00    +0.000 A 
ATOM     19  C   UNL     1       1.441   9.397  18.508  0.00  0.00    +0.000 A 
ATOM     20  S   UNL     1       0.772  10.402  19.724  0.00  0.00    +0.000 S 
ATOM     21  C   UNL     1       1.080   9.172  20.880  0.00  0.00    +0.000 A 
ATOM     22  N   UNL     1       1.642   8.073  20.427  0.00  0.00    +0.000 NA
ENDBRANCH  15  18
ENDBRANCH   2  14
BRANCH   5  23
ATOM     23  C   UNL     1       6.003   3.870  15.890  0.00  0.00    +0.000 C 
ATOM     24  C   UNL     1       5.355   4.505  14.675  0.00  0.00    +0.000 C 
ATOM     25  C   UNL     1       6.755   3.981  14.589  0.00  0.00    +0.000 C 
ENDBRANCH   5  23
TORSDOF 5
ENDMDL
