MODEL 1
REMARK VINA RESULT:      -8.1      0.000      0.000
REMARK  Name = 
REMARK  5 active torsions:
REMARK  status: ('A' for Active; 'I' for Inactive)
REMARK    1  A    between atoms: C_1  and  S_2
REMARK    2  A    between atoms: S_2  and  C_3
REMARK    3  A    between atoms: C_6  and  C_7
REMARK    4  A    between atoms: C_7  and  C_8
REMARK    5  A    between atoms: C_11  and  O_12
REMARK                            x       y       z     vdW  Elec       q    Type
REMARK                         _______ _______ _______ _____ _____    ______ ____
ROOT
ATOM      1  C   UNL     1       3.586   5.605  18.970  0.00  0.00    +0.000 A 
ATOM      2  N   UNL     1       4.942   5.477  19.033  0.00  0.00    +0.000 NA
ATOM      3  N   UNL     1       5.480   4.274  19.263  0.00  0.00    +0.000 NA
ATOM      4  C   UNL     1       4.742   3.182  19.042  0.00  0.00    +0.000 A 
ATOM      5  C   UNL     1       3.391   3.244  18.722  0.00  0.00    +0.000 A 
ATOM      6  C   UNL     1       2.683   2.071  18.369  0.00  0.00    +0.000 A 
ATOM      7  C   UNL     1       1.374   1.947  18.788  0.00  0.00    +0.000 A 
ATOM      8  C   UNL     1       0.823   2.992  19.525  0.00  0.00    +0.000 A 
ATOM      9  C   UNL     1       1.458   4.252  19.568  0.00  0.00    +0.000 A 
ATOM     10  C   UNL     1       2.762   4.443  19.036  0.00  0.00    +0.000 A 
ENDROOT
BRANCH   4  11
ATOM     11  O   UNL     1       5.054   2.144  19.898  0.00  0.00    +0.000 OA
ATOM     12  H   UNL     1       5.641   2.627  20.516  0.00  0.00    +0.000 HD
ENDBRANCH   4  11
BRANCH   1  13
ATOM     13  C   UNL     1       3.105   6.841  18.216  0.00  0.00    +0.000 C 
BRANCH  13  17
ATOM     14  C   UNL     1       0.634   9.786  20.316  0.00  0.00    +0.000 A 
ATOM     15  C   UNL     1       0.880   9.950  18.950  0.00  0.00    +0.000 A 
ATOM     16  C   UNL     1       1.643   9.000  18.231  0.00  0.00    +0.000 A 
ATOM     17  C   UNL     1       2.189   7.874  18.860  0.00  0.00    +0.000 A 
ATOM     18  C   UNL     1       1.861   7.683  20.217  0.00  0.00    +0.000 A 
ATOM     19  C   UNL     1       1.109   8.626  20.929  0.00  0.00    +0.000 A 
BRANCH  14  21
ATOM     20  C   UNL     1      -0.437  10.091  22.942  0.00  0.00    +0.000 C 
ATOM     21  S   UNL     1      -0.162  10.981  21.389  0.00  0.00    +0.000 S 
ENDBRANCH  14  21
ENDBRANCH  13  17
ENDBRANCH   1  13
TORSDOF 4
ENDMDL
MODEL 2
REMARK VINA RESULT:      -8.1      0.801      1.589
REMARK  Name = 
REMARK  5 active torsions:
REMARK  status: ('A' for Active; 'I' for Inactive)
REMARK    1  A    between atoms: C_1  and  S_2
REMARK    2  A    between atoms: S_2  and  C_3
REMARK    3  A    between atoms: C_6  and  C_7
REMARK    4  A    between atoms: C_7  and  C_8
REMARK    5  A    between atoms: C_11  and  O_12
REMARK                            x       y       z     vdW  Elec       q    Type
REMARK                         _______ _______ _______ _____ _____    ______ ____
ROOT
ATOM      1  C   UNL     1       3.633   5.628  18.930  0.00  0.00    +0.000 A 
ATOM      2  N   UNL     1       4.988   5.475  18.945  0.00  0.00    +0.000 NA
ATOM      3  N   UNL     1       5.513   4.275  19.218  0.00  0.00    +0.000 NA
ATOM      4  C   UNL     1       4.746   3.189  19.088  0.00  0.00    +0.000 A 
ATOM      5  C   UNL     1       3.384   3.262  18.821  0.00  0.00    +0.000 A 
ATOM      6  C   UNL     1       2.640   2.086  18.561  0.00  0.00    +0.000 A 
ATOM      7  C   UNL     1       1.348   2.012  19.040  0.00  0.00    +0.000 A 
ATOM      8  C   UNL     1       0.848   3.107  19.740  0.00  0.00    +0.000 A 
ATOM      9  C   UNL     1       1.507   4.354  19.688  0.00  0.00    +0.000 A 
ATOM     10  C   UNL     1       2.792   4.489  19.094  0.00  0.00    +0.000 A 
ENDROOT
BRANCH   4  11
ATOM     11  O   UNL     1       5.074   2.191  19.986  0.00  0.00    +0.000 OA
ATOM     12  H   UNL     1       4.670   2.574  20.793  0.00  0.00    +0.000 HD
ENDBRANCH   4  11
BRANCH   1  13
ATOM     13  C   UNL     1       3.144   6.831  18.131  0.00  0.00    +0.000 C 
BRANCH  13  17
ATOM     14  C   UNL     1       0.482   9.953  19.666  0.00  0.00    +0.000 A 
ATOM     15  C   UNL     1       0.958   8.971  20.538  0.00  0.00    +0.000 A 
ATOM     16  C   UNL     1       1.848   7.967  20.087  0.00  0.00    +0.000 A 
ATOM     17  C   UNL     1       2.272   7.914  18.753  0.00  0.00    +0.000 A 
ATOM     18  C   UNL     1       1.848   8.959  17.909  0.00  0.00    +0.000 A 
ATOM     19  C   UNL     1       0.963   9.949  18.356  0.00  0.00    +0.000 A 
BRANCH  14  21
ATOM     20  C   UNL     1      -1.167  11.938  18.451  0.00  0.00    +0.000 C 
ATOM     21  S   UNL     1      -0.774  11.175  20.045  0.00  0.00    +0.000 S 
ENDBRANCH  14  21
ENDBRANCH  13  17
ENDBRANCH   1  13
TORSDOF 4
ENDMDL
MODEL 3
REMARK VINA RESULT:      -7.6      2.869      3.865
REMARK  Name = 
REMARK  5 active torsions:
REMARK  status: ('A' for Active; 'I' for Inactive)
REMARK    1  A    between atoms: C_1  and  S_2
REMARK    2  A    between atoms: S_2  and  C_3
REMARK    3  A    between atoms: C_6  and  C_7
REMARK    4  A    between atoms: C_7  and  C_8
REMARK    5  A    between atoms: C_11  and  O_12
REMARK                            x       y       z     vdW  Elec       q    Type
REMARK                         _______ _______ _______ _____ _____    ______ ____
ROOT
ATOM      1  C   UNL     1       4.480   4.152  17.661  0.00  0.00    +0.000 A 
ATOM      2  N   UNL     1       5.092   4.242  18.876  0.00  0.00    +0.000 NA
ATOM      3  N   UNL     1       6.427   4.322  18.938  0.00  0.00    +0.000 NA
ATOM      4  C   UNL     1       7.103   4.700  17.848  0.00  0.00    +0.000 A 
ATOM      5  C   UNL     1       6.493   4.873  16.611  0.00  0.00    +0.000 A 
ATOM      6  C   UNL     1       7.223   5.399  15.520  0.00  0.00    +0.000 A 
ATOM      7  C   UNL     1       6.968   4.897  14.260  0.00  0.00    +0.000 A 
ATOM      8  C   UNL     1       5.995   3.908  14.137  0.00  0.00    +0.000 A 
ATOM      9  C   UNL     1       5.088   3.659  15.190  0.00  0.00    +0.000 A 
ATOM     10  C   UNL     1       5.256   4.256  16.469  0.00  0.00    +0.000 A 
ENDROOT
BRANCH   4  11
ATOM     11  O   UNL     1       8.351   4.115  17.765  0.00  0.00    +0.000 OA
ATOM     12  H   UNL     1       8.298   3.529  18.549  0.00  0.00    +0.000 HD
ENDBRANCH   4  11
BRANCH   1  13
ATOM     13  C   UNL     1       3.017   4.579  17.660  0.00  0.00    +0.000 C 
BRANCH  13  17
ATOM     14  C   UNL     1       1.690   7.812  20.303  0.00  0.00    +0.000 A 
ATOM     15  C   UNL     1       2.140   8.122  19.017  0.00  0.00    +0.000 A 
ATOM     16  C   UNL     1       2.542   7.102  18.123  0.00  0.00    +0.000 A 
ATOM     17  C   UNL     1       2.517   5.752  18.496  0.00  0.00    +0.000 A 
ATOM     18  C   UNL     1       1.983   5.453  19.765  0.00  0.00    +0.000 A 
ATOM     19  C   UNL     1       1.590   6.463  20.651  0.00  0.00    +0.000 A 
BRANCH  14  21
ATOM     20  C   UNL     1      -0.430   8.706  21.988  0.00  0.00    +0.000 C 
ATOM     21  S   UNL     1       1.314   8.994  21.597  0.00  0.00    +0.000 S 
ENDBRANCH  14  21
ENDBRANCH  13  17
ENDBRANCH   1  13
TORSDOF 4
ENDMDL
MODEL 4
REMARK VINA RESULT:      -7.5      1.970      3.434
REMARK  Name = 
REMARK  5 active torsions:
REMARK  status: ('A' for Active; 'I' for Inactive)
REMARK    1  A    between atoms: C_1  and  S_2
REMARK    2  A    between atoms: S_2  and  C_3
REMARK    3  A    between atoms: C_6  and  C_7
REMARK    4  A    between atoms: C_7  and  C_8
REMARK    5  A    between atoms: C_11  and  O_12
REMARK                            x       y       z     vdW  Elec       q    Type
REMARK                         _______ _______ _______ _____ _____    ______ ____
ROOT
ATOM      1  C   UNL     1       3.561   6.031  17.639  0.00  0.00    +0.000 A 
ATOM      2  N   UNL     1       2.832   5.012  18.178  0.00  0.00    +0.000 NA
ATOM      3  N   UNL     1       3.463   4.002  18.788  0.00  0.00    +0.000 NA
ATOM      4  C   UNL     1       4.721   4.181  19.202  0.00  0.00    +0.000 A 
ATOM      5  C   UNL     1       5.454   5.322  18.898  0.00  0.00    +0.000 A 
ATOM      6  C   UNL     1       6.734   5.524  19.466  0.00  0.00    +0.000 A 
ATOM      7  C   UNL     1       7.708   6.117  18.689  0.00  0.00    +0.000 A 
ATOM      8  C   UNL     1       7.367   6.492  17.392  0.00  0.00    +0.000 A 
ATOM      9  C   UNL     1       6.014   6.562  16.996  0.00  0.00    +0.000 A 
ATOM     10  C   UNL     1       4.973   6.067  17.828  0.00  0.00    +0.000 A 
ENDROOT
BRANCH   4  11
ATOM     11  O   UNL     1       5.469   3.021  19.153  0.00  0.00    +0.000 OA
ATOM     12  H   UNL     1       5.115   2.646  18.320  0.00  0.00    +0.000 HD
ENDBRANCH   4  11
BRANCH   1  13
ATOM     13  C   UNL     1       2.782   7.328  17.447  0.00  0.00    +0.000 C 
BRANCH  13  17
ATOM     14  C   UNL     1       0.750   9.558  20.624  0.00  0.00    +0.000 A 
ATOM     15  C   UNL     1       1.372   8.345  20.931  0.00  0.00    +0.000 A 
ATOM     16  C   UNL     1       2.068   7.615  19.939  0.00  0.00    +0.000 A 
ATOM     17  C   UNL     1       2.148   8.072  18.618  0.00  0.00    +0.000 A 
ATOM     18  C   UNL     1       1.587   9.335  18.346  0.00  0.00    +0.000 A 
ATOM     19  C   UNL     1       0.894  10.055  19.327  0.00  0.00    +0.000 A 
BRANCH  14  21
ATOM     20  C   UNL     1      -0.239   9.616  23.299  0.00  0.00    +0.000 C 
ATOM     21  S   UNL     1      -0.306  10.503  21.722  0.00  0.00    +0.000 S 
ENDBRANCH  14  21
ENDBRANCH  13  17
ENDBRANCH   1  13
TORSDOF 4
ENDMDL
MODEL 5
REMARK VINA RESULT:      -7.4      2.546      3.663
REMARK  Name = 
REMARK  5 active torsions:
REMARK  status: ('A' for Active; 'I' for Inactive)
REMARK    1  A    between atoms: C_1  and  S_2
REMARK    2  A    between atoms: S_2  and  C_3
REMARK    3  A    between atoms: C_6  and  C_7
REMARK    4  A    between atoms: C_7  and  C_8
REMARK    5  A    between atoms: C_11  and  O_12
REMARK                            x       y       z     vdW  Elec       q    Type
REMARK                         _______ _______ _______ _____ _____    ______ ____
ROOT
ATOM      1  C   UNL     1       4.354   4.748  18.556  0.00  0.00    +0.000 A 
ATOM      2  N   UNL     1       4.983   5.042  19.730  0.00  0.00    +0.000 NA
ATOM      3  N   UNL     1       6.318   5.135  19.756  0.00  0.00    +0.000 NA
ATOM      4  C   UNL     1       6.976   5.327  18.608  0.00  0.00    +0.000 A 
ATOM      5  C   UNL     1       6.347   5.289  17.369  0.00  0.00    +0.000 A 
ATOM      6  C   UNL     1       7.057   5.627  16.193  0.00  0.00    +0.000 A 
ATOM      7  C   UNL     1       6.786   4.921  15.040  0.00  0.00    +0.000 A 
ATOM      8  C   UNL     1       5.816   3.923  15.100  0.00  0.00    +0.000 A 
ATOM      9  C   UNL     1       4.926   3.851  16.193  0.00  0.00    +0.000 A 
ATOM     10  C   UNL     1       5.111   4.654  17.352  0.00  0.00    +0.000 A 
ENDROOT
BRANCH   4  11
ATOM     11  O   UNL     1       8.226   4.739  18.604  0.00  0.00    +0.000 OA
ATOM     12  H   UNL     1       8.008   3.920  18.113  0.00  0.00    +0.000 HD
ENDBRANCH   4  11
BRANCH   1  13
ATOM     13  C   UNL     1       2.888   5.166  18.507  0.00  0.00    +0.000 C 
BRANCH  13  17
ATOM     14  C   UNL     1       1.466   9.237  19.280  0.00  0.00    +0.000 A 
ATOM     15  C   UNL     1       1.500   8.314  20.329  0.00  0.00    +0.000 A 
ATOM     16  C   UNL     1       1.986   7.001  20.126  0.00  0.00    +0.000 A 
ATOM     17  C   UNL     1       2.437   6.576  18.870  0.00  0.00    +0.000 A 
ATOM     18  C   UNL     1       2.474   7.544  17.846  0.00  0.00    +0.000 A 
ATOM     19  C   UNL     1       1.987   8.842  18.047  0.00  0.00    +0.000 A 
BRANCH  14  21
ATOM     20  C   UNL     1      -1.035  10.583  19.022  0.00  0.00    +0.000 C 
ATOM     21  S   UNL     1       0.724  10.868  19.341  0.00  0.00    +0.000 S 
ENDBRANCH  14  21
ENDBRANCH  13  17
ENDBRANCH   1  13
TORSDOF 4
ENDMDL
MODEL 6
REMARK VINA RESULT:      -7.4      2.064      3.386
REMARK  Name = 
REMARK  5 active torsions:
REMARK  status: ('A' for Active; 'I' for Inactive)
REMARK    1  A    between atoms: C_1  and  S_2
REMARK    2  A    between atoms: S_2  and  C_3
REMARK    3  A    between atoms: C_6  and  C_7
REMARK    4  A    between atoms: C_7  and  C_8
REMARK    5  A    between atoms: C_11  and  O_12
REMARK                            x       y       z     vdW  Elec       q    Type
REMARK                         _______ _______ _______ _____ _____    ______ ____
ROOT
ATOM      1  C   UNL     1       3.603   6.409  17.667  0.00  0.00    +0.000 A 
ATOM      2  N   UNL     1       2.815   5.369  18.064  0.00  0.00    +0.000 NA
ATOM      3  N   UNL     1       3.385   4.254  18.537  0.00  0.00    +0.000 NA
ATOM      4  C   UNL     1       4.646   4.309  18.976  0.00  0.00    +0.000 A 
ATOM      5  C   UNL     1       5.442   5.439  18.828  0.00  0.00    +0.000 A 
ATOM      6  C   UNL     1       6.724   5.496  19.424  0.00  0.00    +0.000 A 
ATOM      7  C   UNL     1       7.737   6.132  18.736  0.00  0.00    +0.000 A 
ATOM      8  C   UNL     1       7.432   6.693  17.498  0.00  0.00    +0.000 A 
ATOM      9  C   UNL     1       6.088   6.887  17.110  0.00  0.00    +0.000 A 
ATOM     10  C   UNL     1       5.013   6.343  17.864  0.00  0.00    +0.000 A 
ENDROOT
BRANCH   4  11
ATOM     11  O   UNL     1       5.333   3.127  18.777  0.00  0.00    +0.000 OA
ATOM     12  H   UNL     1       5.102   2.972  17.838  0.00  0.00    +0.000 HD
ENDBRANCH   4  11
BRANCH   1  13
ATOM     13  C   UNL     1       2.896   7.760  17.644  0.00  0.00    +0.000 C 
BRANCH  13  17
ATOM     14  C   UNL     1       0.660   9.064  21.179  0.00  0.00    +0.000 A 
ATOM     15  C   UNL     1       0.568   9.807  19.999  0.00  0.00    +0.000 A 
ATOM     16  C   UNL     1       1.247   9.398  18.827  0.00  0.00    +0.000 A 
ATOM     17  C   UNL     1       2.043   8.245  18.810  0.00  0.00    +0.000 A 
ATOM     18  C   UNL     1       2.057   7.464  19.983  0.00  0.00    +0.000 A 
ATOM     19  C   UNL     1       1.388   7.873  21.144  0.00  0.00    +0.000 A 
BRANCH  14  21
ATOM     20  C   UNL     1      -0.855  11.108  22.467  0.00  0.00    +0.000 C 
ATOM     21  S   UNL     1       0.003   9.544  22.776  0.00  0.00    +0.000 S 
ENDBRANCH  14  21
ENDBRANCH  13  17
ENDBRANCH   1  13
TORSDOF 4
ENDMDL
MODEL 7
REMARK VINA RESULT:      -7.2      1.412      1.888
REMARK  Name = 
REMARK  5 active torsions:
REMARK  status: ('A' for Active; 'I' for Inactive)
REMARK    1  A    between atoms: C_1  and  S_2
REMARK    2  A    between atoms: S_2  and  C_3
REMARK    3  A    between atoms: C_6  and  C_7
REMARK    4  A    between atoms: C_7  and  C_8
REMARK    5  A    between atoms: C_11  and  O_12
REMARK                            x       y       z     vdW  Elec       q    Type
REMARK                         _______ _______ _______ _____ _____    ______ ____
ROOT
ATOM      1  C   UNL     1       3.118   6.632  18.222  0.00  0.00    +0.000 A 
ATOM      2  N   UNL     1       4.319   6.771  17.592  0.00  0.00    +0.000 NA
ATOM      3  N   UNL     1       5.028   5.680  17.277  0.00  0.00    +0.000 NA
ATOM      4  C   UNL     1       4.405   4.498  17.222  0.00  0.00    +0.000 A 
ATOM      5  C   UNL     1       3.085   4.328  17.619  0.00  0.00    +0.000 A 
ATOM      6  C   UNL     1       2.430   3.090  17.420  0.00  0.00    +0.000 A 
ATOM      7  C   UNL     1       1.544   2.657  18.385  0.00  0.00    +0.000 A 
ATOM      8  C   UNL     1       1.338   3.473  19.494  0.00  0.00    +0.000 A 
ATOM      9  C   UNL     1       1.761   4.819  19.483  0.00  0.00    +0.000 A 
ATOM     10  C   UNL     1       2.579   5.330  18.439  0.00  0.00    +0.000 A 
ENDROOT
BRANCH   4  11
ATOM     11  O   UNL     1       5.224   3.446  17.584  0.00  0.00    +0.000 OA
ATOM     12  H   UNL     1       5.218   3.574  18.555  0.00  0.00    +0.000 HD
ENDBRANCH   4  11
BRANCH   1  13
ATOM     13  C   UNL     1       2.186   7.830  18.071  0.00  0.00    +0.000 C 
BRANCH  13  17
ATOM     14  C   UNL     1       0.299  10.019  21.363  0.00  0.00    +0.000 A 
ATOM     15  C   UNL     1       0.980   8.830  21.635  0.00  0.00    +0.000 A 
ATOM     16  C   UNL     1       1.633   8.114  20.603  0.00  0.00    +0.000 A 
ATOM     17  C   UNL     1       1.608   8.562  19.276  0.00  0.00    +0.000 A 
ATOM     18  C   UNL     1       0.988   9.804  19.035  0.00  0.00    +0.000 A 
ATOM     19  C   UNL     1       0.339  10.509  20.056  0.00  0.00    +0.000 A 
BRANCH  14  21
ATOM     20  C   UNL     1      -1.671  12.078  21.493  0.00  0.00    +0.000 C 
ATOM     21  S   UNL     1      -0.712  10.938  22.523  0.00  0.00    +0.000 S 
ENDBRANCH  14  21
ENDBRANCH  13  17
ENDBRANCH   1  13
TORSDOF 4
ENDMDL
MODEL 8
REMARK VINA RESULT:      -7.1      4.327      6.367
REMARK  Name = 
REMARK  5 active torsions:
REMARK  status: ('A' for Active; 'I' for Inactive)
REMARK    1  A    between atoms: C_1  and  S_2
REMARK    2  A    between atoms: S_2  and  C_3
REMARK    3  A    between atoms: C_6  and  C_7
REMARK    4  A    between atoms: C_7  and  C_8
REMARK    5  A    between atoms: C_11  and  O_12
REMARK                            x       y       z     vdW  Elec       q    Type
REMARK                         _______ _______ _______ _____ _____    ______ ____
ROOT
ATOM      1  C   UNL     1       4.806   4.952  19.097  0.00  0.00    +0.000 A 
ATOM      2  N   UNL     1       5.605   3.854  19.227  0.00  0.00    +0.000 NA
ATOM      3  N   UNL     1       5.175   2.809  19.944  0.00  0.00    +0.000 NA
ATOM      4  C   UNL     1       3.867   2.685  20.187  0.00  0.00    +0.000 A 
ATOM      5  C   UNL     1       2.946   3.670  19.851  0.00  0.00    +0.000 A 
ATOM      6  C   UNL     1       1.559   3.438  20.007  0.00  0.00    +0.000 A 
ATOM      7  C   UNL     1       0.764   4.487  20.421  0.00  0.00    +0.000 A 
ATOM      8  C   UNL     1       1.375   5.718  20.649  0.00  0.00    +0.000 A 
ATOM      9  C   UNL     1       2.680   5.971  20.173  0.00  0.00    +0.000 A 
ATOM     10  C   UNL     1       3.484   4.932  19.629  0.00  0.00    +0.000 A 
ENDROOT
BRANCH   4  11
ATOM     11  O   UNL     1       3.603   2.082  21.401  0.00  0.00    +0.000 OA
ATOM     12  H   UNL     1       3.463   2.885  21.944  0.00  0.00    +0.000 HD
ENDBRANCH   4  11
BRANCH   1  13
ATOM     13  C   UNL     1       5.132   5.827  17.891  0.00  0.00    +0.000 C 
BRANCH  13  17
ATOM     14  C   UNL     1       6.371   4.207  14.014  0.00  0.00    +0.000 A 
ATOM     15  C   UNL     1       7.313   4.860  14.814  0.00  0.00    +0.000 A 
ATOM     16  C   UNL     1       6.958   5.365  16.088  0.00  0.00    +0.000 A 
ATOM     17  C   UNL     1       5.655   5.241  16.585  0.00  0.00    +0.000 A 
ATOM     18  C   UNL     1       4.742   4.508  15.801  0.00  0.00    +0.000 A 
ATOM     19  C   UNL     1       5.093   4.013  14.538  0.00  0.00    +0.000 A 
BRANCH  14  21
ATOM     20  C   UNL     1       4.997   3.089  11.778  0.00  0.00    +0.000 C 
ATOM     21  S   UNL     1       6.624   3.672  12.322  0.00  0.00    +0.000 S 
ENDBRANCH  14  21
ENDBRANCH  13  17
ENDBRANCH   1  13
TORSDOF 4
ENDMDL
MODEL 9
REMARK VINA RESULT:      -7.1      1.720      2.183
REMARK  Name = 
REMARK  5 active torsions:
REMARK  status: ('A' for Active; 'I' for Inactive)
REMARK    1  A    between atoms: C_1  and  S_2
REMARK    2  A    between atoms: S_2  and  C_3
REMARK    3  A    between atoms: C_6  and  C_7
REMARK    4  A    between atoms: C_7  and  C_8
REMARK    5  A    between atoms: C_11  and  O_12
REMARK                            x       y       z     vdW  Elec       q    Type
REMARK                         _______ _______ _______ _____ _____    ______ ____
ROOT
ATOM      1  C   UNL     1       3.674   5.178  18.515  0.00  0.00    +0.000 A 
ATOM      2  N   UNL     1       3.764   4.751  17.223  0.00  0.00    +0.000 NA
ATOM      3  N   UNL     1       3.204   3.587  16.874  0.00  0.00    +0.000 NA
ATOM      4  C   UNL     1       2.258   3.063  17.660  0.00  0.00    +0.000 A 
ATOM      5  C   UNL     1       1.933   3.599  18.900  0.00  0.00    +0.000 A 
ATOM      6  C   UNL     1       0.838   3.089  19.637  0.00  0.00    +0.000 A 
ATOM      7  C   UNL     1       0.952   3.016  21.010  0.00  0.00    +0.000 A 
ATOM      8  C   UNL     1       2.137   3.461  21.590  0.00  0.00    +0.000 A 
ATOM      9  C   UNL     1       3.048   4.246  20.851  0.00  0.00    +0.000 A 
ATOM     10  C   UNL     1       2.892   4.440  19.451  0.00  0.00    +0.000 A 
ENDROOT
BRANCH   4  11
ATOM     11  O   UNL     1       2.257   1.681  17.644  0.00  0.00    +0.000 OA
ATOM     12  H   UNL     1       1.711   1.538  16.842  0.00  0.00    +0.000 HD
ENDBRANCH   4  11
BRANCH   1  13
ATOM     13  C   UNL     1       3.866   6.680  18.696  0.00  0.00    +0.000 C 
BRANCH  13  17
ATOM     14  C   UNL     1       0.566   9.519  19.194  0.00  0.00    +0.000 A 
ATOM     15  C   UNL     1       1.148   9.362  17.933  0.00  0.00    +0.000 A 
ATOM     16  C   UNL     1       2.192   8.429  17.726  0.00  0.00    +0.000 A 
ATOM     17  C   UNL     1       2.686   7.642  18.774  0.00  0.00    +0.000 A 
ATOM     18  C   UNL     1       2.031   7.754  20.017  0.00  0.00    +0.000 A 
ATOM     19  C   UNL     1       1.001   8.681  20.221  0.00  0.00    +0.000 A 
BRANCH  14  21
ATOM     20  C   UNL     1      -1.929  10.641  18.386  0.00  0.00    +0.000 C 
ATOM     21  S   UNL     1      -0.635  10.770  19.647  0.00  0.00    +0.000 S 
ENDBRANCH  14  21
ENDBRANCH  13  17
ENDBRANCH   1  13
TORSDOF 4
ENDMDL
