MODEL 1
REMARK VINA RESULT:      -9.0      0.000      0.000
REMARK  Name = 
REMARK  7 active torsions:
REMARK  status: ('A' for Active; 'I' for Inactive)
REMARK    1  A    between atoms: C_1  and  C_2
REMARK    2  A    between atoms: C_7  and  N_8
REMARK    3  A    between atoms: C_9  and  C_11
REMARK    4  A    between atoms: C_15  and  O_16
REMARK    5  A    between atoms: O_16  and  C_17
REMARK    6  A    between atoms: C_23  and  C_24
REMARK    7  A    between atoms: C_24  and  O_26
REMARK                            x       y       z     vdW  Elec       q    Type
REMARK                         _______ _______ _______ _____ _____    ______ ____
ROOT
ATOM      1  C   UNL     1       0.710   9.474  20.180  0.00  0.00    +0.000 A 
ATOM      2  C   UNL     1       0.906   9.978  18.888  0.00  0.00    +0.000 A 
ATOM      3  C   UNL     1       1.702   9.276  17.986  0.00  0.00    +0.000 A 
ATOM      4  C   UNL     1       2.303   8.079  18.375  0.00  0.00    +0.000 A 
ATOM      5  C   UNL     1       2.131   7.586  19.673  0.00  0.00    +0.000 A 
ATOM      6  C   UNL     1       1.312   8.273  20.575  0.00  0.00    +0.000 A 
ENDROOT
BRANCH   1   8
ATOM      7  N   UNL     1      -0.485  11.489  20.707  0.00  0.00    +0.000 N 
ATOM      8  C   UNL     1      -0.146  10.222  21.137  0.00  0.00    +0.000 C 
ATOM      9  O   UNL     1      -0.542   9.664  22.153  0.00  0.00    +0.000 OA
ATOM     10  H   UNL     1      -0.464  11.632  19.702  0.00  0.00    +0.000 HD
BRANCH   7  17
ATOM     11  C   UNL     1      -1.339  14.739  24.378  0.00  0.00    +0.000 C 
ATOM     12  C   UNL     1      -1.808  13.933  23.202  0.00  0.00    +0.000 A 
ATOM     13  C   UNL     1      -3.113  14.087  22.708  0.00  0.00    +0.000 A 
ATOM     14  C   UNL     1      -3.522  13.394  21.569  0.00  0.00    +0.000 A 
ATOM     15  C   UNL     1      -2.621  12.562  20.917  0.00  0.00    +0.000 A 
ATOM     16  F   UNL     1      -3.012  11.909  19.810  0.00  0.00    +0.000 F 
ATOM     17  C   UNL     1      -1.335  12.354  21.419  0.00  0.00    +0.000 A 
ATOM     18  C   UNL     1      -0.928  13.038  22.566  0.00  0.00    +0.000 A 
ENDBRANCH   7  17
ENDBRANCH   1   8
BRANCH   5  19
ATOM     19  O   UNL     1       2.733   6.375  19.931  0.00  0.00    +0.000 OA
BRANCH  19  20
ATOM     20  C   UNL     1       2.619   5.340  19.029  0.00  0.00    +0.000 A 
ATOM     21  C   UNL     1       1.497   4.521  18.926  0.00  0.00    +0.000 A 
ATOM     22  C   UNL     1       1.495   3.495  17.999  0.00  0.00    +0.000 A 
ATOM     23  N   UNL     1       2.520   3.187  17.181  0.00  0.00    +0.000 NA
ATOM     24  C   UNL     1       3.633   3.949  17.318  0.00  0.00    +0.000 A 
ATOM     25  C   UNL     1       4.831   3.763  16.574  0.00  0.00    +0.000 A 
ATOM     26  C   UNL     1       5.821   4.665  16.907  0.00  0.00    +0.000 A 
ATOM     27  S   UNL     1       5.288   5.740  18.127  0.00  0.00    +0.000 S 
ATOM     28  C   UNL     1       3.727   5.013  18.214  0.00  0.00    +0.000 A 
BRANCH  26  29
ATOM     29  C   UNL     1       7.149   4.723  16.325  0.00  0.00    +0.000 C 
ATOM     30  O   UNL     1       7.427   5.268  15.266  0.00  0.00    +0.000 OA
BRANCH  29  31
ATOM     31  O   UNL     1       8.098   4.103  17.073  0.00  0.00    +0.000 OA
ATOM     32  H   UNL     1       8.941   4.010  16.589  0.00  0.00    +0.000 HD
ENDBRANCH  29  31
ENDBRANCH  26  29
ENDBRANCH  19  20
ENDBRANCH   5  19
TORSDOF 6
ENDMDL
MODEL 2
REMARK VINA RESULT:      -8.8      3.189      5.145
REMARK  Name = 
REMARK  7 active torsions:
REMARK  status: ('A' for Active; 'I' for Inactive)
REMARK    1  A    between atoms: C_1  and  C_2
REMARK    2  A    between atoms: C_7  and  N_8
REMARK    3  A    between atoms: C_9  and  C_11
REMARK    4  A    between atoms: C_15  and  O_16
REMARK    5  A    between atoms: O_16  and  C_17
REMARK    6  A    between atoms: C_23  and  C_24
REMARK    7  A    between atoms: C_24  and  O_26
REMARK                            x       y       z     vdW  Elec       q    Type
REMARK                         _______ _______ _______ _____ _____    ______ ____
ROOT
ATOM      1  C   UNL     1       2.486   4.418  19.830  0.00  0.00    +0.000 A 
ATOM      2  C   UNL     1       1.951   3.129  19.704  0.00  0.00    +0.000 A 
ATOM      3  C   UNL     1       2.779   2.070  19.340  0.00  0.00    +0.000 A 
ATOM      4  C   UNL     1       4.133   2.299  19.098  0.00  0.00    +0.000 A 
ATOM      5  C   UNL     1       4.666   3.589  19.197  0.00  0.00    +0.000 A 
ATOM      6  C   UNL     1       3.845   4.651  19.588  0.00  0.00    +0.000 A 
ENDROOT
BRANCH   1   8
ATOM      7  N   UNL     1       2.211   6.779  20.169  0.00  0.00    +0.000 N 
ATOM      8  C   UNL     1       1.600   5.543  20.227  0.00  0.00    +0.000 C 
ATOM      9  O   UNL     1       0.424   5.320  20.486  0.00  0.00    +0.000 OA
ATOM     10  H   UNL     1       3.001   6.850  19.535  0.00  0.00    +0.000 HD
BRANCH   7  17
ATOM     11  C   UNL     1      -0.202   9.846  23.257  0.00  0.00    +0.000 C 
ATOM     12  C   UNL     1       0.356   9.518  21.903  0.00  0.00    +0.000 A 
ATOM     13  C   UNL     1       0.316  10.464  20.867  0.00  0.00    +0.000 A 
ATOM     14  C   UNL     1       0.902  10.184  19.632  0.00  0.00    +0.000 A 
ATOM     15  C   UNL     1       1.542   8.966  19.443  0.00  0.00    +0.000 A 
ATOM     16  F   UNL     1       2.121   8.706  18.259  0.00  0.00    +0.000 F 
ATOM     17  C   UNL     1       1.550   7.990  20.441  0.00  0.00    +0.000 A 
ATOM     18  C   UNL     1       0.953   8.265  21.673  0.00  0.00    +0.000 A 
ENDBRANCH   7  17
ENDBRANCH   1   8
BRANCH   5  19
ATOM     19  O   UNL     1       6.022   3.688  18.982  0.00  0.00    +0.000 OA
BRANCH  19  20
ATOM     20  C   UNL     1       6.526   4.705  18.202  0.00  0.00    +0.000 A 
ATOM     21  C   UNL     1       7.056   5.887  18.714  0.00  0.00    +0.000 A 
ATOM     22  C   UNL     1       7.515   6.854  17.840  0.00  0.00    +0.000 A 
ATOM     23  N   UNL     1       7.470   6.769  16.496  0.00  0.00    +0.000 NA
ATOM     24  C   UNL     1       6.905   5.643  15.995  0.00  0.00    +0.000 A 
ATOM     25  C   UNL     1       6.732   5.378  14.608  0.00  0.00    +0.000 A 
ATOM     26  C   UNL     1       6.122   4.166  14.360  0.00  0.00    +0.000 A 
ATOM     27  S   UNL     1       5.761   3.349  15.819  0.00  0.00    +0.000 S 
ATOM     28  C   UNL     1       6.425   4.606  16.794  0.00  0.00    +0.000 A 
BRANCH  26  29
ATOM     29  C   UNL     1       5.810   3.623  13.050  0.00  0.00    +0.000 C 
ATOM     30  O   UNL     1       4.692   3.582  12.557  0.00  0.00    +0.000 OA
BRANCH  29  31
ATOM     31  O   UNL     1       6.895   3.146  12.387  0.00  0.00    +0.000 OA
ATOM     32  H   UNL     1       7.446   3.866  12.024  0.00  0.00    +0.000 HD
ENDBRANCH  29  31
ENDBRANCH  26  29
ENDBRANCH  19  20
ENDBRANCH   5  19
TORSDOF 6
ENDMDL
MODEL 3
REMARK VINA RESULT:      -8.7      1.032      1.383
REMARK  Name = 
REMARK  7 active torsions:
REMARK  status: ('A' for Active; 'I' for Inactive)
REMARK    1  A    between atoms: C_1  and  C_2
REMARK    2  A    between atoms: C_7  and  N_8
REMARK    3  A    between atoms: C_9  and  C_11
REMARK    4  A    between atoms: C_15  and  O_16
REMARK    5  A    between atoms: O_16  and  C_17
REMARK    6  A    between atoms: C_23  and  C_24
REMARK    7  A    between atoms: C_24  and  O_26
REMARK                            x       y       z     vdW  Elec       q    Type
REMARK                         _______ _______ _______ _____ _____    ______ ____
ROOT
ATOM      1  C   UNL     1       1.075   9.601  20.246  0.00  0.00    +0.000 A 
ATOM      2  C   UNL     1       1.109   9.980  18.897  0.00  0.00    +0.000 A 
ATOM      3  C   UNL     1       1.654   9.117  17.950  0.00  0.00    +0.000 A 
ATOM      4  C   UNL     1       2.168   7.883  18.349  0.00  0.00    +0.000 A 
ATOM      5  C   UNL     1       2.160   7.511  19.698  0.00  0.00    +0.000 A 
ATOM      6  C   UNL     1       1.590   8.363  20.650  0.00  0.00    +0.000 A 
ENDROOT
BRANCH   1   8
ATOM      7  N   UNL     1      -0.421  11.417  20.721  0.00  0.00    +0.000 N 
ATOM      8  C   UNL     1       0.485  10.521  21.252  0.00  0.00    +0.000 C 
ATOM      9  O   UNL     1       0.765  10.378  22.436  0.00  0.00    +0.000 OA
ATOM     10  H   UNL     1      -0.867  11.131  19.856  0.00  0.00    +0.000 HD
BRANCH   7  17
ATOM     11  C   UNL     1      -3.874  12.508  24.135  0.00  0.00    +0.000 C 
ATOM     12  C   UNL     1      -2.830  12.929  23.142  0.00  0.00    +0.000 A 
ATOM     13  C   UNL     1      -2.473  14.280  23.014  0.00  0.00    +0.000 A 
ATOM     14  C   UNL     1      -1.449  14.659  22.145  0.00  0.00    +0.000 A 
ATOM     15  C   UNL     1      -0.774  13.685  21.421  0.00  0.00    +0.000 A 
ATOM     16  F   UNL     1       0.222  14.051  20.598  0.00  0.00    +0.000 F 
ATOM     17  C   UNL     1      -1.147  12.342  21.494  0.00  0.00    +0.000 A 
ATOM     18  C   UNL     1      -2.179  11.962  22.354  0.00  0.00    +0.000 A 
ENDBRANCH   7  17
ENDBRANCH   1   8
BRANCH   5  19
ATOM     19  O   UNL     1       2.650   6.254  19.969  0.00  0.00    +0.000 OA
BRANCH  19  20
ATOM     20  C   UNL     1       2.560   5.258  19.022  0.00  0.00    +0.000 A 
ATOM     21  C   UNL     1       1.417   4.491  18.808  0.00  0.00    +0.000 A 
ATOM     22  C   UNL     1       1.441   3.500  17.844  0.00  0.00    +0.000 A 
ATOM     23  N   UNL     1       2.509   3.178  17.090  0.00  0.00    +0.000 NA
ATOM     24  C   UNL     1       3.640   3.886  17.335  0.00  0.00    +0.000 A 
ATOM     25  C   UNL     1       4.880   3.677  16.671  0.00  0.00    +0.000 A 
ATOM     26  C   UNL     1       5.879   4.522  17.108  0.00  0.00    +0.000 A 
ATOM     27  S   UNL     1       5.302   5.575  18.328  0.00  0.00    +0.000 S 
ATOM     28  C   UNL     1       3.711   4.913  18.276  0.00  0.00    +0.000 A 
BRANCH  26  29
ATOM     29  C   UNL     1       7.247   4.545  16.624  0.00  0.00    +0.000 C 
ATOM     30  O   UNL     1       8.225   4.200  17.272  0.00  0.00    +0.000 OA
BRANCH  29  31
ATOM     31  O   UNL     1       7.364   4.995  15.348  0.00  0.00    +0.000 OA
ATOM     32  H   UNL     1       7.968   4.440  14.819  0.00  0.00    +0.000 HD
ENDBRANCH  29  31
ENDBRANCH  26  29
ENDBRANCH  19  20
ENDBRANCH   5  19
TORSDOF 6
ENDMDL
MODEL 4
REMARK VINA RESULT:      -8.7      1.204      1.474
REMARK  Name = 
REMARK  7 active torsions:
REMARK  status: ('A' for Active; 'I' for Inactive)
REMARK    1  A    between atoms: C_1  and  C_2
REMARK    2  A    between atoms: C_7  and  N_8
REMARK    3  A    between atoms: C_9  and  C_11
REMARK    4  A    between atoms: C_15  and  O_16
REMARK    5  A    between atoms: O_16  and  C_17
REMARK    6  A    between atoms: C_23  and  C_24
REMARK    7  A    between atoms: C_24  and  O_26
REMARK                            x       y       z     vdW  Elec       q    Type
REMARK                         _______ _______ _______ _____ _____    ______ ____
ROOT
ATOM      1  C   UNL     1       1.126   9.794  19.795  0.00  0.00    +0.000 A 
ATOM      2  C   UNL     1       1.250   9.988  18.413  0.00  0.00    +0.000 A 
ATOM      3  C   UNL     1       1.764   8.968  17.615  0.00  0.00    +0.000 A 
ATOM      4  C   UNL     1       2.156   7.762  18.196  0.00  0.00    +0.000 A 
ATOM      5  C   UNL     1       2.058   7.574  19.579  0.00  0.00    +0.000 A 
ATOM      6  C   UNL     1       1.519   8.585  20.382  0.00  0.00    +0.000 A 
ENDROOT
BRANCH   1   8
ATOM      7  N   UNL     1      -0.809  10.905  20.681  0.00  0.00    +0.000 N 
ATOM      8  C   UNL     1       0.570  10.881  20.641  0.00  0.00    +0.000 C 
ATOM      9  O   UNL     1       1.333  11.597  21.279  0.00  0.00    +0.000 OA
ATOM     10  H   UNL     1      -1.269  10.022  20.484  0.00  0.00    +0.000 HD
BRANCH   7  17
ATOM     11  C   UNL     1      -3.502  15.058  21.197  0.00  0.00    +0.000 C 
ATOM     12  C   UNL     1      -2.859  13.830  21.773  0.00  0.00    +0.000 A 
ATOM     13  C   UNL     1      -3.058  13.486  23.119  0.00  0.00    +0.000 A 
ATOM     14  C   UNL     1      -2.522  12.304  23.631  0.00  0.00    +0.000 A 
ATOM     15  C   UNL     1      -1.805  11.461  22.793  0.00  0.00    +0.000 A 
ATOM     16  F   UNL     1      -1.305  10.316  23.284  0.00  0.00    +0.000 F 
ATOM     17  C   UNL     1      -1.551  11.807  21.464  0.00  0.00    +0.000 A 
ATOM     18  C   UNL     1      -2.077  12.995  20.953  0.00  0.00    +0.000 A 
ENDBRANCH   7  17
ENDBRANCH   1   8
BRANCH   5  19
ATOM     19  O   UNL     1       2.431   6.330  20.035  0.00  0.00    +0.000 OA
BRANCH  19  20
ATOM     20  C   UNL     1       2.464   5.258  19.171  0.00  0.00    +0.000 A 
ATOM     21  C   UNL     1       1.435   4.328  19.047  0.00  0.00    +0.000 A 
ATOM     22  C   UNL     1       1.579   3.275  18.163  0.00  0.00    +0.000 A 
ATOM     23  N   UNL     1       2.669   3.042  17.407  0.00  0.00    +0.000 NA
ATOM     24  C   UNL     1       3.695   3.916  17.566  0.00  0.00    +0.000 A 
ATOM     25  C   UNL     1       4.941   3.824  16.887  0.00  0.00    +0.000 A 
ATOM     26  C   UNL     1       5.821   4.830  17.231  0.00  0.00    +0.000 A 
ATOM     27  S   UNL     1       5.124   5.889  18.381  0.00  0.00    +0.000 S 
ATOM     28  C   UNL     1       3.639   5.015  18.422  0.00  0.00    +0.000 A 
BRANCH  26  29
ATOM     29  C   UNL     1       7.165   5.000  16.709  0.00  0.00    +0.000 C 
ATOM     30  O   UNL     1       7.509   5.879  15.932  0.00  0.00    +0.000 OA
BRANCH  29  31
ATOM     31  O   UNL     1       8.046   4.074  17.168  0.00  0.00    +0.000 OA
ATOM     32  H   UNL     1       8.408   3.525  16.446  0.00  0.00    +0.000 HD
ENDBRANCH  29  31
ENDBRANCH  26  29
ENDBRANCH  19  20
ENDBRANCH   5  19
TORSDOF 6
ENDMDL
MODEL 5
REMARK VINA RESULT:      -8.5      1.345      1.610
REMARK  Name = 
REMARK  7 active torsions:
REMARK  status: ('A' for Active; 'I' for Inactive)
REMARK    1  A    between atoms: C_1  and  C_2
REMARK    2  A    between atoms: C_7  and  N_8
REMARK    3  A    between atoms: C_9  and  C_11
REMARK    4  A    between atoms: C_15  and  O_16
REMARK    5  A    between atoms: O_16  and  C_17
REMARK    6  A    between atoms: C_23  and  C_24
REMARK    7  A    between atoms: C_24  and  O_26
REMARK                            x       y       z     vdW  Elec       q    Type
REMARK                         _______ _______ _______ _____ _____    ______ ____
ROOT
ATOM      1  C   UNL     1       0.706   9.709  19.413  0.00  0.00    +0.000 A 
ATOM      2  C   UNL     1       1.187  10.027  18.136  0.00  0.00    +0.000 A 
ATOM      3  C   UNL     1       2.117   9.192  17.521  0.00  0.00    +0.000 A 
ATOM      4  C   UNL     1       2.568   8.049  18.181  0.00  0.00    +0.000 A 
ATOM      5  C   UNL     1       2.110   7.742  19.467  0.00  0.00    +0.000 A 
ATOM      6  C   UNL     1       1.156   8.562  20.078  0.00  0.00    +0.000 A 
ENDROOT
BRANCH   1   8
ATOM      7  N   UNL     1       0.133  11.130  21.261  0.00  0.00    +0.000 N 
ATOM      8  C   UNL     1      -0.293  10.598  20.062  0.00  0.00    +0.000 C 
ATOM      9  O   UNL     1      -1.340  10.851  19.480  0.00  0.00    +0.000 OA
ATOM     10  H   UNL     1       1.139  11.191  21.383  0.00  0.00    +0.000 HD
BRANCH   7  17
ATOM     11  C   UNL     1      -3.741  12.245  24.180  0.00  0.00    +0.000 C 
ATOM     12  C   UNL     1      -2.500  12.643  23.436  0.00  0.00    +0.000 A 
ATOM     13  C   UNL     1      -1.988  13.945  23.549  0.00  0.00    +0.000 A 
ATOM     14  C   UNL     1      -0.793  14.291  22.918  0.00  0.00    +0.000 A 
ATOM     15  C   UNL     1      -0.104  13.330  22.190  0.00  0.00    +0.000 A 
ATOM     16  F   UNL     1       1.055  13.661  21.597  0.00  0.00    +0.000 F 
ATOM     17  C   UNL     1      -0.620  12.044  22.021  0.00  0.00    +0.000 A 
ATOM     18  C   UNL     1      -1.822  11.699  22.643  0.00  0.00    +0.000 A 
ENDBRANCH   7  17
ENDBRANCH   1   8
BRANCH   5  19
ATOM     19  O   UNL     1       2.588   6.567  20.001  0.00  0.00    +0.000 OA
BRANCH  19  20
ATOM     20  C   UNL     1       2.542   5.404  19.266  0.00  0.00    +0.000 A 
ATOM     21  C   UNL     1       1.451   4.537  19.251  0.00  0.00    +0.000 A 
ATOM     22  C   UNL     1       1.517   3.383  18.494  0.00  0.00    +0.000 A 
ATOM     23  N   UNL     1       2.583   2.992  17.768  0.00  0.00    +0.000 NA
ATOM     24  C   UNL     1       3.665   3.807  17.824  0.00  0.00    +0.000 A 
ATOM     25  C   UNL     1       4.897   3.554  17.158  0.00  0.00    +0.000 A 
ATOM     26  C   UNL     1       5.844   4.532  17.382  0.00  0.00    +0.000 A 
ATOM     27  S   UNL     1       5.230   5.760  18.404  0.00  0.00    +0.000 S 
ATOM     28  C   UNL     1       3.691   4.998  18.548  0.00  0.00    +0.000 A 
BRANCH  26  29
ATOM     29  C   UNL     1       7.192   4.550  16.843  0.00  0.00    +0.000 C 
ATOM     30  O   UNL     1       7.495   4.953  15.729  0.00  0.00    +0.000 OA
BRANCH  29  31
ATOM     31  O   UNL     1       8.127   4.067  17.701  0.00  0.00    +0.000 OA
ATOM     32  H   UNL     1       7.993   3.118  17.890  0.00  0.00    +0.000 HD
ENDBRANCH  29  31
ENDBRANCH  26  29
ENDBRANCH  19  20
ENDBRANCH   5  19
TORSDOF 6
ENDMDL
MODEL 6
REMARK VINA RESULT:      -8.5      1.321      1.405
REMARK  Name = 
REMARK  7 active torsions:
REMARK  status: ('A' for Active; 'I' for Inactive)
REMARK    1  A    between atoms: C_1  and  C_2
REMARK    2  A    between atoms: C_7  and  N_8
REMARK    3  A    between atoms: C_9  and  C_11
REMARK    4  A    between atoms: C_15  and  O_16
REMARK    5  A    between atoms: O_16  and  C_17
REMARK    6  A    between atoms: C_23  and  C_24
REMARK    7  A    between atoms: C_24  and  O_26
REMARK                            x       y       z     vdW  Elec       q    Type
REMARK                         _______ _______ _______ _____ _____    ______ ____
ROOT
ATOM      1  C   UNL     1       0.818   9.664  19.405  0.00  0.00    +0.000 A 
ATOM      2  C   UNL     1       1.238   9.929  18.095  0.00  0.00    +0.000 A 
ATOM      3  C   UNL     1       2.093   9.038  17.450  0.00  0.00    +0.000 A 
ATOM      4  C   UNL     1       2.531   7.892  18.113  0.00  0.00    +0.000 A 
ATOM      5  C   UNL     1       2.135   7.637  19.430  0.00  0.00    +0.000 A 
ATOM      6  C   UNL     1       1.256   8.514  20.074  0.00  0.00    +0.000 A 
ENDROOT
BRANCH   1   8
ATOM      7  N   UNL     1       0.440  11.198  21.212  0.00  0.00    +0.000 N 
ATOM      8  C   UNL     1      -0.100  10.612  20.086  0.00  0.00    +0.000 C 
ATOM      9  O   UNL     1      -1.189  10.860  19.584  0.00  0.00    +0.000 OA
ATOM     10  H   UNL     1       1.454  11.240  21.243  0.00  0.00    +0.000 HD
BRANCH   7  17
ATOM     11  C   UNL     1      -0.525  15.938  22.381  0.00  0.00    +0.000 C 
ATOM     12  C   UNL     1      -0.719  14.466  22.601  0.00  0.00    +0.000 A 
ATOM     13  C   UNL     1      -1.656  14.002  23.537  0.00  0.00    +0.000 A 
ATOM     14  C   UNL     1      -1.888  12.635  23.684  0.00  0.00    +0.000 A 
ATOM     15  C   UNL     1      -1.197  11.736  22.883  0.00  0.00    +0.000 A 
ATOM     16  F   UNL     1      -1.435  10.421  23.015  0.00  0.00    +0.000 F 
ATOM     17  C   UNL     1      -0.224  12.171  21.981  0.00  0.00    +0.000 A 
ATOM     18  C   UNL     1       0.018  13.539  21.841  0.00  0.00    +0.000 A 
ENDBRANCH   7  17
ENDBRANCH   1   8
BRANCH   5  19
ATOM     19  O   UNL     1       2.591   6.454  19.967  0.00  0.00    +0.000 OA
BRANCH  19  20
ATOM     20  C   UNL     1       2.561   5.298  19.220  0.00  0.00    +0.000 A 
ATOM     21  C   UNL     1       1.481   4.418  19.194  0.00  0.00    +0.000 A 
ATOM     22  C   UNL     1       1.563   3.273  18.424  0.00  0.00    +0.000 A 
ATOM     23  N   UNL     1       2.635   2.903  17.697  0.00  0.00    +0.000 NA
ATOM     24  C   UNL     1       3.707   3.730  17.763  0.00  0.00    +0.000 A 
ATOM     25  C   UNL     1       4.943   3.500  17.098  0.00  0.00    +0.000 A 
ATOM     26  C   UNL     1       5.878   4.487  17.334  0.00  0.00    +0.000 A 
ATOM     27  S   UNL     1       5.246   5.697  18.368  0.00  0.00    +0.000 S 
ATOM     28  C   UNL     1       3.716   4.914  18.501  0.00  0.00    +0.000 A 
BRANCH  26  29
ATOM     29  C   UNL     1       7.226   4.528  16.798  0.00  0.00    +0.000 C 
ATOM     30  O   UNL     1       7.529   4.964  15.697  0.00  0.00    +0.000 OA
BRANCH  29  31
ATOM     31  O   UNL     1       8.162   4.025  17.644  0.00  0.00    +0.000 OA
ATOM     32  H   UNL     1       8.068   4.383  18.547  0.00  0.00    +0.000 HD
ENDBRANCH  29  31
ENDBRANCH  26  29
ENDBRANCH  19  20
ENDBRANCH   5  19
TORSDOF 6
ENDMDL
MODEL 7
REMARK VINA RESULT:      -8.4      3.947     10.374
REMARK  Name = 
REMARK  7 active torsions:
REMARK  status: ('A' for Active; 'I' for Inactive)
REMARK    1  A    between atoms: C_1  and  C_2
REMARK    2  A    between atoms: C_7  and  N_8
REMARK    3  A    between atoms: C_9  and  C_11
REMARK    4  A    between atoms: C_15  and  O_16
REMARK    5  A    between atoms: O_16  and  C_17
REMARK    6  A    between atoms: C_23  and  C_24
REMARK    7  A    between atoms: C_24  and  O_26
REMARK                            x       y       z     vdW  Elec       q    Type
REMARK                         _______ _______ _______ _____ _____    ______ ____
ROOT
ATOM      1  C   UNL     1       1.389   8.958  19.058  0.00  0.00    +0.000 A 
ATOM      2  C   UNL     1       1.236   8.715  20.429  0.00  0.00    +0.000 A 
ATOM      3  C   UNL     1       0.392   9.526  21.185  0.00  0.00    +0.000 A 
ATOM      4  C   UNL     1      -0.293  10.576  20.574  0.00  0.00    +0.000 A 
ATOM      5  C   UNL     1      -0.123  10.838  19.210  0.00  0.00    +0.000 A 
ATOM      6  C   UNL     1       0.703  10.012  18.441  0.00  0.00    +0.000 A 
ENDROOT
BRANCH   1   8
ATOM      7  N   UNL     1       2.502   6.845  18.816  0.00  0.00    +0.000 N 
ATOM      8  C   UNL     1       2.284   8.087  18.254  0.00  0.00    +0.000 C 
ATOM      9  O   UNL     1       2.683   8.476  17.164  0.00  0.00    +0.000 OA
ATOM     10  H   UNL     1       1.782   6.518  19.453  0.00  0.00    +0.000 HD
BRANCH   7  17
ATOM     11  C   UNL     1       6.869   4.871  17.472  0.00  0.00    +0.000 C 
ATOM     12  C   UNL     1       5.369   4.836  17.513  0.00  0.00    +0.000 A 
ATOM     13  C   UNL     1       4.668   3.728  17.013  0.00  0.00    +0.000 A 
ATOM     14  C   UNL     1       3.278   3.664  17.122  0.00  0.00    +0.000 A 
ATOM     15  C   UNL     1       2.596   4.699  17.746  0.00  0.00    +0.000 A 
ATOM     16  F   UNL     1       1.260   4.627  17.864  0.00  0.00    +0.000 F 
ATOM     17  C   UNL     1       3.266   5.835  18.204  0.00  0.00    +0.000 A 
ATOM     18  C   UNL     1       4.655   5.905  18.085  0.00  0.00    +0.000 A 
ENDBRANCH   7  17
ENDBRANCH   1   8
BRANCH   5  19
ATOM     19  O   UNL     1      -0.882  11.870  18.706  0.00  0.00    +0.000 OA
BRANCH  19  20
ATOM     20  C   UNL     1      -2.135  11.620  18.193  0.00  0.00    +0.000 A 
ATOM     21  C   UNL     1      -2.365  11.122  16.913  0.00  0.00    +0.000 A 
ATOM     22  C   UNL     1      -3.666  10.927  16.488  0.00  0.00    +0.000 A 
ATOM     23  N   UNL     1      -4.768  11.209  17.211  0.00  0.00    +0.000 NA
ATOM     24  C   UNL     1      -4.548  11.745  18.437  0.00  0.00    +0.000 A 
ATOM     25  C   UNL     1      -5.575  12.143  19.337  0.00  0.00    +0.000 A 
ATOM     26  C   UNL     1      -5.088  12.668  20.516  0.00  0.00    +0.000 A 
ATOM     27  S   UNL     1      -3.377  12.674  20.527  0.00  0.00    +0.000 S 
ATOM     28  C   UNL     1      -3.273  11.967  18.958  0.00  0.00    +0.000 A 
BRANCH  26  29
ATOM     29  C   UNL     1      -5.889  13.162  21.622  0.00  0.00    +0.000 C 
ATOM     30  O   UNL     1      -6.520  14.209  21.617  0.00  0.00    +0.000 OA
BRANCH  29  31
ATOM     31  O   UNL     1      -5.885  12.341  22.704  0.00  0.00    +0.000 OA
ATOM     32  H   UNL     1      -6.592  11.669  22.656  0.00  0.00    +0.000 HD
ENDBRANCH  29  31
ENDBRANCH  26  29
ENDBRANCH  19  20
ENDBRANCH   5  19
TORSDOF 6
ENDMDL
MODEL 8
REMARK VINA RESULT:      -8.4      3.179      4.066
REMARK  Name = 
REMARK  7 active torsions:
REMARK  status: ('A' for Active; 'I' for Inactive)
REMARK    1  A    between atoms: C_1  and  C_2
REMARK    2  A    between atoms: C_7  and  N_8
REMARK    3  A    between atoms: C_9  and  C_11
REMARK    4  A    between atoms: C_15  and  O_16
REMARK    5  A    between atoms: O_16  and  C_17
REMARK    6  A    between atoms: C_23  and  C_24
REMARK    7  A    between atoms: C_24  and  O_26
REMARK                            x       y       z     vdW  Elec       q    Type
REMARK                         _______ _______ _______ _____ _____    ______ ____
ROOT
ATOM      1  C   UNL     1       2.040   7.531  19.059  0.00  0.00    +0.000 A 
ATOM      2  C   UNL     1       1.555   7.196  20.331  0.00  0.00    +0.000 A 
ATOM      3  C   UNL     1       1.856   5.952  20.880  0.00  0.00    +0.000 A 
ATOM      4  C   UNL     1       2.633   5.045  20.160  0.00  0.00    +0.000 A 
ATOM      5  C   UNL     1       3.097   5.365  18.879  0.00  0.00    +0.000 A 
ATOM      6  C   UNL     1       2.820   6.622  18.334  0.00  0.00    +0.000 A 
ENDROOT
BRANCH   1   8
ATOM      7  N   UNL     1       0.960   9.660  19.309  0.00  0.00    +0.000 N 
ATOM      8  C   UNL     1       1.723   8.862  18.481  0.00  0.00    +0.000 C 
ATOM      9  O   UNL     1       2.203   9.178  17.399  0.00  0.00    +0.000 OA
ATOM     10  H   UNL     1       1.022   9.452  20.300  0.00  0.00    +0.000 HD
BRANCH   7  17
ATOM     11  C   UNL     1       2.066  14.463  18.611  0.00  0.00    +0.000 C 
ATOM     12  C   UNL     1       1.074  13.337  18.657  0.00  0.00    +0.000 A 
ATOM     13  C   UNL     1      -0.265  13.550  18.294  0.00  0.00    +0.000 A 
ATOM     14  C   UNL     1      -1.166  12.486  18.265  0.00  0.00    +0.000 A 
ATOM     15  C   UNL     1      -0.723  11.209  18.582  0.00  0.00    +0.000 A 
ATOM     16  F   UNL     1      -1.589  10.184  18.537  0.00  0.00    +0.000 F 
ATOM     17  C   UNL     1       0.591  10.981  18.996  0.00  0.00    +0.000 A 
ATOM     18  C   UNL     1       1.491  12.047  19.036  0.00  0.00    +0.000 A 
ENDBRANCH   7  17
ENDBRANCH   1   8
BRANCH   5  19
ATOM     19  O   UNL     1       3.892   4.412  18.282  0.00  0.00    +0.000 OA
BRANCH  19  20
ATOM     20  C   UNL     1       5.216   4.683  18.018  0.00  0.00    +0.000 A 
ATOM     21  C   UNL     1       6.108   5.189  18.960  0.00  0.00    +0.000 A 
ATOM     22  C   UNL     1       7.413   5.447  18.583  0.00  0.00    +0.000 A 
ATOM     23  N   UNL     1       7.909   5.275  17.343  0.00  0.00    +0.000 NA
ATOM     24  C   UNL     1       7.029   4.834  16.410  0.00  0.00    +0.000 A 
ATOM     25  C   UNL     1       7.346   4.622  15.040  0.00  0.00    +0.000 A 
ATOM     26  C   UNL     1       6.272   4.180  14.297  0.00  0.00    +0.000 A 
ATOM     27  S   UNL     1       4.874   4.020  15.271  0.00  0.00    +0.000 S 
ATOM     28  C   UNL     1       5.697   4.534  16.696  0.00  0.00    +0.000 A 
BRANCH  26  29
ATOM     29  C   UNL     1       6.285   3.880  12.877  0.00  0.00    +0.000 C 
ATOM     30  O   UNL     1       5.455   3.196  12.296  0.00  0.00    +0.000 OA
BRANCH  29  31
ATOM     31  O   UNL     1       7.331   4.439  12.214  0.00  0.00    +0.000 OA
ATOM     32  H   UNL     1       7.940   3.764  11.857  0.00  0.00    +0.000 HD
ENDBRANCH  29  31
ENDBRANCH  26  29
ENDBRANCH  19  20
ENDBRANCH   5  19
TORSDOF 6
ENDMDL
MODEL 9
REMARK VINA RESULT:      -8.4      3.245     10.139
REMARK  Name = 
REMARK  7 active torsions:
REMARK  status: ('A' for Active; 'I' for Inactive)
REMARK    1  A    between atoms: C_1  and  C_2
REMARK    2  A    between atoms: C_7  and  N_8
REMARK    3  A    between atoms: C_9  and  C_11
REMARK    4  A    between atoms: C_15  and  O_16
REMARK    5  A    between atoms: O_16  and  C_17
REMARK    6  A    between atoms: C_23  and  C_24
REMARK    7  A    between atoms: C_24  and  O_26
REMARK                            x       y       z     vdW  Elec       q    Type
REMARK                         _______ _______ _______ _____ _____    ______ ____
ROOT
ATOM      1  C   UNL     1       2.883   4.009  18.602  0.00  0.00    +0.000 A 
ATOM      2  C   UNL     1       1.963   3.057  19.061  0.00  0.00    +0.000 A 
ATOM      3  C   UNL     1       1.049   3.401  20.054  0.00  0.00    +0.000 A 
ATOM      4  C   UNL     1       1.058   4.689  20.590  0.00  0.00    +0.000 A 
ATOM      5  C   UNL     1       1.992   5.635  20.153  0.00  0.00    +0.000 A 
ATOM      6  C   UNL     1       2.895   5.302  19.138  0.00  0.00    +0.000 A 
ENDROOT
BRANCH   1   8
ATOM      7  N   UNL     1       4.312   4.716  16.808  0.00  0.00    +0.000 N 
ATOM      8  C   UNL     1       3.850   3.639  17.537  0.00  0.00    +0.000 C 
ATOM      9  O   UNL     1       4.217   2.475  17.435  0.00  0.00    +0.000 OA
ATOM     10  H   UNL     1       4.273   5.614  17.277  0.00  0.00    +0.000 HD
BRANCH   7  17
ATOM     11  C   UNL     1       5.721   3.339  12.237  0.00  0.00    +0.000 C 
ATOM     12  C   UNL     1       6.021   3.948  13.576  0.00  0.00    +0.000 A 
ATOM     13  C   UNL     1       7.273   4.528  13.831  0.00  0.00    +0.000 A 
ATOM     14  C   UNL     1       7.523   5.160  15.049  0.00  0.00    +0.000 A 
ATOM     15  C   UNL     1       6.514   5.226  16.001  0.00  0.00    +0.000 A 
ATOM     16  F   UNL     1       6.752   5.850  17.167  0.00  0.00    +0.000 F 
ATOM     17  C   UNL     1       5.278   4.612  15.790  0.00  0.00    +0.000 A 
ATOM     18  C   UNL     1       5.031   3.969  14.576  0.00  0.00    +0.000 A 
ENDBRANCH   7  17
ENDBRANCH   1   8
BRANCH   5  19
ATOM     19  O   UNL     1       1.878   6.885  20.718  0.00  0.00    +0.000 OA
BRANCH  19  20
ATOM     20  C   UNL     1       1.667   7.987  19.921  0.00  0.00    +0.000 A 
ATOM     21  C   UNL     1       2.159   8.114  18.624  0.00  0.00    +0.000 A 
ATOM     22  C   UNL     1       1.907   9.274  17.917  0.00  0.00    +0.000 A 
ATOM     23  N   UNL     1       1.233  10.340  18.391  0.00  0.00    +0.000 NA
ATOM     24  C   UNL     1       0.801  10.242  19.673  0.00  0.00    +0.000 A 
ATOM     25  C   UNL     1       0.102  11.268  20.367  0.00  0.00    +0.000 A 
ATOM     26  C   UNL     1      -0.219  10.924  21.664  0.00  0.00    +0.000 A 
ATOM     27  S   UNL     1       0.329   9.345  22.034  0.00  0.00    +0.000 S 
ATOM     28  C   UNL     1       0.994   9.108  20.461  0.00  0.00    +0.000 A 
BRANCH  26  29
ATOM     29  C   UNL     1      -0.926  11.761  22.616  0.00  0.00    +0.000 C 
ATOM     30  O   UNL     1      -0.753  12.963  22.755  0.00  0.00    +0.000 OA
BRANCH  29  31
ATOM     31  O   UNL     1      -1.829  11.082  23.370  0.00  0.00    +0.000 OA
ATOM     32  H   UNL     1      -1.987  10.181  23.027  0.00  0.00    +0.000 HD
ENDBRANCH  29  31
ENDBRANCH  26  29
ENDBRANCH  19  20
ENDBRANCH   5  19
TORSDOF 6
ENDMDL
