MODEL 1
REMARK VINA RESULT:      -8.7      0.000      0.000
REMARK  Name = 
REMARK  5 active torsions:
REMARK  status: ('A' for Active; 'I' for Inactive)
REMARK    1  A    between atoms: C_1  and  C_2
REMARK    2  A    between atoms: C_4  and  N_5
REMARK    3  A    between atoms: N_5  and  C_6
REMARK    4  A    between atoms: C_11  and  C_12
REMARK    5  A    between atoms: N_15  and  C_16
REMARK                            x       y       z     vdW  Elec       q    Type
REMARK                         _______ _______ _______ _____ _____    ______ ____
ROOT
ATOM      1  C   UNL     1       3.988   4.177  19.145  0.00  0.00    +0.000 A 
ATOM      2  C   UNL     1       3.318   3.289  19.992  0.00  0.00    +0.000 A 
ATOM      3  C   UNL     1       2.230   3.722  20.750  0.00  0.00    +0.000 A 
ATOM      4 CL   UNL     1       1.444   2.622  21.814  0.00  0.00    +0.000 Cl
ATOM      5  C   UNL     1       1.782   5.041  20.669  0.00  0.00    +0.000 A 
ATOM      6  C   UNL     1       2.426   5.946  19.820  0.00  0.00    +0.000 A 
ATOM      7  C   UNL     1       3.522   5.499  19.061  0.00  0.00    +0.000 A 
ENDROOT
BRANCH   6   8
ATOM      8  C   UNL     1       1.989   7.331  19.759  0.00  0.00    +0.000 A 
ATOM      9  C   UNL     1       2.001   8.258  18.688  0.00  0.00    +0.000 A 
ATOM     10  N   UNL     1       1.477   9.441  19.020  0.00  0.00    +0.000 NA
ATOM     11  N   UNL     1       1.126   9.280  20.306  0.00  0.00    +0.000 N 
ATOM     12  C   UNL     1       0.459  10.345  21.015  0.00  0.00    +0.000 C 
ATOM     13  C   UNL     1       1.431   8.043  20.802  0.00  0.00    +0.000 A 
ENDBRANCH   6   8
BRANCH   1  14
ATOM     14  N   UNL     1       5.112   3.715  18.431  0.00  0.00    +0.000 N 
ATOM     15  H   UNL     1       5.131   2.706  18.310  0.00  0.00    +0.000 HD
BRANCH  14  19
ATOM     16  C   UNL     1       6.349   4.000  13.687  0.00  0.00    +0.000 C 
ATOM     17  C   UNL     1       6.407   4.474  15.104  0.00  0.00    +0.000 A 
ATOM     18  C   UNL     1       5.755   3.789  16.102  0.00  0.00    +0.000 A 
ATOM     19  C   UNL     1       5.804   4.326  17.371  0.00  0.00    +0.000 A 
ATOM     20  N   UNL     1       6.456   5.473  17.632  0.00  0.00    +0.000 NA
ATOM     21  C   UNL     1       7.071   6.066  16.605  0.00  0.00    +0.000 A 
ATOM     22  N   UNL     1       7.792   7.218  16.855  0.00  0.00    +0.000 N 
ATOM     23  N   UNL     1       7.092   5.609  15.350  0.00  0.00    +0.000 NA
ATOM     24  H   UNL     1       8.110   7.227  17.813  0.00  0.00    +0.000 HD
ATOM     25  H   UNL     1       8.491   7.338  16.133  0.00  0.00    +0.000 HD
ENDBRANCH  14  19
ENDBRANCH   1  14
TORSDOF 3
ENDMDL
MODEL 2
REMARK VINA RESULT:      -8.6      1.639      2.247
REMARK  Name = 
REMARK  5 active torsions:
REMARK  status: ('A' for Active; 'I' for Inactive)
REMARK    1  A    between atoms: C_1  and  C_2
REMARK    2  A    between atoms: C_4  and  N_5
REMARK    3  A    between atoms: N_5  and  C_6
REMARK    4  A    between atoms: C_11  and  C_12
REMARK    5  A    between atoms: N_15  and  C_16
REMARK                            x       y       z     vdW  Elec       q    Type
REMARK                         _______ _______ _______ _____ _____    ______ ____
ROOT
ATOM      1  C   UNL     1       4.903   4.389  17.263  0.00  0.00    +0.000 A 
ATOM      2  C   UNL     1       4.198   3.256  17.679  0.00  0.00    +0.000 A 
ATOM      3  C   UNL     1       2.977   3.388  18.339  0.00  0.00    +0.000 A 
ATOM      4 CL   UNL     1       2.144   1.980  18.876  0.00  0.00    +0.000 Cl
ATOM      5  C   UNL     1       2.430   4.648  18.586  0.00  0.00    +0.000 A 
ATOM      6  C   UNL     1       3.109   5.797  18.170  0.00  0.00    +0.000 A 
ATOM      7  C   UNL     1       4.339   5.653  17.506  0.00  0.00    +0.000 A 
ENDROOT
BRANCH   6   8
ATOM      8  C   UNL     1       2.564   7.113  18.457  0.00  0.00    +0.000 A 
ATOM      9  C   UNL     1       2.445   8.264  17.640  0.00  0.00    +0.000 A 
ATOM     10  N   UNL     1       1.851   9.285  18.262  0.00  0.00    +0.000 NA
ATOM     11  N   UNL     1       1.586   8.795  19.485  0.00  0.00    +0.000 N 
ATOM     12  C   UNL     1       0.879   9.601  20.451  0.00  0.00    +0.000 C 
ATOM     13  C   UNL     1       2.011   7.509  19.659  0.00  0.00    +0.000 A 
ENDBRANCH   6   8
BRANCH   1  14
ATOM     14  N   UNL     1       6.157   4.218  16.641  0.00  0.00    +0.000 N 
ATOM     15  H   UNL     1       6.744   3.525  17.096  0.00  0.00    +0.000 HD
BRANCH  14  19
ATOM     16  C   UNL     1       5.329   3.087  11.934  0.00  0.00    +0.000 C 
ATOM     17  C   UNL     1       6.107   3.759  13.021  0.00  0.00    +0.000 A 
ATOM     18  C   UNL     1       5.762   3.590  14.340  0.00  0.00    +0.000 A 
ATOM     19  C   UNL     1       6.489   4.293  15.278  0.00  0.00    +0.000 A 
ATOM     20  N   UNL     1       7.494   5.115  14.926  0.00  0.00    +0.000 NA
ATOM     21  C   UNL     1       7.769   5.211  13.622  0.00  0.00    +0.000 A 
ATOM     22  N   UNL     1       8.830   6.008  13.237  0.00  0.00    +0.000 N 
ATOM     23  N   UNL     1       7.131   4.554  12.650  0.00  0.00    +0.000 NA
ATOM     24  H   UNL     1       9.505   6.071  13.984  0.00  0.00    +0.000 HD
ATOM     25  H   UNL     1       9.166   5.702  12.333  0.00  0.00    +0.000 HD
ENDBRANCH  14  19
ENDBRANCH   1  14
TORSDOF 3
ENDMDL
MODEL 3
REMARK VINA RESULT:      -8.5      1.691      7.034
REMARK  Name = 
REMARK  5 active torsions:
REMARK  status: ('A' for Active; 'I' for Inactive)
REMARK    1  A    between atoms: C_1  and  C_2
REMARK    2  A    between atoms: C_4  and  N_5
REMARK    3  A    between atoms: N_5  and  C_6
REMARK    4  A    between atoms: C_11  and  C_12
REMARK    5  A    between atoms: N_15  and  C_16
REMARK                            x       y       z     vdW  Elec       q    Type
REMARK                         _______ _______ _______ _____ _____    ______ ____
ROOT
ATOM      1  C   UNL     1       2.216   6.140  20.009  0.00  0.00    +0.000 A 
ATOM      2  C   UNL     1       1.447   4.975  20.072  0.00  0.00    +0.000 A 
ATOM      3  C   UNL     1       1.619   3.964  19.128  0.00  0.00    +0.000 A 
ATOM      4 CL   UNL     1       0.635   2.554  19.203  0.00  0.00    +0.000 Cl
ATOM      5  C   UNL     1       2.567   4.089  18.112  0.00  0.00    +0.000 A 
ATOM      6  C   UNL     1       3.358   5.239  18.033  0.00  0.00    +0.000 A 
ATOM      7  C   UNL     1       3.177   6.252  18.990  0.00  0.00    +0.000 A 
ENDROOT
BRANCH   6   8
ATOM      8  C   UNL     1       4.321   5.392  16.954  0.00  0.00    +0.000 A 
ATOM      9  C   UNL     1       4.952   6.550  16.436  0.00  0.00    +0.000 A 
ATOM     10  N   UNL     1       5.812   6.276  15.452  0.00  0.00    +0.000 NA
ATOM     11  N   UNL     1       5.736   4.940  15.331  0.00  0.00    +0.000 N 
ATOM     12  C   UNL     1       6.580   4.248  14.387  0.00  0.00    +0.000 C 
ATOM     13  C   UNL     1       4.843   4.367  16.192  0.00  0.00    +0.000 A 
ENDBRANCH   6   8
BRANCH   1  14
ATOM     14  N   UNL     1       1.982   7.161  20.954  0.00  0.00    +0.000 N 
ATOM     15  H   UNL     1       2.776   7.338  21.564  0.00  0.00    +0.000 HD
BRANCH  14  19
ATOM     16  C   UNL     1      -0.875  10.673  22.855  0.00  0.00    +0.000 C 
ATOM     17  C   UNL     1      -0.153  10.019  21.721  0.00  0.00    +0.000 A 
ATOM     18  C   UNL     1       0.524   8.838  21.905  0.00  0.00    +0.000 A 
ATOM     19  C   UNL     1       1.218   8.332  20.825  0.00  0.00    +0.000 A 
ATOM     20  N   UNL     1       1.240   8.964  19.638  0.00  0.00    +0.000 NA
ATOM     21  C   UNL     1       0.545  10.101  19.544  0.00  0.00    +0.000 A 
ATOM     22  N   UNL     1       0.508  10.743  18.321  0.00  0.00    +0.000 N 
ATOM     23  N   UNL     1      -0.168  10.652  20.530  0.00  0.00    +0.000 NA
ATOM     24  H   UNL     1       0.645  10.076  17.575  0.00  0.00    +0.000 HD
ATOM     25  H   UNL     1      -0.316  11.327  18.275  0.00  0.00    +0.000 HD
ENDBRANCH  14  19
ENDBRANCH   1  14
TORSDOF 3
ENDMDL
MODEL 4
REMARK VINA RESULT:      -8.4      1.875      2.588
REMARK  Name = 
REMARK  5 active torsions:
REMARK  status: ('A' for Active; 'I' for Inactive)
REMARK    1  A    between atoms: C_1  and  C_2
REMARK    2  A    between atoms: C_4  and  N_5
REMARK    3  A    between atoms: N_5  and  C_6
REMARK    4  A    between atoms: C_11  and  C_12
REMARK    5  A    between atoms: N_15  and  C_16
REMARK                            x       y       z     vdW  Elec       q    Type
REMARK                         _______ _______ _______ _____ _____    ______ ____
ROOT
ATOM      1  C   UNL     1       4.841   4.786  17.065  0.00  0.00    +0.000 A 
ATOM      2  C   UNL     1       4.112   3.602  17.213  0.00  0.00    +0.000 A 
ATOM      3  C   UNL     1       2.847   3.622  17.800  0.00  0.00    +0.000 A 
ATOM      4 CL   UNL     1       1.983   2.148  18.007  0.00  0.00    +0.000 Cl
ATOM      5  C   UNL     1       2.282   4.819  18.239  0.00  0.00    +0.000 A 
ATOM      6  C   UNL     1       2.984   6.019  18.091  0.00  0.00    +0.000 A 
ATOM      7  C   UNL     1       4.258   5.988  17.498  0.00  0.00    +0.000 A 
ENDROOT
BRANCH   6   8
ATOM      8  C   UNL     1       2.417   7.265  18.581  0.00  0.00    +0.000 A 
ATOM      9  C   UNL     1       1.937   7.619  19.865  0.00  0.00    +0.000 A 
ATOM     10  N   UNL     1       1.517   8.886  19.931  0.00  0.00    +0.000 NA
ATOM     11  N   UNL     1       1.724   9.350  18.688  0.00  0.00    +0.000 N 
ATOM     12  C   UNL     1       1.441  10.729  18.372  0.00  0.00    +0.000 C 
ATOM     13  C   UNL     1       2.240   8.414  17.837  0.00  0.00    +0.000 A 
ENDBRANCH   6   8
BRANCH   1  14
ATOM     14  N   UNL     1       6.136   4.721  16.509  0.00  0.00    +0.000 N 
ATOM     15  H   UNL     1       6.802   4.220  17.091  0.00  0.00    +0.000 HD
BRANCH  14  19
ATOM     16  C   UNL     1       5.487   2.982  11.962  0.00  0.00    +0.000 C 
ATOM     17  C   UNL     1       6.223   3.793  12.981  0.00  0.00    +0.000 A 
ATOM     18  C   UNL     1       5.828   3.796  14.297  0.00  0.00    +0.000 A 
ATOM     19  C   UNL     1       6.520   4.619  15.162  0.00  0.00    +0.000 A 
ATOM     20  N   UNL     1       7.538   5.391  14.744  0.00  0.00    +0.000 NA
ATOM     21  C   UNL     1       7.862   5.317  13.449  0.00  0.00    +0.000 A 
ATOM     22  N   UNL     1       8.938   6.061  13.004  0.00  0.00    +0.000 N 
ATOM     23  N   UNL     1       7.261   4.537  12.548  0.00  0.00    +0.000 NA
ATOM     24  H   UNL     1       9.585   6.225  13.762  0.00  0.00    +0.000 HD
ATOM     25  H   UNL     1       9.308   5.642  12.161  0.00  0.00    +0.000 HD
ENDBRANCH  14  19
ENDBRANCH   1  14
TORSDOF 3
ENDMDL
MODEL 5
REMARK VINA RESULT:      -8.4      1.018      2.050
REMARK  Name = 
REMARK  5 active torsions:
REMARK  status: ('A' for Active; 'I' for Inactive)
REMARK    1  A    between atoms: C_1  and  C_2
REMARK    2  A    between atoms: C_4  and  N_5
REMARK    3  A    between atoms: N_5  and  C_6
REMARK    4  A    between atoms: C_11  and  C_12
REMARK    5  A    between atoms: N_15  and  C_16
REMARK                            x       y       z     vdW  Elec       q    Type
REMARK                         _______ _______ _______ _____ _____    ______ ____
ROOT
ATOM      1  C   UNL     1       3.933   4.326  19.262  0.00  0.00    +0.000 A 
ATOM      2  C   UNL     1       3.304   3.356  20.048  0.00  0.00    +0.000 A 
ATOM      3  C   UNL     1       2.199   3.689  20.831  0.00  0.00    +0.000 A 
ATOM      4 CL   UNL     1       1.463   2.487  21.819  0.00  0.00    +0.000 Cl
ATOM      5  C   UNL     1       1.694   4.990  20.837  0.00  0.00    +0.000 A 
ATOM      6  C   UNL     1       2.296   5.977  20.050  0.00  0.00    +0.000 A 
ATOM      7  C   UNL     1       3.409   5.630  19.265  0.00  0.00    +0.000 A 
ENDROOT
BRANCH   6   8
ATOM      8  C   UNL     1       1.798   7.342  20.081  0.00  0.00    +0.000 A 
ATOM      9  C   UNL     1       1.175   8.075  21.120  0.00  0.00    +0.000 A 
ATOM     10  N   UNL     1       0.887   9.331  20.770  0.00  0.00    +0.000 NA
ATOM     11  N   UNL     1       1.323   9.411  19.502  0.00  0.00    +0.000 N 
ATOM     12  C   UNL     1       1.238  10.659  18.782  0.00  0.00    +0.000 C 
ATOM     13  C   UNL     1       1.857   8.242  19.036  0.00  0.00    +0.000 A 
ENDBRANCH   6   8
BRANCH   1  14
ATOM     14  N   UNL     1       5.075   3.963  18.519  0.00  0.00    +0.000 N 
ATOM     15  H   UNL     1       5.046   3.009  18.171  0.00  0.00    +0.000 HD
BRANCH  14  19
ATOM     16  C   UNL     1       7.945   7.858  17.680  0.00  0.00    +0.000 C 
ATOM     17  C   UNL     1       7.241   6.611  17.249  0.00  0.00    +0.000 A 
ATOM     18  C   UNL     1       6.430   5.925  18.121  0.00  0.00    +0.000 A 
ATOM     19  C   UNL     1       5.867   4.749  17.667  0.00  0.00    +0.000 A 
ATOM     20  N   UNL     1       6.100   4.285  16.427  0.00  0.00    +0.000 NA
ATOM     21  C   UNL     1       6.893   5.021  15.643  0.00  0.00    +0.000 A 
ATOM     22  N   UNL     1       7.106   4.593  14.347  0.00  0.00    +0.000 N 
ATOM     23  N   UNL     1       7.462   6.177  15.992  0.00  0.00    +0.000 NA
ATOM     24  H   UNL     1       6.326   4.035  14.032  0.00  0.00    +0.000 HD
ATOM     25  H   UNL     1       7.372   5.383  13.774  0.00  0.00    +0.000 HD
ENDBRANCH  14  19
ENDBRANCH   1  14
TORSDOF 3
ENDMDL
MODEL 6
REMARK VINA RESULT:      -8.4      0.892      1.832
REMARK  Name = 
REMARK  5 active torsions:
REMARK  status: ('A' for Active; 'I' for Inactive)
REMARK    1  A    between atoms: C_1  and  C_2
REMARK    2  A    between atoms: C_4  and  N_5
REMARK    3  A    between atoms: N_5  and  C_6
REMARK    4  A    between atoms: C_11  and  C_12
REMARK    5  A    between atoms: N_15  and  C_16
REMARK                            x       y       z     vdW  Elec       q    Type
REMARK                         _______ _______ _______ _____ _____    ______ ____
ROOT
ATOM      1  C   UNL     1       3.934   4.340  19.267  0.00  0.00    +0.000 A 
ATOM      2  C   UNL     1       3.286   3.368  20.034  0.00  0.00    +0.000 A 
ATOM      3  C   UNL     1       2.171   3.703  20.802  0.00  0.00    +0.000 A 
ATOM      4 CL   UNL     1       1.410   2.498  21.766  0.00  0.00    +0.000 Cl
ATOM      5  C   UNL     1       1.675   5.007  20.811  0.00  0.00    +0.000 A 
ATOM      6  C   UNL     1       2.298   5.997  20.044  0.00  0.00    +0.000 A 
ATOM      7  C   UNL     1       3.421   5.648  19.274  0.00  0.00    +0.000 A 
ENDROOT
BRANCH   6   8
ATOM      8  C   UNL     1       1.810   7.365  20.079  0.00  0.00    +0.000 A 
ATOM      9  C   UNL     1       1.810   8.372  19.084  0.00  0.00    +0.000 A 
ATOM     10  N   UNL     1       1.235   9.506  19.492  0.00  0.00    +0.000 NA
ATOM     11  N   UNL     1       0.864   9.233  20.754  0.00  0.00    +0.000 N 
ATOM     12  C   UNL     1       0.142  10.216  21.526  0.00  0.00    +0.000 C 
ATOM     13  C   UNL     1       1.204   7.974  21.160  0.00  0.00    +0.000 A 
ENDBRANCH   6   8
BRANCH   1  14
ATOM     14  N   UNL     1       5.086   3.975  18.540  0.00  0.00    +0.000 N 
ATOM     15  H   UNL     1       5.071   3.013  18.213  0.00  0.00    +0.000 HD
BRANCH  14  19
ATOM     16  C   UNL     1       7.947   7.864  17.642  0.00  0.00    +0.000 C 
ATOM     17  C   UNL     1       7.243   6.610  17.229  0.00  0.00    +0.000 A 
ATOM     18  C   UNL     1       6.436   5.934  18.112  0.00  0.00    +0.000 A 
ATOM     19  C   UNL     1       5.874   4.752  17.675  0.00  0.00    +0.000 A 
ATOM     20  N   UNL     1       6.103   4.272  16.440  0.00  0.00    +0.000 NA
ATOM     21  C   UNL     1       6.891   5.000  15.643  0.00  0.00    +0.000 A 
ATOM     22  N   UNL     1       7.100   4.556  14.352  0.00  0.00    +0.000 N 
ATOM     23  N   UNL     1       7.460   6.161  15.976  0.00  0.00    +0.000 NA
ATOM     24  H   UNL     1       6.320   3.993  14.047  0.00  0.00    +0.000 HD
ATOM     25  H   UNL     1       7.363   5.339  13.768  0.00  0.00    +0.000 HD
ENDBRANCH  14  19
ENDBRANCH   1  14
TORSDOF 3
ENDMDL
MODEL 7
REMARK VINA RESULT:      -8.3      1.565      6.862
REMARK  Name = 
REMARK  5 active torsions:
REMARK  status: ('A' for Active; 'I' for Inactive)
REMARK    1  A    between atoms: C_1  and  C_2
REMARK    2  A    between atoms: C_4  and  N_5
REMARK    3  A    between atoms: N_5  and  C_6
REMARK    4  A    between atoms: C_11  and  C_12
REMARK    5  A    between atoms: N_15  and  C_16
REMARK                            x       y       z     vdW  Elec       q    Type
REMARK                         _______ _______ _______ _____ _____    ______ ____
ROOT
ATOM      1  C   UNL     1       2.546   5.682  19.832  0.00  0.00    +0.000 A 
ATOM      2  C   UNL     1       1.658   4.611  19.697  0.00  0.00    +0.000 A 
ATOM      3  C   UNL     1       1.925   3.582  18.794  0.00  0.00    +0.000 A 
ATOM      4 CL   UNL     1       0.800   2.292  18.617  0.00  0.00    +0.000 Cl
ATOM      5  C   UNL     1       3.085   3.596  18.018  0.00  0.00    +0.000 A 
ATOM      6  C   UNL     1       3.996   4.649  18.142  0.00  0.00    +0.000 A 
ATOM      7  C   UNL     1       3.717   5.680  19.055  0.00  0.00    +0.000 A 
ENDROOT
BRANCH   6   8
ATOM      8  C   UNL     1       5.187   4.688  17.310  0.00  0.00    +0.000 A 
ATOM      9  C   UNL     1       6.559   4.616  17.655  0.00  0.00    +0.000 A 
ATOM     10  N   UNL     1       7.365   4.654  16.591  0.00  0.00    +0.000 NA
ATOM     11  N   UNL     1       6.514   4.752  15.556  0.00  0.00    +0.000 N 
ATOM     12  C   UNL     1       7.015   4.761  14.203  0.00  0.00    +0.000 C 
ATOM     13  C   UNL     1       5.202   4.799  15.934  0.00  0.00    +0.000 A 
ENDBRANCH   6   8
BRANCH   1  14
ATOM     14  N   UNL     1       2.220   6.726  20.721  0.00  0.00    +0.000 N 
ATOM     15  H   UNL     1       2.904   6.857  21.461  0.00  0.00    +0.000 HD
BRANCH  14  19
ATOM     16  C   UNL     1      -0.431  10.594  22.178  0.00  0.00    +0.000 C 
ATOM     17  C   UNL     1       0.301   9.801  21.143  0.00  0.00    +0.000 A 
ATOM     18  C   UNL     1       0.859   8.584  21.454  0.00  0.00    +0.000 A 
ATOM     19  C   UNL     1       1.572   7.945  20.461  0.00  0.00    +0.000 A 
ATOM     20  N   UNL     1       1.724   8.484  19.239  0.00  0.00    +0.000 NA
ATOM     21  C   UNL     1       1.140   9.665  19.020  0.00  0.00    +0.000 A 
ATOM     22  N   UNL     1       1.237  10.216  17.757  0.00  0.00    +0.000 N 
ATOM     23  N   UNL     1       0.417  10.344  19.914  0.00  0.00    +0.000 NA
ATOM     24  H   UNL     1       1.361   9.488  17.069  0.00  0.00    +0.000 HD
ATOM     25  H   UNL     1       0.472  10.862  17.614  0.00  0.00    +0.000 HD
ENDBRANCH  14  19
ENDBRANCH   1  14
TORSDOF 3
ENDMDL
MODEL 8
REMARK VINA RESULT:      -8.3      1.173      1.487
REMARK  Name = 
REMARK  5 active torsions:
REMARK  status: ('A' for Active; 'I' for Inactive)
REMARK    1  A    between atoms: C_1  and  C_2
REMARK    2  A    between atoms: C_4  and  N_5
REMARK    3  A    between atoms: N_5  and  C_6
REMARK    4  A    between atoms: C_11  and  C_12
REMARK    5  A    between atoms: N_15  and  C_16
REMARK                            x       y       z     vdW  Elec       q    Type
REMARK                         _______ _______ _______ _____ _____    ______ ____
ROOT
ATOM      1  C   UNL     1       3.035   4.656  18.343  0.00  0.00    +0.000 A 
ATOM      2  C   UNL     1       2.829   3.700  19.340  0.00  0.00    +0.000 A 
ATOM      3  C   UNL     1       2.242   4.059  20.553  0.00  0.00    +0.000 A 
ATOM      4 CL   UNL     1       2.032   2.872  21.782  0.00  0.00    +0.000 Cl
ATOM      5  C   UNL     1       1.838   5.374  20.789  0.00  0.00    +0.000 A 
ATOM      6  C   UNL     1       2.021   6.348  19.803  0.00  0.00    +0.000 A 
ATOM      7  C   UNL     1       2.614   5.975  18.585  0.00  0.00    +0.000 A 
ENDROOT
BRANCH   6   8
ATOM      8  C   UNL     1       1.638   7.727  20.057  0.00  0.00    +0.000 A 
ATOM      9  C   UNL     1       1.260   8.375  21.259  0.00  0.00    +0.000 A 
ATOM     10  N   UNL     1       1.008   9.676  21.091  0.00  0.00    +0.000 NA
ATOM     11  N   UNL     1       1.223   9.870  19.779  0.00  0.00    +0.000 N 
ATOM     12  C   UNL     1       1.106  11.192  19.213  0.00  0.00    +0.000 C 
ATOM     13  C   UNL     1       1.580   8.732  19.112  0.00  0.00    +0.000 A 
ENDBRANCH   6   8
BRANCH   1  14
ATOM     14  N   UNL     1       3.674   4.265  17.148  0.00  0.00    +0.000 N 
ATOM     15  H   UNL     1       3.095   4.383  16.321  0.00  0.00    +0.000 HD
BRANCH  14  19
ATOM     16  C   UNL     1       7.215   4.803  13.788  0.00  0.00    +0.000 C 
ATOM     17  C   UNL     1       6.734   4.623  15.193  0.00  0.00    +0.000 A 
ATOM     18  C   UNL     1       5.396   4.465  15.464  0.00  0.00    +0.000 A 
ATOM     19  C   UNL     1       5.028   4.368  16.790  0.00  0.00    +0.000 A 
ATOM     20  N   UNL     1       5.933   4.428  17.783  0.00  0.00    +0.000 NA
ATOM     21  C   UNL     1       7.213   4.572  17.429  0.00  0.00    +0.000 A 
ATOM     22  N   UNL     1       8.168   4.584  18.428  0.00  0.00    +0.000 N 
ATOM     23  N   UNL     1       7.660   4.654  16.174  0.00  0.00    +0.000 NA
ATOM     24  H   UNL     1       7.837   4.070  19.231  0.00  0.00    +0.000 HD
ATOM     25  H   UNL     1       9.061   4.311  18.039  0.00  0.00    +0.000 HD
ENDBRANCH  14  19
ENDBRANCH   1  14
TORSDOF 3
ENDMDL
MODEL 9
REMARK VINA RESULT:      -8.2      1.828      6.987
REMARK  Name = 
REMARK  5 active torsions:
REMARK  status: ('A' for Active; 'I' for Inactive)
REMARK    1  A    between atoms: C_1  and  C_2
REMARK    2  A    between atoms: C_4  and  N_5
REMARK    3  A    between atoms: N_5  and  C_6
REMARK    4  A    between atoms: C_11  and  C_12
REMARK    5  A    between atoms: N_15  and  C_16
REMARK                            x       y       z     vdW  Elec       q    Type
REMARK                         _______ _______ _______ _____ _____    ______ ____
ROOT
ATOM      1  C   UNL     1       2.217   6.013  20.050  0.00  0.00    +0.000 A 
ATOM      2  C   UNL     1       1.419   4.866  20.035  0.00  0.00    +0.000 A 
ATOM      3  C   UNL     1       1.570   3.914  19.027  0.00  0.00    +0.000 A 
ATOM      4 CL   UNL     1       0.552   2.527  19.007  0.00  0.00    +0.000 Cl
ATOM      5  C   UNL     1       2.525   4.082  18.024  0.00  0.00    +0.000 A 
ATOM      6  C   UNL     1       3.345   5.214  18.022  0.00  0.00    +0.000 A 
ATOM      7  C   UNL     1       3.184   6.167  19.042  0.00  0.00    +0.000 A 
ENDROOT
BRANCH   6   8
ATOM      8  C   UNL     1       4.316   5.413  16.958  0.00  0.00    +0.000 A 
ATOM      9  C   UNL     1       4.909   6.598  16.458  0.00  0.00    +0.000 A 
ATOM     10  N   UNL     1       5.792   6.366  15.484  0.00  0.00    +0.000 NA
ATOM     11  N   UNL     1       5.770   5.029  15.352  0.00  0.00    +0.000 N 
ATOM     12  C   UNL     1       6.653   4.378  14.416  0.00  0.00    +0.000 C 
ATOM     13  C   UNL     1       4.888   4.415  16.196  0.00  0.00    +0.000 A 
ENDBRANCH   6   8
BRANCH   1  14
ATOM     14  N   UNL     1       2.004   6.976  21.058  0.00  0.00    +0.000 N 
ATOM     15  H   UNL     1       2.818   7.136  21.644  0.00  0.00    +0.000 HD
BRANCH  14  19
ATOM     16  C   UNL     1       0.015  10.768  18.654  0.00  0.00    +0.000 C 
ATOM     17  C   UNL     1       0.257   9.958  19.889  0.00  0.00    +0.000 A 
ATOM     18  C   UNL     1       1.093   8.869  19.862  0.00  0.00    +0.000 A 
ATOM     19  C   UNL     1       1.214   8.137  21.025  0.00  0.00    +0.000 A 
ATOM     20  N   UNL     1       0.543   8.466  22.143  0.00  0.00    +0.000 NA
ATOM     21  C   UNL     1      -0.240   9.547  22.083  0.00  0.00    +0.000 A 
ATOM     22  N   UNL     1      -0.901   9.938  23.232  0.00  0.00    +0.000 N 
ATOM     23  N   UNL     1      -0.401  10.323  21.008  0.00  0.00    +0.000 NA
ATOM     24  H   UNL     1      -0.393   9.627  24.047  0.00  0.00    +0.000 HD
ATOM     25  H   UNL     1      -1.122  10.923  23.171  0.00  0.00    +0.000 HD
ENDBRANCH  14  19
ENDBRANCH   1  14
TORSDOF 3
ENDMDL
