MODEL 1
REMARK VINA RESULT:      -8.1      0.000      0.000
REMARK  Name = 
REMARK  4 active torsions:
REMARK  status: ('A' for Active; 'I' for Inactive)
REMARK    1  A    between atoms: C_2  and  O_3
REMARK    2  A    between atoms: C_2  and  C_16
REMARK    3  A    between atoms: O_3  and  C_4
REMARK    4  A    between atoms: C_4  and  N_5
REMARK                            x       y       z     vdW  Elec       q    Type
REMARK                         _______ _______ _______ _____ _____    ______ ____
ROOT
ATOM      1  N   UNL     1       6.622   4.792  16.640  0.00  0.00    +0.000 N 
ATOM      2  N   UNL     1       7.545   5.696  16.195  0.00  0.00    +0.000 NA
ATOM      3  N   UNL     1       7.772   5.851  14.976  0.00  0.00    +0.000 NA
ATOM      4  C   UNL     1       7.169   4.998  14.045  0.00  0.00    +0.000 A 
ATOM      5  C   UNL     1       7.573   5.056  12.706  0.00  0.00    +0.000 A 
ATOM      6  C   UNL     1       7.014   4.199  11.752  0.00  0.00    +0.000 A 
ATOM      7  C   UNL     1       6.025   3.289  12.124  0.00  0.00    +0.000 A 
ATOM      8  C   UNL     1       5.606   3.229  13.451  0.00  0.00    +0.000 A 
ATOM      9  C   UNL     1       6.195   4.076  14.395  0.00  0.00    +0.000 A 
ATOM     10  C   UNL     1       5.866   3.989  15.815  0.00  0.00    +0.000 A 
ATOM     11  O   UNL     1       4.996   3.213  16.195  0.00  0.00    +0.000 OA
ENDROOT
BRANCH   1  12
ATOM     12  C   UNL     1       6.522   4.629  18.074  0.00  0.00    +0.000 C 
BRANCH  12  13
ATOM     13  O   UNL     1       5.291   5.220  18.513  0.00  0.00    +0.000 OA
BRANCH  13  15
ATOM     14  O   UNL     1       4.757   3.353  19.715  0.00  0.00    +0.000 OA
ATOM     15  C   UNL     1       4.432   4.392  19.145  0.00  0.00    +0.000 C 
BRANCH  15  16
ATOM     16  C   UNL     1       2.980   4.848  19.066  0.00  0.00    +0.000 C 
ATOM     17  C   UNL     1       2.088   4.085  18.073  0.00  0.00    +0.000 C 
ATOM     18  C   UNL     1       1.337   2.888  18.652  0.00  0.00    +0.000 C 
ATOM     19  C   UNL     1       0.678   3.208  19.986  0.00  0.00    +0.000 C 
ATOM     20  C   UNL     1       1.715   3.716  20.978  0.00  0.00    +0.000 C 
ATOM     21  C   UNL     1       2.375   4.990  20.467  0.00  0.00    +0.000 C 
ENDBRANCH  15  16
ENDBRANCH  13  15
ENDBRANCH  12  13
ENDBRANCH   1  12
TORSDOF 4
ENDMDL
MODEL 2
REMARK VINA RESULT:      -8.0      0.905      1.417
REMARK  Name = 
REMARK  4 active torsions:
REMARK  status: ('A' for Active; 'I' for Inactive)
REMARK    1  A    between atoms: C_2  and  O_3
REMARK    2  A    between atoms: C_2  and  C_16
REMARK    3  A    between atoms: O_3  and  C_4
REMARK    4  A    between atoms: C_4  and  N_5
REMARK                            x       y       z     vdW  Elec       q    Type
REMARK                         _______ _______ _______ _____ _____    ______ ____
ROOT
ATOM      1  N   UNL     1       6.216   4.805  16.841  0.00  0.00    +0.000 N 
ATOM      2  N   UNL     1       7.274   5.612  16.531  0.00  0.00    +0.000 NA
ATOM      3  N   UNL     1       7.655   5.763  15.350  0.00  0.00    +0.000 NA
ATOM      4  C   UNL     1       7.078   4.996  14.332  0.00  0.00    +0.000 A 
ATOM      5  C   UNL     1       7.638   5.035  13.049  0.00  0.00    +0.000 A 
ATOM      6  C   UNL     1       7.106   4.261  12.013  0.00  0.00    +0.000 A 
ATOM      7  C   UNL     1       5.991   3.455  12.243  0.00  0.00    +0.000 A 
ATOM      8  C   UNL     1       5.417   3.417  13.512  0.00  0.00    +0.000 A 
ATOM      9  C   UNL     1       5.978   4.179  14.542  0.00  0.00    +0.000 A 
ATOM     10  C   UNL     1       5.481   4.103  15.912  0.00  0.00    +0.000 A 
ATOM     11  O   UNL     1       4.495   3.418  16.168  0.00  0.00    +0.000 OA
ENDROOT
BRANCH   1  12
ATOM     12  C   UNL     1       5.934   4.628  18.249  0.00  0.00    +0.000 C 
BRANCH  12  13
ATOM     13  O   UNL     1       5.060   5.683  18.673  0.00  0.00    +0.000 OA
BRANCH  13  15
ATOM     14  O   UNL     1       2.879   5.779  18.001  0.00  0.00    +0.000 OA
ATOM     15  C   UNL     1       3.751   5.365  18.762  0.00  0.00    +0.000 C 
BRANCH  15  16
ATOM     16  C   UNL     1       3.428   4.447  19.935  0.00  0.00    +0.000 C 
ATOM     17  C   UNL     1       2.235   4.866  20.809  0.00  0.00    +0.000 C 
ATOM     18  C   UNL     1       0.885   4.277  20.402  0.00  0.00    +0.000 C 
ATOM     19  C   UNL     1       0.969   2.786  20.108  0.00  0.00    +0.000 C 
ATOM     20  C   UNL     1       2.012   2.519  19.032  0.00  0.00    +0.000 C 
ATOM     21  C   UNL     1       3.391   2.982  19.487  0.00  0.00    +0.000 C 
ENDBRANCH  15  16
ENDBRANCH  13  15
ENDBRANCH  12  13
ENDBRANCH   1  12
TORSDOF 4
ENDMDL
MODEL 3
REMARK VINA RESULT:      -8.0      2.576      3.604
REMARK  Name = 
REMARK  4 active torsions:
REMARK  status: ('A' for Active; 'I' for Inactive)
REMARK    1  A    between atoms: C_2  and  O_3
REMARK    2  A    between atoms: C_2  and  C_16
REMARK    3  A    between atoms: O_3  and  C_4
REMARK    4  A    between atoms: C_4  and  N_5
REMARK                            x       y       z     vdW  Elec       q    Type
REMARK                         _______ _______ _______ _____ _____    ______ ____
ROOT
ATOM      1  N   UNL     1       4.047   6.051  19.185  0.00  0.00    +0.000 N 
ATOM      2  N   UNL     1       4.940   5.167  19.721  0.00  0.00    +0.000 NA
ATOM      3  N   UNL     1       5.874   4.691  19.041  0.00  0.00    +0.000 NA
ATOM      4  C   UNL     1       5.941   4.959  17.669  0.00  0.00    +0.000 A 
ATOM      5  C   UNL     1       6.875   4.273  16.885  0.00  0.00    +0.000 A 
ATOM      6  C   UNL     1       6.951   4.493  15.506  0.00  0.00    +0.000 A 
ATOM      7  C   UNL     1       6.107   5.423  14.898  0.00  0.00    +0.000 A 
ATOM      8  C   UNL     1       5.181   6.122  15.670  0.00  0.00    +0.000 A 
ATOM      9  C   UNL     1       5.103   5.869  17.043  0.00  0.00    +0.000 A 
ATOM     10  C   UNL     1       4.087   6.497  17.882  0.00  0.00    +0.000 A 
ATOM     11  O   UNL     1       3.327   7.331  17.402  0.00  0.00    +0.000 OA
ENDROOT
BRANCH   1  12
ATOM     12  C   UNL     1       2.950   6.453  20.038  0.00  0.00    +0.000 C 
BRANCH  12  13
ATOM     13  O   UNL     1       1.815   5.630  19.736  0.00  0.00    +0.000 OA
BRANCH  13  15
ATOM     14  O   UNL     1       2.010   4.286  21.573  0.00  0.00    +0.000 OA
ATOM     15  C   UNL     1       1.758   4.444  20.380  0.00  0.00    +0.000 C 
BRANCH  15  16
ATOM     16  C   UNL     1       1.374   3.280  19.476  0.00  0.00    +0.000 C 
ATOM     17  C   UNL     1       1.306   3.590  17.971  0.00  0.00    +0.000 C 
ATOM     18  C   UNL     1       2.597   3.341  17.192  0.00  0.00    +0.000 C 
ATOM     19  C   UNL     1       3.235   2.004  17.541  0.00  0.00    +0.000 C 
ATOM     20  C   UNL     1       3.493   1.918  19.038  0.00  0.00    +0.000 C 
ATOM     21  C   UNL     1       2.190   2.029  19.820  0.00  0.00    +0.000 C 
ENDBRANCH  15  16
ENDBRANCH  13  15
ENDBRANCH  12  13
ENDBRANCH   1  12
TORSDOF 4
ENDMDL
MODEL 4
REMARK VINA RESULT:      -7.9      1.016      1.451
REMARK  Name = 
REMARK  4 active torsions:
REMARK  status: ('A' for Active; 'I' for Inactive)
REMARK    1  A    between atoms: C_2  and  O_3
REMARK    2  A    between atoms: C_2  and  C_16
REMARK    3  A    between atoms: O_3  and  C_4
REMARK    4  A    between atoms: C_4  and  N_5
REMARK                            x       y       z     vdW  Elec       q    Type
REMARK                         _______ _______ _______ _____ _____    ______ ____
ROOT
ATOM      1  N   UNL     1       6.023   4.886  16.780  0.00  0.00    +0.000 N 
ATOM      2  N   UNL     1       7.144   5.626  16.529  0.00  0.00    +0.000 NA
ATOM      3  N   UNL     1       7.604   5.739  15.373  0.00  0.00    +0.000 NA
ATOM      4  C   UNL     1       7.046   4.995  14.327  0.00  0.00    +0.000 A 
ATOM      5  C   UNL     1       7.684   4.984  13.082  0.00  0.00    +0.000 A 
ATOM      6  C   UNL     1       7.172   4.229  12.022  0.00  0.00    +0.000 A 
ATOM      7  C   UNL     1       6.000   3.493  12.190  0.00  0.00    +0.000 A 
ATOM      8  C   UNL     1       5.348   3.504  13.421  0.00  0.00    +0.000 A 
ATOM      9  C   UNL     1       5.890   4.245  14.477  0.00  0.00    +0.000 A 
ATOM     10  C   UNL     1       5.306   4.215  15.815  0.00  0.00    +0.000 A 
ATOM     11  O   UNL     1       4.268   3.593  16.015  0.00  0.00    +0.000 OA
ENDROOT
BRANCH   1  12
ATOM     12  C   UNL     1       5.646   4.743  18.170  0.00  0.00    +0.000 C 
BRANCH  12  13
ATOM     13  O   UNL     1       4.695   5.768  18.490  0.00  0.00    +0.000 OA
BRANCH  13  15
ATOM     14  O   UNL     1       3.124   6.163  20.100  0.00  0.00    +0.000 OA
ATOM     15  C   UNL     1       3.692   5.405  19.317  0.00  0.00    +0.000 C 
BRANCH  15  16
ATOM     16  C   UNL     1       3.329   3.928  19.218  0.00  0.00    +0.000 C 
ATOM     17  C   UNL     1       3.647   3.073  20.456  0.00  0.00    +0.000 C 
ATOM     18  C   UNL     1       2.514   2.946  21.473  0.00  0.00    +0.000 C 
ATOM     19  C   UNL     1       1.176   2.643  20.814  0.00  0.00    +0.000 C 
ATOM     20  C   UNL     1       0.844   3.710  19.780  0.00  0.00    +0.000 C 
ATOM     21  C   UNL     1       1.903   3.750  18.685  0.00  0.00    +0.000 C 
ENDBRANCH  15  16
ENDBRANCH  13  15
ENDBRANCH  12  13
ENDBRANCH   1  12
TORSDOF 4
ENDMDL
MODEL 5
REMARK VINA RESULT:      -7.8      2.256      3.444
REMARK  Name = 
REMARK  4 active torsions:
REMARK  status: ('A' for Active; 'I' for Inactive)
REMARK    1  A    between atoms: C_2  and  O_3
REMARK    2  A    between atoms: C_2  and  C_16
REMARK    3  A    between atoms: O_3  and  C_4
REMARK    4  A    between atoms: C_4  and  N_5
REMARK                            x       y       z     vdW  Elec       q    Type
REMARK                         _______ _______ _______ _____ _____    ______ ____
ROOT
ATOM      1  N   UNL     1       4.826   3.234  19.362  0.00  0.00    +0.000 N 
ATOM      2  N   UNL     1       5.576   4.222  19.935  0.00  0.00    +0.000 NA
ATOM      3  N   UNL     1       6.156   5.085  19.241  0.00  0.00    +0.000 NA
ATOM      4  C   UNL     1       6.152   4.972  17.846  0.00  0.00    +0.000 A 
ATOM      5  C   UNL     1       6.958   5.831  17.091  0.00  0.00    +0.000 A 
ATOM      6  C   UNL     1       7.003   5.728  15.696  0.00  0.00    +0.000 A 
ATOM      7  C   UNL     1       6.220   4.779  15.040  0.00  0.00    +0.000 A 
ATOM      8  C   UNL     1       5.404   3.926  15.779  0.00  0.00    +0.000 A 
ATOM      9  C   UNL     1       5.393   4.027  17.175  0.00  0.00    +0.000 A 
ATOM     10  C   UNL     1       4.635   3.096  18.005  0.00  0.00    +0.000 A 
ATOM     11  O   UNL     1       3.921   2.249  17.479  0.00  0.00    +0.000 OA
ENDROOT
BRANCH   1  12
ATOM     12  C   UNL     1       4.289   2.234  20.259  0.00  0.00    +0.000 C 
BRANCH  12  13
ATOM     13  O   UNL     1       2.857   2.304  20.211  0.00  0.00    +0.000 OA
BRANCH  13  15
ATOM     14  O   UNL     1       2.454   2.923  22.372  0.00  0.00    +0.000 OA
ATOM     15  C   UNL     1       2.271   3.060  21.164  0.00  0.00    +0.000 C 
BRANCH  15  16
ATOM     16  C   UNL     1       1.315   4.106  20.606  0.00  0.00    +0.000 C 
ATOM     17  C   UNL     1       1.872   5.535  20.495  0.00  0.00    +0.000 C 
ATOM     18  C   UNL     1       2.516   5.885  19.155  0.00  0.00    +0.000 C 
ATOM     19  C   UNL     1       1.671   5.435  17.971  0.00  0.00    +0.000 C 
ATOM     20  C   UNL     1       1.400   3.940  18.056  0.00  0.00    +0.000 C 
ATOM     21  C   UNL     1       0.635   3.599  19.330  0.00  0.00    +0.000 C 
ENDBRANCH  15  16
ENDBRANCH  13  15
ENDBRANCH  12  13
ENDBRANCH   1  12
TORSDOF 4
ENDMDL
MODEL 6
REMARK VINA RESULT:      -7.8      0.982      1.563
REMARK  Name = 
REMARK  4 active torsions:
REMARK  status: ('A' for Active; 'I' for Inactive)
REMARK    1  A    between atoms: C_2  and  O_3
REMARK    2  A    between atoms: C_2  and  C_16
REMARK    3  A    between atoms: O_3  and  C_4
REMARK    4  A    between atoms: C_4  and  N_5
REMARK                            x       y       z     vdW  Elec       q    Type
REMARK                         _______ _______ _______ _____ _____    ______ ____
ROOT
ATOM      1  N   UNL     1       6.199   5.228  16.496  0.00  0.00    +0.000 N 
ATOM      2  N   UNL     1       7.400   5.728  16.081  0.00  0.00    +0.000 NA
ATOM      3  N   UNL     1       7.781   5.609  14.896  0.00  0.00    +0.000 NA
ATOM      4  C   UNL     1       7.031   4.839  14.000  0.00  0.00    +0.000 A 
ATOM      5  C   UNL     1       7.560   4.557  12.736  0.00  0.00    +0.000 A 
ATOM      6  C   UNL     1       6.853   3.766  11.824  0.00  0.00    +0.000 A 
ATOM      7  C   UNL     1       5.594   3.268  12.160  0.00  0.00    +0.000 A 
ATOM      8  C   UNL     1       5.051   3.552  13.411  0.00  0.00    +0.000 A 
ATOM      9  C   UNL     1       5.785   4.323  14.319  0.00  0.00    +0.000 A 
ATOM     10  C   UNL     1       5.310   4.568  15.677  0.00  0.00    +0.000 A 
ATOM     11  O   UNL     1       4.205   4.163  16.022  0.00  0.00    +0.000 OA
ENDROOT
BRANCH   1  12
ATOM     12  C   UNL     1       5.913   5.336  17.911  0.00  0.00    +0.000 C 
BRANCH  12  13
ATOM     13  O   UNL     1       5.174   4.174  18.314  0.00  0.00    +0.000 OA
BRANCH  13  15
ATOM     14  O   UNL     1       4.053   5.436  19.852  0.00  0.00    +0.000 OA
ATOM     15  C   UNL     1       4.310   4.350  19.336  0.00  0.00    +0.000 C 
BRANCH  15  16
ATOM     16  C   UNL     1       3.683   3.053  19.831  0.00  0.00    +0.000 C 
ATOM     17  C   UNL     1       2.534   3.204  20.843  0.00  0.00    +0.000 C 
ATOM     18  C   UNL     1       1.133   3.266  20.238  0.00  0.00    +0.000 C 
ATOM     19  C   UNL     1       0.913   2.198  19.176  0.00  0.00    +0.000 C 
ATOM     20  C   UNL     1       1.968   2.315  18.085  0.00  0.00    +0.000 C 
ATOM     21  C   UNL     1       3.365   2.118  18.659  0.00  0.00    +0.000 C 
ENDBRANCH  15  16
ENDBRANCH  13  15
ENDBRANCH  12  13
ENDBRANCH   1  12
TORSDOF 4
ENDMDL
MODEL 7
REMARK VINA RESULT:      -7.7      3.109      4.225
REMARK  Name = 
REMARK  4 active torsions:
REMARK  status: ('A' for Active; 'I' for Inactive)
REMARK    1  A    between atoms: C_2  and  O_3
REMARK    2  A    between atoms: C_2  and  C_16
REMARK    3  A    between atoms: O_3  and  C_4
REMARK    4  A    between atoms: C_4  and  N_5
REMARK                            x       y       z     vdW  Elec       q    Type
REMARK                         _______ _______ _______ _____ _____    ______ ____
ROOT
ATOM      1  N   UNL     1       4.541   3.938  17.663  0.00  0.00    +0.000 N 
ATOM      2  N   UNL     1       5.030   3.526  18.871  0.00  0.00    +0.000 NA
ATOM      3  N   UNL     1       5.904   4.181  19.478  0.00  0.00    +0.000 NA
ATOM      4  C   UNL     1       6.496   5.288  18.860  0.00  0.00    +0.000 A 
ATOM      5  C   UNL     1       7.600   5.898  19.466  0.00  0.00    +0.000 A 
ATOM      6  C   UNL     1       8.236   6.988  18.863  0.00  0.00    +0.000 A 
ATOM      7  C   UNL     1       7.757   7.497  17.656  0.00  0.00    +0.000 A 
ATOM      8  C   UNL     1       6.651   6.908  17.049  0.00  0.00    +0.000 A 
ATOM      9  C   UNL     1       6.045   5.802  17.654  0.00  0.00    +0.000 A 
ATOM     10  C   UNL     1       4.947   5.083  17.014  0.00  0.00    +0.000 A 
ATOM     11  O   UNL     1       4.480   5.495  15.957  0.00  0.00    +0.000 OA
ENDROOT
BRANCH   1  12
ATOM     12  C   UNL     1       3.609   3.045  17.009  0.00  0.00    +0.000 C 
BRANCH  12  13
ATOM     13  O   UNL     1       2.614   2.650  17.963  0.00  0.00    +0.000 OA
BRANCH  13  15
ATOM     14  O   UNL     1       1.105   4.164  17.157  0.00  0.00    +0.000 OA
ATOM     15  C   UNL     1       1.542   3.465  18.069  0.00  0.00    +0.000 C 
BRANCH  15  16
ATOM     16  C   UNL     1       0.920   3.471  19.459  0.00  0.00    +0.000 C 
ATOM     17  C   UNL     1       1.319   2.307  20.380  0.00  0.00    +0.000 C 
ATOM     18  C   UNL     1       2.527   2.565  21.279  0.00  0.00    +0.000 C 
ATOM     19  C   UNL     1       2.461   3.925  21.960  0.00  0.00    +0.000 C 
ATOM     20  C   UNL     1       2.324   5.029  20.922  0.00  0.00    +0.000 C 
ATOM     21  C   UNL     1       1.048   4.854  20.109  0.00  0.00    +0.000 C 
ENDBRANCH  15  16
ENDBRANCH  13  15
ENDBRANCH  12  13
ENDBRANCH   1  12
TORSDOF 4
ENDMDL
MODEL 8
REMARK VINA RESULT:      -7.7      1.247      1.880
REMARK  Name = 
REMARK  4 active torsions:
REMARK  status: ('A' for Active; 'I' for Inactive)
REMARK    1  A    between atoms: C_2  and  O_3
REMARK    2  A    between atoms: C_2  and  C_16
REMARK    3  A    between atoms: O_3  and  C_4
REMARK    4  A    between atoms: C_4  and  N_5
REMARK                            x       y       z     vdW  Elec       q    Type
REMARK                         _______ _______ _______ _____ _____    ______ ____
ROOT
ATOM      1  N   UNL     1       5.866   4.748  16.712  0.00  0.00    +0.000 N 
ATOM      2  N   UNL     1       5.143   3.688  16.243  0.00  0.00    +0.000 NA
ATOM      3  N   UNL     1       5.319   3.237  15.091  0.00  0.00    +0.000 NA
ATOM      4  C   UNL     1       6.178   3.902  14.209  0.00  0.00    +0.000 A 
ATOM      5  C   UNL     1       6.224   3.500  12.869  0.00  0.00    +0.000 A 
ATOM      6  C   UNL     1       7.049   4.160  11.953  0.00  0.00    +0.000 A 
ATOM      7  C   UNL     1       7.858   5.215  12.373  0.00  0.00    +0.000 A 
ATOM      8  C   UNL     1       7.831   5.617  13.706  0.00  0.00    +0.000 A 
ATOM      9  C   UNL     1       6.980   4.961  14.603  0.00  0.00    +0.000 A 
ATOM     10  C   UNL     1       6.837   5.402  15.987  0.00  0.00    +0.000 A 
ATOM     11  O   UNL     1       7.533   6.319  16.412  0.00  0.00    +0.000 OA
ENDROOT
BRANCH   1  12
ATOM     12  C   UNL     1       5.502   5.246  18.021  0.00  0.00    +0.000 C 
BRANCH  12  13
ATOM     13  O   UNL     1       5.767   4.220  18.987  0.00  0.00    +0.000 OA
BRANCH  13  15
ATOM     14  O   UNL     1       4.733   2.432  19.962  0.00  0.00    +0.000 OA
ATOM     15  C   UNL     1       4.690   3.544  19.440  0.00  0.00    +0.000 C 
BRANCH  15  16
ATOM     16  C   UNL     1       3.375   4.280  19.218  0.00  0.00    +0.000 C 
ATOM     17  C   UNL     1       2.363   3.586  18.291  0.00  0.00    +0.000 C 
ATOM     18  C   UNL     1       1.356   2.672  18.986  0.00  0.00    +0.000 C 
ATOM     19  C   UNL     1       0.749   3.316  20.225  0.00  0.00    +0.000 C 
ATOM     20  C   UNL     1       1.847   3.732  21.194  0.00  0.00    +0.000 C 
ATOM     21  C   UNL     1       2.780   4.750  20.551  0.00  0.00    +0.000 C 
ENDBRANCH  15  16
ENDBRANCH  13  15
ENDBRANCH  12  13
ENDBRANCH   1  12
TORSDOF 4
ENDMDL
MODEL 9
REMARK VINA RESULT:      -7.7      1.446      2.328
REMARK  Name = 
REMARK  4 active torsions:
REMARK  status: ('A' for Active; 'I' for Inactive)
REMARK    1  A    between atoms: C_2  and  O_3
REMARK    2  A    between atoms: C_2  and  C_16
REMARK    3  A    between atoms: O_3  and  C_4
REMARK    4  A    between atoms: C_4  and  N_5
REMARK                            x       y       z     vdW  Elec       q    Type
REMARK                         _______ _______ _______ _____ _____    ______ ____
ROOT
ATOM      1  N   UNL     1       5.872   5.020  16.771  0.00  0.00    +0.000 N 
ATOM      2  N   UNL     1       5.049   3.991  16.407  0.00  0.00    +0.000 NA
ATOM      3  N   UNL     1       5.147   3.443  15.289  0.00  0.00    +0.000 NA
ATOM      4  C   UNL     1       6.024   3.968  14.333  0.00  0.00    +0.000 A 
ATOM      5  C   UNL     1       5.989   3.466  13.027  0.00  0.00    +0.000 A 
ATOM      6  C   UNL     1       6.830   3.985  12.038  0.00  0.00    +0.000 A 
ATOM      7  C   UNL     1       7.735   4.999  12.351  0.00  0.00    +0.000 A 
ATOM      8  C   UNL     1       7.789   5.499  13.650  0.00  0.00    +0.000 A 
ATOM      9  C   UNL     1       6.922   4.984  14.620  0.00  0.00    +0.000 A 
ATOM     10  C   UNL     1       6.865   5.537  15.970  0.00  0.00    +0.000 A 
ATOM     11  O   UNL     1       7.646   6.422  16.302  0.00  0.00    +0.000 OA
ENDROOT
BRANCH   1  12
ATOM     12  C   UNL     1       5.596   5.642  18.048  0.00  0.00    +0.000 C 
BRANCH  12  13
ATOM     13  O   UNL     1       5.182   4.623  18.969  0.00  0.00    +0.000 OA
BRANCH  13  15
ATOM     14  O   UNL     1       3.429   5.899  19.688  0.00  0.00    +0.000 OA
ATOM     15  C   UNL     1       3.977   4.807  19.550  0.00  0.00    +0.000 C 
BRANCH  15  16
ATOM     16  C   UNL     1       3.347   3.519  20.063  0.00  0.00    +0.000 C 
ATOM     17  C   UNL     1       2.027   3.676  20.837  0.00  0.00    +0.000 C 
ATOM     18  C   UNL     1       0.757   3.575  19.994  0.00  0.00    +0.000 C 
ATOM     19  C   UNL     1       0.795   2.400  19.028  0.00  0.00    +0.000 C 
ATOM     20  C   UNL     1       2.021   2.493  18.132  0.00  0.00    +0.000 C 
ATOM     21  C   UNL     1       3.301   2.457  18.958  0.00  0.00    +0.000 C 
ENDBRANCH  15  16
ENDBRANCH  13  15
ENDBRANCH  12  13
ENDBRANCH   1  12
TORSDOF 4
ENDMDL
