MODEL 1
REMARK VINA RESULT:      -9.0      0.000      0.000
REMARK  Name = 
REMARK  7 active torsions:
REMARK  status: ('A' for Active; 'I' for Inactive)
REMARK    1  A    between atoms: C_1  and  O_2
REMARK    2  A    between atoms: O_2  and  C_3
REMARK    3  A    between atoms: C_6  and  C_7
REMARK    4  A    between atoms: N_10  and  C_11
REMARK    5  A    between atoms: C_11  and  C_12
REMARK    6  A    between atoms: C_19  and  C_20
REMARK    7  A    between atoms: C_20  and  C_21
REMARK                            x       y       z     vdW  Elec       q    Type
REMARK                         _______ _______ _______ _____ _____    ______ ____
ROOT
ATOM      1  C   UNL     1       3.194   6.702  17.890  0.00  0.00    +0.000 A 
ATOM      2  N   UNL     1       4.309   7.171  17.194  0.00  0.00    +0.000 NA
ATOM      3  C   UNL     1       4.957   6.192  16.612  0.00  0.00    +0.000 A 
ATOM      4  N   UNL     1       6.113   6.381  15.943  0.00  0.00    +0.000 N 
ATOM      5  S   UNL     1       4.184   4.662  16.744  0.00  0.00    +0.000 S 
ATOM      6  C   UNL     1       2.930   5.352  17.695  0.00  0.00    +0.000 A 
ATOM      7  H   UNL     1       6.368   7.320  15.665  0.00  0.00    +0.000 HD
ENDROOT
BRANCH   1  11
ATOM      8  C   UNL     1       0.812   9.283  20.372  0.00  0.00    +0.000 A 
ATOM      9  C   UNL     1       1.391   8.120  20.883  0.00  0.00    +0.000 A 
ATOM     10  C   UNL     1       2.199   7.308  20.076  0.00  0.00    +0.000 A 
ATOM     11  C   UNL     1       2.438   7.633  18.736  0.00  0.00    +0.000 A 
ATOM     12  C   UNL     1       1.843   8.799  18.235  0.00  0.00    +0.000 A 
ATOM     13  C   UNL     1       1.044   9.623  19.044  0.00  0.00    +0.000 A 
BRANCH   8  15
ATOM     14  C   UNL     1      -0.438   9.253  22.388  0.00  0.00    +0.000 C 
ATOM     15  O   UNL     1       0.007   9.967  21.241  0.00  0.00    +0.000 OA
ENDBRANCH   8  15
ENDBRANCH   1  11
BRANCH   4  16
ATOM     16  C   UNL     1       7.076   5.325  15.736  0.00  0.00    +0.000 C 
BRANCH  16  17
ATOM     17  C   UNL     1       7.026   4.799  14.320  0.00  0.00    +0.000 A 
ATOM     18  C   UNL     1       6.152   3.759  13.964  0.00  0.00    +0.000 A 
ATOM     19  C   UNL     1       6.064   3.327  12.639  0.00  0.00    +0.000 A 
ATOM     20  C   UNL     1       6.840   3.934  11.655  0.00  0.00    +0.000 A 
ATOM     21  C   UNL     1       7.707   4.971  11.993  0.00  0.00    +0.000 A 
ATOM     22  C   UNL     1       7.800   5.402  13.317  0.00  0.00    +0.000 A 
ENDBRANCH  16  17
ENDBRANCH   4  16
BRANCH   6  23
ATOM     23  C   UNL     1       1.805   4.463  18.128  0.00  0.00    +0.000 C 
BRANCH  23  24
ATOM     24  C   UNL     1       2.016   3.663  19.402  0.00  0.00    +0.000 A 
ATOM     25  C   UNL     1       3.235   3.063  19.757  0.00  0.00    +0.000 A 
ATOM     26  C   UNL     1       3.386   2.430  20.992  0.00  0.00    +0.000 A 
ATOM     27  C   UNL     1       2.317   2.368  21.880  0.00  0.00    +0.000 A 
ATOM     28  C   UNL     1       1.088   2.923  21.528  0.00  0.00    +0.000 A 
ATOM     29  C   UNL     1       0.940   3.566  20.298  0.00  0.00    +0.000 A 
ENDBRANCH  23  24
ENDBRANCH   6  23
TORSDOF 6
ENDMDL
MODEL 2
REMARK VINA RESULT:      -8.9      0.130      1.295
REMARK  Name = 
REMARK  7 active torsions:
REMARK  status: ('A' for Active; 'I' for Inactive)
REMARK    1  A    between atoms: C_1  and  O_2
REMARK    2  A    between atoms: O_2  and  C_3
REMARK    3  A    between atoms: C_6  and  C_7
REMARK    4  A    between atoms: N_10  and  C_11
REMARK    5  A    between atoms: C_11  and  C_12
REMARK    6  A    between atoms: C_19  and  C_20
REMARK    7  A    between atoms: C_20  and  C_21
REMARK                            x       y       z     vdW  Elec       q    Type
REMARK                         _______ _______ _______ _____ _____    ______ ____
ROOT
ATOM      1  C   UNL     1       3.140   6.718  17.911  0.00  0.00    +0.000 A 
ATOM      2  N   UNL     1       4.240   7.201  17.201  0.00  0.00    +0.000 NA
ATOM      3  C   UNL     1       4.883   6.232  16.598  0.00  0.00    +0.000 A 
ATOM      4  N   UNL     1       6.026   6.434  15.911  0.00  0.00    +0.000 N 
ATOM      5  S   UNL     1       4.121   4.697  16.725  0.00  0.00    +0.000 S 
ATOM      6  C   UNL     1       2.879   5.369  17.705  0.00  0.00    +0.000 A 
ATOM      7  H   UNL     1       6.272   7.378  15.638  0.00  0.00    +0.000 HD
ENDROOT
BRANCH   1  11
ATOM      8  C   UNL     1       0.784   9.263  20.456  0.00  0.00    +0.000 A 
ATOM      9  C   UNL     1       1.341   8.076  20.935  0.00  0.00    +0.000 A 
ATOM     10  C   UNL     1       2.141   7.275  20.108  0.00  0.00    +0.000 A 
ATOM     11  C   UNL     1       2.394   7.636  18.780  0.00  0.00    +0.000 A 
ATOM     12  C   UNL     1       1.819   8.825  18.310  0.00  0.00    +0.000 A 
ATOM     13  C   UNL     1       1.029   9.637  19.139  0.00  0.00    +0.000 A 
BRANCH   8  15
ATOM     14  C   UNL     1      -0.108   9.387  22.650  0.00  0.00    +0.000 C 
ATOM     15  O   UNL     1      -0.015   9.933  21.340  0.00  0.00    +0.000 OA
ENDBRANCH   8  15
ENDBRANCH   1  11
BRANCH   4  16
ATOM     16  C   UNL     1       6.991   5.386  15.675  0.00  0.00    +0.000 C 
BRANCH  16  17
ATOM     17  C   UNL     1       6.919   4.874  14.255  0.00  0.00    +0.000 A 
ATOM     18  C   UNL     1       7.775   5.376  13.261  0.00  0.00    +0.000 A 
ATOM     19  C   UNL     1       7.747   4.848  11.968  0.00  0.00    +0.000 A 
ATOM     20  C   UNL     1       6.872   3.809  11.657  0.00  0.00    +0.000 A 
ATOM     21  C   UNL     1       6.022   3.298  12.636  0.00  0.00    +0.000 A 
ATOM     22  C   UNL     1       6.045   3.827  13.928  0.00  0.00    +0.000 A 
ENDBRANCH  16  17
ENDBRANCH   4  16
BRANCH   6  23
ATOM     23  C   UNL     1       1.766   4.469  18.147  0.00  0.00    +0.000 C 
BRANCH  23  24
ATOM     24  C   UNL     1       1.938   3.777  19.489  0.00  0.00    +0.000 A 
ATOM     25  C   UNL     1       0.900   3.608  20.420  0.00  0.00    +0.000 A 
ATOM     26  C   UNL     1       1.104   2.872  21.590  0.00  0.00    +0.000 A 
ATOM     27  C   UNL     1       2.350   2.313  21.854  0.00  0.00    +0.000 A 
ATOM     28  C   UNL     1       3.401   2.505  20.960  0.00  0.00    +0.000 A 
ATOM     29  C   UNL     1       3.195   3.231  19.786  0.00  0.00    +0.000 A 
ENDBRANCH  23  24
ENDBRANCH   6  23
TORSDOF 6
ENDMDL
MODEL 3
REMARK VINA RESULT:      -8.9      0.492      1.062
REMARK  Name = 
REMARK  7 active torsions:
REMARK  status: ('A' for Active; 'I' for Inactive)
REMARK    1  A    between atoms: C_1  and  O_2
REMARK    2  A    between atoms: O_2  and  C_3
REMARK    3  A    between atoms: C_6  and  C_7
REMARK    4  A    between atoms: N_10  and  C_11
REMARK    5  A    between atoms: C_11  and  C_12
REMARK    6  A    between atoms: C_19  and  C_20
REMARK    7  A    between atoms: C_20  and  C_21
REMARK                            x       y       z     vdW  Elec       q    Type
REMARK                         _______ _______ _______ _____ _____    ______ ____
ROOT
ATOM      1  C   UNL     1       3.125   6.608  17.863  0.00  0.00    +0.000 A 
ATOM      2  N   UNL     1       4.230   7.123  17.183  0.00  0.00    +0.000 NA
ATOM      3  C   UNL     1       4.924   6.171  16.608  0.00  0.00    +0.000 A 
ATOM      4  N   UNL     1       6.080   6.407  15.955  0.00  0.00    +0.000 N 
ATOM      5  S   UNL     1       4.210   4.612  16.726  0.00  0.00    +0.000 S 
ATOM      6  C   UNL     1       2.917   5.250  17.661  0.00  0.00    +0.000 A 
ATOM      7  H   UNL     1       6.303   7.356  15.682  0.00  0.00    +0.000 HD
ENDROOT
BRANCH   1  11
ATOM      8  C   UNL     1       0.944   9.387  20.317  0.00  0.00    +0.000 A 
ATOM      9  C   UNL     1       1.180   9.645  18.966  0.00  0.00    +0.000 A 
ATOM     10  C   UNL     1       1.856   8.714  18.165  0.00  0.00    +0.000 A 
ATOM     11  C   UNL     1       2.322   7.508  18.700  0.00  0.00    +0.000 A 
ATOM     12  C   UNL     1       2.087   7.267  20.061  0.00  0.00    +0.000 A 
ATOM     13  C   UNL     1       1.397   8.191  20.862  0.00  0.00    +0.000 A 
BRANCH   8  15
ATOM     14  C   UNL     1      -0.644  11.148  20.281  0.00  0.00    +0.000 C 
ATOM     15  O   UNL     1       0.318  10.389  21.004  0.00  0.00    +0.000 OA
ENDBRANCH   8  15
ENDBRANCH   1  11
BRANCH   4  16
ATOM     16  C   UNL     1       7.087   5.390  15.759  0.00  0.00    +0.000 C 
BRANCH  16  17
ATOM     17  C   UNL     1       7.047   4.833  14.354  0.00  0.00    +0.000 A 
ATOM     18  C   UNL     1       6.173   3.788  14.014  0.00  0.00    +0.000 A 
ATOM     19  C   UNL     1       6.095   3.328  12.697  0.00  0.00    +0.000 A 
ATOM     20  C   UNL     1       6.880   3.913  11.706  0.00  0.00    +0.000 A 
ATOM     21  C   UNL     1       7.747   4.955  12.029  0.00  0.00    +0.000 A 
ATOM     22  C   UNL     1       7.830   5.414  13.345  0.00  0.00    +0.000 A 
ENDBRANCH  16  17
ENDBRANCH   4  16
BRANCH   6  23
ATOM     23  C   UNL     1       1.821   4.316  18.077  0.00  0.00    +0.000 C 
BRANCH  23  24
ATOM     24  C   UNL     1       2.020   3.567  19.383  0.00  0.00    +0.000 A 
ATOM     25  C   UNL     1       3.228   2.956  19.759  0.00  0.00    +0.000 A 
ATOM     26  C   UNL     1       3.371   2.371  21.020  0.00  0.00    +0.000 A 
ATOM     27  C   UNL     1       2.304   2.370  21.912  0.00  0.00    +0.000 A 
ATOM     28  C   UNL     1       1.086   2.937  21.541  0.00  0.00    +0.000 A 
ATOM     29  C   UNL     1       0.947   3.531  20.286  0.00  0.00    +0.000 A 
ENDBRANCH  23  24
ENDBRANCH   6  23
TORSDOF 6
ENDMDL
MODEL 4
REMARK VINA RESULT:      -8.9      0.248      1.308
REMARK  Name = 
REMARK  7 active torsions:
REMARK  status: ('A' for Active; 'I' for Inactive)
REMARK    1  A    between atoms: C_1  and  O_2
REMARK    2  A    between atoms: O_2  and  C_3
REMARK    3  A    between atoms: C_6  and  C_7
REMARK    4  A    between atoms: N_10  and  C_11
REMARK    5  A    between atoms: C_11  and  C_12
REMARK    6  A    between atoms: C_19  and  C_20
REMARK    7  A    between atoms: C_20  and  C_21
REMARK                            x       y       z     vdW  Elec       q    Type
REMARK                         _______ _______ _______ _____ _____    ______ ____
ROOT
ATOM      1  C   UNL     1       3.102   6.658  17.891  0.00  0.00    +0.000 A 
ATOM      2  N   UNL     1       4.206   7.171  17.209  0.00  0.00    +0.000 NA
ATOM      3  C   UNL     1       4.904   6.217  16.643  0.00  0.00    +0.000 A 
ATOM      4  N   UNL     1       6.061   6.451  15.990  0.00  0.00    +0.000 N 
ATOM      5  S   UNL     1       4.196   4.657  16.773  0.00  0.00    +0.000 S 
ATOM      6  C   UNL     1       2.899   5.297  17.700  0.00  0.00    +0.000 A 
ATOM      7  H   UNL     1       6.281   7.399  15.710  0.00  0.00    +0.000 HD
ENDROOT
BRANCH   1  11
ATOM      8  C   UNL     1       0.906   9.450  20.317  0.00  0.00    +0.000 A 
ATOM      9  C   UNL     1       1.133   9.691  18.961  0.00  0.00    +0.000 A 
ATOM     10  C   UNL     1       1.814   8.755  18.171  0.00  0.00    +0.000 A 
ATOM     11  C   UNL     1       2.295   7.561  18.720  0.00  0.00    +0.000 A 
ATOM     12  C   UNL     1       2.068   7.338  20.085  0.00  0.00    +0.000 A 
ATOM     13  C   UNL     1       1.374   8.266  20.877  0.00  0.00    +0.000 A 
BRANCH   8  15
ATOM     14  C   UNL     1      -0.064  10.193  22.350  0.00  0.00    +0.000 C 
ATOM     15  O   UNL     1       0.273  10.456  20.993  0.00  0.00    +0.000 OA
ENDBRANCH   8  15
ENDBRANCH   1  11
BRANCH   4  16
ATOM     16  C   UNL     1       7.072   5.436  15.804  0.00  0.00    +0.000 C 
BRANCH  16  17
ATOM     17  C   UNL     1       7.041   4.873  14.401  0.00  0.00    +0.000 A 
ATOM     18  C   UNL     1       6.162   3.833  14.058  0.00  0.00    +0.000 A 
ATOM     19  C   UNL     1       6.092   3.367  12.743  0.00  0.00    +0.000 A 
ATOM     20  C   UNL     1       6.891   3.941  11.757  0.00  0.00    +0.000 A 
ATOM     21  C   UNL     1       7.763   4.978  12.083  0.00  0.00    +0.000 A 
ATOM     22  C   UNL     1       7.838   5.442  13.397  0.00  0.00    +0.000 A 
ENDBRANCH  16  17
ENDBRANCH   4  16
BRANCH   6  23
ATOM     23  C   UNL     1       1.806   4.364  18.122  0.00  0.00    +0.000 C 
BRANCH  23  24
ATOM     24  C   UNL     1       1.958   3.701  19.481  0.00  0.00    +0.000 A 
ATOM     25  C   UNL     1       0.909   3.562  20.405  0.00  0.00    +0.000 A 
ATOM     26  C   UNL     1       1.095   2.851  21.593  0.00  0.00    +0.000 A 
ATOM     27  C   UNL     1       2.333   2.289  21.883  0.00  0.00    +0.000 A 
ATOM     28  C   UNL     1       3.396   2.452  20.996  0.00  0.00    +0.000 A 
ATOM     29  C   UNL     1       3.208   3.152  19.804  0.00  0.00    +0.000 A 
ENDBRANCH  23  24
ENDBRANCH   6  23
TORSDOF 6
ENDMDL
MODEL 5
REMARK VINA RESULT:      -8.8      0.459      1.022
REMARK  Name = 
REMARK  7 active torsions:
REMARK  status: ('A' for Active; 'I' for Inactive)
REMARK    1  A    between atoms: C_1  and  O_2
REMARK    2  A    between atoms: O_2  and  C_3
REMARK    3  A    between atoms: C_6  and  C_7
REMARK    4  A    between atoms: N_10  and  C_11
REMARK    5  A    between atoms: C_11  and  C_12
REMARK    6  A    between atoms: C_19  and  C_20
REMARK    7  A    between atoms: C_20  and  C_21
REMARK                            x       y       z     vdW  Elec       q    Type
REMARK                         _______ _______ _______ _____ _____    ______ ____
ROOT
ATOM      1  C   UNL     1       3.149   6.719  17.920  0.00  0.00    +0.000 A 
ATOM      2  N   UNL     1       4.253   7.202  17.216  0.00  0.00    +0.000 NA
ATOM      3  C   UNL     1       4.897   6.232  16.614  0.00  0.00    +0.000 A 
ATOM      4  N   UNL     1       6.044   6.435  15.932  0.00  0.00    +0.000 N 
ATOM      5  S   UNL     1       4.133   4.698  16.735  0.00  0.00    +0.000 S 
ATOM      6  C   UNL     1       2.888   5.371  17.711  0.00  0.00    +0.000 A 
ATOM      7  H   UNL     1       6.292   7.379  15.663  0.00  0.00    +0.000 HD
ENDROOT
BRANCH   1  11
ATOM      8  C   UNL     1       0.785   9.264  20.457  0.00  0.00    +0.000 A 
ATOM      9  C   UNL     1       1.328   8.070  20.934  0.00  0.00    +0.000 A 
ATOM     10  C   UNL     1       2.131   7.268  20.110  0.00  0.00    +0.000 A 
ATOM     11  C   UNL     1       2.401   7.636  18.788  0.00  0.00    +0.000 A 
ATOM     12  C   UNL     1       1.841   8.833  18.320  0.00  0.00    +0.000 A 
ATOM     13  C   UNL     1       1.048   9.646  19.146  0.00  0.00    +0.000 A 
BRANCH   8  15
ATOM     14  C   UNL     1       0.109  11.351  21.358  0.00  0.00    +0.000 C 
ATOM     15  O   UNL     1      -0.019   9.934  21.337  0.00  0.00    +0.000 OA
ENDBRANCH   8  15
ENDBRANCH   1  11
BRANCH   4  16
ATOM     16  C   UNL     1       7.009   5.385  15.699  0.00  0.00    +0.000 C 
BRANCH  16  17
ATOM     17  C   UNL     1       6.938   4.872  14.279  0.00  0.00    +0.000 A 
ATOM     18  C   UNL     1       7.781   5.388  13.281  0.00  0.00    +0.000 A 
ATOM     19  C   UNL     1       7.755   4.859  11.988  0.00  0.00    +0.000 A 
ATOM     20  C   UNL     1       6.897   3.806  11.682  0.00  0.00    +0.000 A 
ATOM     21  C   UNL     1       6.060   3.282  12.665  0.00  0.00    +0.000 A 
ATOM     22  C   UNL     1       6.080   3.811  13.956  0.00  0.00    +0.000 A 
ENDBRANCH  16  17
ENDBRANCH   4  16
BRANCH   6  23
ATOM     23  C   UNL     1       1.772   4.472  18.147  0.00  0.00    +0.000 C 
BRANCH  23  24
ATOM     24  C   UNL     1       1.995   3.670  19.417  0.00  0.00    +0.000 A 
ATOM     25  C   UNL     1       3.224   3.090  19.771  0.00  0.00    +0.000 A 
ATOM     26  C   UNL     1       3.385   2.453  21.004  0.00  0.00    +0.000 A 
ATOM     27  C   UNL     1       2.317   2.368  21.889  0.00  0.00    +0.000 A 
ATOM     28  C   UNL     1       1.079   2.903  21.538  0.00  0.00    +0.000 A 
ATOM     29  C   UNL     1       0.920   3.549  20.311  0.00  0.00    +0.000 A 
ENDBRANCH  23  24
ENDBRANCH   6  23
TORSDOF 6
ENDMDL
MODEL 6
REMARK VINA RESULT:      -8.7      0.507      1.695
REMARK  Name = 
REMARK  7 active torsions:
REMARK  status: ('A' for Active; 'I' for Inactive)
REMARK    1  A    between atoms: C_1  and  O_2
REMARK    2  A    between atoms: O_2  and  C_3
REMARK    3  A    between atoms: C_6  and  C_7
REMARK    4  A    between atoms: N_10  and  C_11
REMARK    5  A    between atoms: C_11  and  C_12
REMARK    6  A    between atoms: C_19  and  C_20
REMARK    7  A    between atoms: C_20  and  C_21
REMARK                            x       y       z     vdW  Elec       q    Type
REMARK                         _______ _______ _______ _____ _____    ______ ____
ROOT
ATOM      1  C   UNL     1       3.071   6.679  17.901  0.00  0.00    +0.000 A 
ATOM      2  N   UNL     1       4.163   7.194  17.203  0.00  0.00    +0.000 NA
ATOM      3  C   UNL     1       4.845   6.244  16.611  0.00  0.00    +0.000 A 
ATOM      4  N   UNL     1       5.989   6.481  15.937  0.00  0.00    +0.000 N 
ATOM      5  S   UNL     1       4.132   4.686  16.736  0.00  0.00    +0.000 S 
ATOM      6  C   UNL     1       2.858   5.321  17.698  0.00  0.00    +0.000 A 
ATOM      7  H   UNL     1       6.208   7.431  15.664  0.00  0.00    +0.000 HD
ENDROOT
BRANCH   1  11
ATOM      8  C   UNL     1       0.939   9.450  20.406  0.00  0.00    +0.000 A 
ATOM      9  C   UNL     1       1.148   9.712  19.051  0.00  0.00    +0.000 A 
ATOM     10  C   UNL     1       1.808   8.783  18.235  0.00  0.00    +0.000 A 
ATOM     11  C   UNL     1       2.285   7.575  18.757  0.00  0.00    +0.000 A 
ATOM     12  C   UNL     1       2.077   7.331  20.121  0.00  0.00    +0.000 A 
ATOM     13  C   UNL     1       1.403   8.252  20.939  0.00  0.00    +0.000 A 
BRANCH   8  15
ATOM     14  C   UNL     1       0.759  11.777  20.830  0.00  0.00    +0.000 C 
ATOM     15  O   UNL     1       0.326  10.450  21.109  0.00  0.00    +0.000 OA
ENDBRANCH   8  15
ENDBRANCH   1  11
BRANCH   4  16
ATOM     16  C   UNL     1       6.991   5.464  15.718  0.00  0.00    +0.000 C 
BRANCH  16  17
ATOM     17  C   UNL     1       6.934   4.924  14.308  0.00  0.00    +0.000 A 
ATOM     18  C   UNL     1       7.769   5.438  13.302  0.00  0.00    +0.000 A 
ATOM     19  C   UNL     1       7.757   4.886  12.019  0.00  0.00    +0.000 A 
ATOM     20  C   UNL     1       6.920   3.810  11.730  0.00  0.00    +0.000 A 
ATOM     21  C   UNL     1       6.092   3.287  12.721  0.00  0.00    +0.000 A 
ATOM     22  C   UNL     1       6.098   3.839  14.003  0.00  0.00    +0.000 A 
ENDBRANCH  16  17
ENDBRANCH   4  16
BRANCH   6  23
ATOM     23  C   UNL     1       1.769   4.387  18.131  0.00  0.00    +0.000 C 
BRANCH  23  24
ATOM     24  C   UNL     1       1.941   3.715  19.482  0.00  0.00    +0.000 A 
ATOM     25  C   UNL     1       0.900   3.543  20.409  0.00  0.00    +0.000 A 
ATOM     26  C   UNL     1       1.106   2.824  21.589  0.00  0.00    +0.000 A 
ATOM     27  C   UNL     1       2.358   2.288  21.869  0.00  0.00    +0.000 A 
ATOM     28  C   UNL     1       3.413   2.484  20.980  0.00  0.00    +0.000 A 
ATOM     29  C   UNL     1       3.205   3.192  19.795  0.00  0.00    +0.000 A 
ENDBRANCH  23  24
ENDBRANCH   6  23
TORSDOF 6
ENDMDL
MODEL 7
REMARK VINA RESULT:      -8.6      3.350      7.580
REMARK  Name = 
REMARK  7 active torsions:
REMARK  status: ('A' for Active; 'I' for Inactive)
REMARK    1  A    between atoms: C_1  and  O_2
REMARK    2  A    between atoms: O_2  and  C_3
REMARK    3  A    between atoms: C_6  and  C_7
REMARK    4  A    between atoms: N_10  and  C_11
REMARK    5  A    between atoms: C_11  and  C_12
REMARK    6  A    between atoms: C_19  and  C_20
REMARK    7  A    between atoms: C_20  and  C_21
REMARK                            x       y       z     vdW  Elec       q    Type
REMARK                         _______ _______ _______ _____ _____    ______ ____
ROOT
ATOM      1  C   UNL     1       2.659   7.284  18.674  0.00  0.00    +0.000 A 
ATOM      2  N   UNL     1       2.219   8.516  18.187  0.00  0.00    +0.000 NA
ATOM      3  C   UNL     1       1.358   9.073  19.003  0.00  0.00    +0.000 A 
ATOM      4  N   UNL     1       0.730  10.232  18.717  0.00  0.00    +0.000 N 
ATOM      5  S   UNL     1       1.134   8.220  20.478  0.00  0.00    +0.000 S 
ATOM      6  C   UNL     1       2.219   6.992  19.959  0.00  0.00    +0.000 A 
ATOM      7  H   UNL     1       1.101  10.820  17.981  0.00  0.00    +0.000 HD
ENDROOT
BRANCH   1  11
ATOM      8  C   UNL     1       5.168   4.679  16.346  0.00  0.00    +0.000 A 
ATOM      9  C   UNL     1       3.884   4.291  16.734  0.00  0.00    +0.000 A 
ATOM     10  C   UNL     1       3.060   5.164  17.458  0.00  0.00    +0.000 A 
ATOM     11  C   UNL     1       3.504   6.441  17.820  0.00  0.00    +0.000 A 
ATOM     12  C   UNL     1       4.798   6.812  17.431  0.00  0.00    +0.000 A 
ATOM     13  C   UNL     1       5.622   5.946  16.694  0.00  0.00    +0.000 A 
BRANCH   8  15
ATOM     14  C   UNL     1       6.295   4.042  14.359  0.00  0.00    +0.000 C 
ATOM     15  O   UNL     1       5.893   3.726  15.686  0.00  0.00    +0.000 OA
ENDBRANCH   8  15
ENDBRANCH   1  11
BRANCH   4  16
ATOM     16  C   UNL     1      -0.533  10.602  19.311  0.00  0.00    +0.000 C 
BRANCH  16  17
ATOM     17  C   UNL     1      -1.633  10.675  18.277  0.00  0.00    +0.000 A 
ATOM     18  C   UNL     1      -1.603   9.866  17.130  0.00  0.00    +0.000 A 
ATOM     19  C   UNL     1      -2.657   9.891  16.215  0.00  0.00    +0.000 A 
ATOM     20  C   UNL     1      -3.756  10.717  16.440  0.00  0.00    +0.000 A 
ATOM     21  C   UNL     1      -3.802  11.521  17.577  0.00  0.00    +0.000 A 
ATOM     22  C   UNL     1      -2.747  11.501  18.491  0.00  0.00    +0.000 A 
ENDBRANCH  16  17
ENDBRANCH   4  16
BRANCH   6  23
ATOM     23  C   UNL     1       2.525   5.875  20.909  0.00  0.00    +0.000 C 
BRANCH  23  24
ATOM     24  C   UNL     1       2.195   4.468  20.440  0.00  0.00    +0.000 A 
ATOM     25  C   UNL     1       0.909   4.052  20.059  0.00  0.00    +0.000 A 
ATOM     26  C   UNL     1       0.697   2.772  19.540  0.00  0.00    +0.000 A 
ATOM     27  C   UNL     1       1.761   1.886  19.415  0.00  0.00    +0.000 A 
ATOM     28  C   UNL     1       3.036   2.268  19.825  0.00  0.00    +0.000 A 
ATOM     29  C   UNL     1       3.250   3.551  20.333  0.00  0.00    +0.000 A 
ENDBRANCH  23  24
ENDBRANCH   6  23
TORSDOF 6
ENDMDL
MODEL 8
REMARK VINA RESULT:      -8.5      3.454      7.565
REMARK  Name = 
REMARK  7 active torsions:
REMARK  status: ('A' for Active; 'I' for Inactive)
REMARK    1  A    between atoms: C_1  and  O_2
REMARK    2  A    between atoms: O_2  and  C_3
REMARK    3  A    between atoms: C_6  and  C_7
REMARK    4  A    between atoms: N_10  and  C_11
REMARK    5  A    between atoms: C_11  and  C_12
REMARK    6  A    between atoms: C_19  and  C_20
REMARK    7  A    between atoms: C_20  and  C_21
REMARK                            x       y       z     vdW  Elec       q    Type
REMARK                         _______ _______ _______ _____ _____    ______ ____
ROOT
ATOM      1  C   UNL     1       2.517   7.446  18.568  0.00  0.00    +0.000 A 
ATOM      2  N   UNL     1       2.036   8.601  17.949  0.00  0.00    +0.000 NA
ATOM      3  C   UNL     1       1.175   9.229  18.713  0.00  0.00    +0.000 A 
ATOM      4  N   UNL     1       0.512  10.331  18.306  0.00  0.00    +0.000 N 
ATOM      5  S   UNL     1       1.001   8.550  20.281  0.00  0.00    +0.000 S 
ATOM      6  C   UNL     1       2.108   7.296  19.887  0.00  0.00    +0.000 A 
ATOM      7  H   UNL     1       0.854  10.838  17.499  0.00  0.00    +0.000 HD
ENDROOT
BRANCH   1  11
ATOM      8  C   UNL     1       4.938   4.858  16.131  0.00  0.00    +0.000 A 
ATOM      9  C   UNL     1       5.268   6.202  16.308  0.00  0.00    +0.000 A 
ATOM     10  C   UNL     1       4.495   7.027  17.137  0.00  0.00    +0.000 A 
ATOM     11  C   UNL     1       3.368   6.529  17.800  0.00  0.00    +0.000 A 
ATOM     12  C   UNL     1       3.044   5.179  17.605  0.00  0.00    +0.000 A 
ATOM     13  C   UNL     1       3.823   4.347  16.786  0.00  0.00    +0.000 A 
BRANCH   8  15
ATOM     14  C   UNL     1       7.003   4.749  14.969  0.00  0.00    +0.000 C 
ATOM     15  O   UNL     1       5.738   4.168  15.263  0.00  0.00    +0.000 OA
ENDBRANCH   8  15
ENDBRANCH   1  11
BRANCH   4  16
ATOM     16  C   UNL     1      -0.749  10.739  18.880  0.00  0.00    +0.000 C 
BRANCH  16  17
ATOM     17  C   UNL     1      -1.868  10.672  17.865  0.00  0.00    +0.000 A 
ATOM     18  C   UNL     1      -3.004  11.487  17.985  0.00  0.00    +0.000 A 
ATOM     19  C   UNL     1      -3.999  11.468  17.005  0.00  0.00    +0.000 A 
ATOM     20  C   UNL     1      -3.865  10.641  15.892  0.00  0.00    +0.000 A 
ATOM     21  C   UNL     1      -2.739   9.832  15.757  0.00  0.00    +0.000 A 
ATOM     22  C   UNL     1      -1.745   9.846  16.737  0.00  0.00    +0.000 A 
ENDBRANCH  16  17
ENDBRANCH   4  16
BRANCH   6  23
ATOM     23  C   UNL     1       2.460   6.306  20.954  0.00  0.00    +0.000 C 
BRANCH  23  24
ATOM     24  C   UNL     1       2.157   4.846  20.660  0.00  0.00    +0.000 A 
ATOM     25  C   UNL     1       0.883   4.366  20.314  0.00  0.00    +0.000 A 
ATOM     26  C   UNL     1       0.698   3.028  19.957  0.00  0.00    +0.000 A 
ATOM     27  C   UNL     1       1.775   2.149  19.962  0.00  0.00    +0.000 A 
ATOM     28  C   UNL     1       3.038   2.600  20.341  0.00  0.00    +0.000 A 
ATOM     29  C   UNL     1       3.226   3.939  20.687  0.00  0.00    +0.000 A 
ENDBRANCH  23  24
ENDBRANCH   6  23
TORSDOF 6
ENDMDL
MODEL 9
REMARK VINA RESULT:      -8.4      0.916      1.050
REMARK  Name = 
REMARK  7 active torsions:
REMARK  status: ('A' for Active; 'I' for Inactive)
REMARK    1  A    between atoms: C_1  and  O_2
REMARK    2  A    between atoms: O_2  and  C_3
REMARK    3  A    between atoms: C_6  and  C_7
REMARK    4  A    between atoms: N_10  and  C_11
REMARK    5  A    between atoms: C_11  and  C_12
REMARK    6  A    between atoms: C_19  and  C_20
REMARK    7  A    between atoms: C_20  and  C_21
REMARK                            x       y       z     vdW  Elec       q    Type
REMARK                         _______ _______ _______ _____ _____    ______ ____
ROOT
ATOM      1  C   UNL     1       3.005   7.162  17.900  0.00  0.00    +0.000 A 
ATOM      2  N   UNL     1       4.163   7.530  17.215  0.00  0.00    +0.000 NA
ATOM      3  C   UNL     1       4.788   6.484  16.733  0.00  0.00    +0.000 A 
ATOM      4  N   UNL     1       5.974   6.573  16.097  0.00  0.00    +0.000 N 
ATOM      5  S   UNL     1       3.944   5.002  16.947  0.00  0.00    +0.000 S 
ATOM      6  C   UNL     1       2.688   5.813  17.795  0.00  0.00    +0.000 A 
ATOM      7  H   UNL     1       6.281   7.477  15.760  0.00  0.00    +0.000 HD
ENDROOT
BRANCH   1  11
ATOM      8  C   UNL     1       0.650  10.023  20.084  0.00  0.00    +0.000 A 
ATOM      9  C   UNL     1       1.129   8.863  20.694  0.00  0.00    +0.000 A 
ATOM     10  C   UNL     1       1.930   7.958  19.985  0.00  0.00    +0.000 A 
ATOM     11  C   UNL     1       2.261   8.185  18.644  0.00  0.00    +0.000 A 
ATOM     12  C   UNL     1       1.765   9.350  18.042  0.00  0.00    +0.000 A 
ATOM     13  C   UNL     1       0.975  10.266  18.754  0.00  0.00    +0.000 A 
BRANCH   8  15
ATOM     14  C   UNL     1      -1.203  11.499  20.193  0.00  0.00    +0.000 C 
ATOM     15  O   UNL     1      -0.158  10.804  20.862  0.00  0.00    +0.000 OA
ENDBRANCH   8  15
ENDBRANCH   1  11
BRANCH   4  16
ATOM     16  C   UNL     1       6.896   5.465  16.007  0.00  0.00    +0.000 C 
BRANCH  16  17
ATOM     17  C   UNL     1       6.946   4.898  14.606  0.00  0.00    +0.000 A 
ATOM     18  C   UNL     1       6.110   3.837  14.225  0.00  0.00    +0.000 A 
ATOM     19  C   UNL     1       6.114   3.366  12.910  0.00  0.00    +0.000 A 
ATOM     20  C   UNL     1       6.946   3.956  11.961  0.00  0.00    +0.000 A 
ATOM     21  C   UNL     1       7.777   5.014  12.325  0.00  0.00    +0.000 A 
ATOM     22  C   UNL     1       7.777   5.484  13.639  0.00  0.00    +0.000 A 
ENDBRANCH  16  17
ENDBRANCH   4  16
BRANCH   6  23
ATOM     23  C   UNL     1       1.510   5.007  18.248  0.00  0.00    +0.000 C 
BRANCH  23  24
ATOM     24  C   UNL     1       1.727   4.086  19.436  0.00  0.00    +0.000 A 
ATOM     25  C   UNL     1       2.011   4.537  20.735  0.00  0.00    +0.000 A 
ATOM     26  C   UNL     1       2.097   3.638  21.801  0.00  0.00    +0.000 A 
ATOM     27  C   UNL     1       1.924   2.276  21.579  0.00  0.00    +0.000 A 
ATOM     28  C   UNL     1       1.681   1.807  20.290  0.00  0.00    +0.000 A 
ATOM     29  C   UNL     1       1.583   2.706  19.227  0.00  0.00    +0.000 A 
ENDBRANCH  23  24
ENDBRANCH   6  23
TORSDOF 6
ENDMDL
