MODEL 1
REMARK VINA RESULT:      -7.3      0.000      0.000
REMARK  Name = 
REMARK  5 active torsions:
REMARK  status: ('A' for Active; 'I' for Inactive)
REMARK    1  A    between atoms: C_1  and  N_2
REMARK    2  A    between atoms: N_2  and  C_3
REMARK    3  A    between atoms: C_4  and  C_6
REMARK    4  A    between atoms: N_8  and  C_9
REMARK    5  A    between atoms: C_19  and  N_20
REMARK                            x       y       z     vdW  Elec       q    Type
REMARK                         _______ _______ _______ _____ _____    ______ ____
ROOT
ATOM      1  C   UNL     1       4.625   5.228  18.709  0.00  0.00    +0.000 A 
ATOM      2  N   UNL     1       3.868   6.294  18.654  0.00  0.00    +0.000 NA
ATOM      3  N   UNL     1       2.693   6.409  19.417  0.00  0.00    +0.000 N 
ATOM      4  C   UNL     1       2.161   5.370  20.225  0.00  0.00    +0.000 A 
ATOM      5  O   UNL     1       1.086   5.410  20.825  0.00  0.00    +0.000 OA
ATOM      6  C   UNL     1       2.978   4.175  20.252  0.00  0.00    +0.000 A 
ATOM      7  C   UNL     1       2.690   3.012  20.940  0.00  0.00    +0.000 A 
ATOM      8  S   UNL     1       3.897   1.829  20.690  0.00  0.00    +0.000 S 
ATOM      9  C   UNL     1       4.805   2.874  19.684  0.00  0.00    +0.000 A 
ATOM     10  C   UNL     1       4.192   4.099  19.520  0.00  0.00    +0.000 A 
ENDROOT
BRANCH   3  11
ATOM     11  C   UNL     1       2.056   7.693  19.322  0.00  0.00    +0.000 A 
ATOM     12  C   UNL     1       1.458   8.306  20.435  0.00  0.00    +0.000 A 
ATOM     13  C   UNL     1       0.800   9.535  20.328  0.00  0.00    +0.000 A 
ATOM     14  C   UNL     1       0.736  10.178  19.099  0.00  0.00    +0.000 A 
ATOM     15 CL   UNL     1      -0.103  11.672  18.959  0.00  0.00    +0.000 Cl
ATOM     16  C   UNL     1       1.347   9.612  17.984  0.00  0.00    +0.000 A 
ATOM     17  C   UNL     1       2.013   8.384  18.099  0.00  0.00    +0.000 A 
ENDBRANCH   3  11
BRANCH   1  21
ATOM     18  C   UNL     1       7.198   4.756  15.863  0.00  0.00    +0.000 C 
ATOM     19  N   UNL     1       5.955   4.655  16.609  0.00  0.00    +0.000 N 
ATOM     20  C   UNL     1       4.824   4.005  15.967  0.00  0.00    +0.000 C 
ATOM     21  C   UNL     1       5.937   5.196  17.899  0.00  0.00    +0.000 C 
ATOM     22  O   UNL     1       6.939   5.691  18.412  0.00  0.00    +0.000 OA
ENDBRANCH   1  21
BRANCH   7  23
ATOM     23  N   UNL     1       1.620   2.762  21.723  0.00  0.00    +0.000 N 
ATOM     24  H   UNL     1       1.451   1.806  22.045  0.00  0.00    +0.000 HD
ATOM     25  H   UNL     1       1.237   3.485  22.321  0.00  0.00    +0.000 HD
ENDBRANCH   7  23
TORSDOF 3
ENDMDL
MODEL 2
REMARK VINA RESULT:      -7.2      0.972      1.205
REMARK  Name = 
REMARK  5 active torsions:
REMARK  status: ('A' for Active; 'I' for Inactive)
REMARK    1  A    between atoms: C_1  and  N_2
REMARK    2  A    between atoms: N_2  and  C_3
REMARK    3  A    between atoms: C_4  and  C_6
REMARK    4  A    between atoms: N_8  and  C_9
REMARK    5  A    between atoms: C_19  and  N_20
REMARK                            x       y       z     vdW  Elec       q    Type
REMARK                         _______ _______ _______ _____ _____    ______ ____
ROOT
ATOM      1  C   UNL     1       4.149   5.099  17.982  0.00  0.00    +0.000 A 
ATOM      2  N   UNL     1       3.476   6.220  18.043  0.00  0.00    +0.000 NA
ATOM      3  N   UNL     1       2.613   6.509  19.113  0.00  0.00    +0.000 N 
ATOM      4  C   UNL     1       2.304   5.598  20.158  0.00  0.00    +0.000 A 
ATOM      5  O   UNL     1       1.477   5.789  21.051  0.00  0.00    +0.000 OA
ATOM      6  C   UNL     1       3.016   4.341  20.065  0.00  0.00    +0.000 A 
ATOM      7  C   UNL     1       2.893   3.275  20.936  0.00  0.00    +0.000 A 
ATOM      8  S   UNL     1       3.888   1.970  20.460  0.00  0.00    +0.000 S 
ATOM      9  C   UNL     1       4.491   2.835  19.112  0.00  0.00    +0.000 A 
ATOM     10  C   UNL     1       3.930   4.091  19.008  0.00  0.00    +0.000 A 
ENDROOT
BRANCH   3  11
ATOM     11  C   UNL     1       2.054   7.831  19.075  0.00  0.00    +0.000 A 
ATOM     12  C   UNL     1       1.458   8.415  20.205  0.00  0.00    +0.000 A 
ATOM     13  C   UNL     1       0.875   9.685  20.151  0.00  0.00    +0.000 A 
ATOM     14  C   UNL     1       0.886  10.399  18.960  0.00  0.00    +0.000 A 
ATOM     15 CL   UNL     1       0.140  11.946  18.885  0.00  0.00    +0.000 Cl
ATOM     16  C   UNL     1       1.498   9.861  17.832  0.00  0.00    +0.000 A 
ATOM     17  C   UNL     1       2.089   8.591  17.893  0.00  0.00    +0.000 A 
ENDBRANCH   3  11
BRANCH   1  21
ATOM     18  C   UNL     1       7.376   4.850  15.868  0.00  0.00    +0.000 C 
ATOM     19  N   UNL     1       6.489   5.186  16.969  0.00  0.00    +0.000 N 
ATOM     20  C   UNL     1       7.068   5.813  18.145  0.00  0.00    +0.000 C 
ATOM     21  C   UNL     1       5.133   4.877  16.815  0.00  0.00    +0.000 C 
ATOM     22  O   UNL     1       4.689   4.391  15.776  0.00  0.00    +0.000 OA
ENDBRANCH   1  21
BRANCH   7  23
ATOM     23  N   UNL     1       2.113   3.193  22.034  0.00  0.00    +0.000 N 
ATOM     24  H   UNL     1       1.097   3.231  21.927  0.00  0.00    +0.000 HD
ATOM     25  H   UNL     1       2.436   2.704  22.862  0.00  0.00    +0.000 HD
ENDBRANCH   7  23
TORSDOF 3
ENDMDL
MODEL 3
REMARK VINA RESULT:      -7.2      0.074      1.006
REMARK  Name = 
REMARK  5 active torsions:
REMARK  status: ('A' for Active; 'I' for Inactive)
REMARK    1  A    between atoms: C_1  and  N_2
REMARK    2  A    between atoms: N_2  and  C_3
REMARK    3  A    between atoms: C_4  and  C_6
REMARK    4  A    between atoms: N_8  and  C_9
REMARK    5  A    between atoms: C_19  and  N_20
REMARK                            x       y       z     vdW  Elec       q    Type
REMARK                         _______ _______ _______ _____ _____    ______ ____
ROOT
ATOM      1  C   UNL     1       4.627   5.216  18.716  0.00  0.00    +0.000 A 
ATOM      2  N   UNL     1       3.864   6.277  18.655  0.00  0.00    +0.000 NA
ATOM      3  N   UNL     1       2.688   6.389  19.416  0.00  0.00    +0.000 N 
ATOM      4  C   UNL     1       2.160   5.351  20.227  0.00  0.00    +0.000 A 
ATOM      5  O   UNL     1       1.083   5.387  20.825  0.00  0.00    +0.000 OA
ATOM      6  C   UNL     1       2.983   4.160  20.259  0.00  0.00    +0.000 A 
ATOM      7  C   UNL     1       2.700   2.998  20.952  0.00  0.00    +0.000 A 
ATOM      8  S   UNL     1       3.913   1.820  20.708  0.00  0.00    +0.000 S 
ATOM      9  C   UNL     1       4.818   2.866  19.700  0.00  0.00    +0.000 A 
ATOM     10  C   UNL     1       4.199   4.087  19.530  0.00  0.00    +0.000 A 
ENDROOT
BRANCH   3  11
ATOM     11  C   UNL     1       2.044   7.669  19.314  0.00  0.00    +0.000 A 
ATOM     12  C   UNL     1       1.971   8.365  18.096  0.00  0.00    +0.000 A 
ATOM     13  C   UNL     1       1.383   9.631  18.011  0.00  0.00    +0.000 A 
ATOM     14  C   UNL     1       0.848  10.220  19.149  0.00  0.00    +0.000 A 
ATOM     15 CL   UNL     1       0.155  11.791  19.051  0.00  0.00    +0.000 Cl
ATOM     16  C   UNL     1       0.875   9.542  20.363  0.00  0.00    +0.000 A 
ATOM     17  C   UNL     1       1.458   8.270  20.442  0.00  0.00    +0.000 A 
ENDBRANCH   3  11
BRANCH   1  21
ATOM     18  C   UNL     1       7.204   4.757  15.871  0.00  0.00    +0.000 C 
ATOM     19  N   UNL     1       5.960   4.652  16.615  0.00  0.00    +0.000 N 
ATOM     20  C   UNL     1       4.830   4.006  15.967  0.00  0.00    +0.000 C 
ATOM     21  C   UNL     1       5.940   5.187  17.907  0.00  0.00    +0.000 C 
ATOM     22  O   UNL     1       6.942   5.679  18.425  0.00  0.00    +0.000 OA
ENDBRANCH   1  21
BRANCH   7  23
ATOM     23  N   UNL     1       1.630   2.745  21.735  0.00  0.00    +0.000 N 
ATOM     24  H   UNL     1       1.188   1.823  21.693  0.00  0.00    +0.000 HD
ATOM     25  H   UNL     1       1.504   3.237  22.612  0.00  0.00    +0.000 HD
ENDBRANCH   7  23
TORSDOF 3
ENDMDL
MODEL 4
REMARK VINA RESULT:      -7.2      0.990      1.578
REMARK  Name = 
REMARK  5 active torsions:
REMARK  status: ('A' for Active; 'I' for Inactive)
REMARK    1  A    between atoms: C_1  and  N_2
REMARK    2  A    between atoms: N_2  and  C_3
REMARK    3  A    between atoms: C_4  and  C_6
REMARK    4  A    between atoms: N_8  and  C_9
REMARK    5  A    between atoms: C_19  and  N_20
REMARK                            x       y       z     vdW  Elec       q    Type
REMARK                         _______ _______ _______ _____ _____    ______ ____
ROOT
ATOM      1  C   UNL     1       4.161   5.096  17.959  0.00  0.00    +0.000 A 
ATOM      2  N   UNL     1       3.490   6.219  18.014  0.00  0.00    +0.000 NA
ATOM      3  N   UNL     1       2.627   6.514  19.083  0.00  0.00    +0.000 N 
ATOM      4  C   UNL     1       2.315   5.609  20.131  0.00  0.00    +0.000 A 
ATOM      5  O   UNL     1       1.489   5.806  21.023  0.00  0.00    +0.000 OA
ATOM      6  C   UNL     1       3.025   4.350  20.045  0.00  0.00    +0.000 A 
ATOM      7  C   UNL     1       2.899   3.288  20.920  0.00  0.00    +0.000 A 
ATOM      8  S   UNL     1       3.891   1.979  20.452  0.00  0.00    +0.000 S 
ATOM      9  C   UNL     1       4.497   2.836  19.100  0.00  0.00    +0.000 A 
ATOM     10  C   UNL     1       3.939   4.093  18.990  0.00  0.00    +0.000 A 
ENDROOT
BRANCH   3  11
ATOM     11  C   UNL     1       2.070   7.838  19.037  0.00  0.00    +0.000 A 
ATOM     12  C   UNL     1       2.113   8.618  17.870  0.00  0.00    +0.000 A 
ATOM     13  C   UNL     1       1.611   9.923  17.843  0.00  0.00    +0.000 A 
ATOM     14  C   UNL     1       1.047  10.467  18.989  0.00  0.00    +0.000 A 
ATOM     15 CL   UNL     1       0.460  12.083  18.966  0.00  0.00    +0.000 Cl
ATOM     16  C   UNL     1       0.960   9.708  20.151  0.00  0.00    +0.000 A 
ATOM     17  C   UNL     1       1.457   8.398  20.171  0.00  0.00    +0.000 A 
ENDBRANCH   3  11
BRANCH   1  21
ATOM     18  C   UNL     1       7.389   4.826  15.849  0.00  0.00    +0.000 C 
ATOM     19  N   UNL     1       6.502   5.170  16.948  0.00  0.00    +0.000 N 
ATOM     20  C   UNL     1       7.083   5.797  18.123  0.00  0.00    +0.000 C 
ATOM     21  C   UNL     1       5.145   4.866  16.794  0.00  0.00    +0.000 C 
ATOM     22  O   UNL     1       4.699   4.379  15.756  0.00  0.00    +0.000 OA
ENDBRANCH   1  21
BRANCH   7  23
ATOM     23  N   UNL     1       2.118   3.213  22.019  0.00  0.00    +0.000 N 
ATOM     24  H   UNL     1       2.493   3.522  22.919  0.00  0.00    +0.000 HD
ATOM     25  H   UNL     1       1.109   3.264  21.939  0.00  0.00    +0.000 HD
ENDBRANCH   7  23
TORSDOF 3
ENDMDL
MODEL 5
REMARK VINA RESULT:      -6.9      1.542      1.778
REMARK  Name = 
REMARK  5 active torsions:
REMARK  status: ('A' for Active; 'I' for Inactive)
REMARK    1  A    between atoms: C_1  and  N_2
REMARK    2  A    between atoms: N_2  and  C_3
REMARK    3  A    between atoms: C_4  and  C_6
REMARK    4  A    between atoms: N_8  and  C_9
REMARK    5  A    between atoms: C_19  and  N_20
REMARK                            x       y       z     vdW  Elec       q    Type
REMARK                         _______ _______ _______ _____ _____    ______ ____
ROOT
ATOM      1  C   UNL     1       4.034   5.752  18.007  0.00  0.00    +0.000 A 
ATOM      2  N   UNL     1       3.360   6.749  18.520  0.00  0.00    +0.000 NA
ATOM      3  N   UNL     1       2.336   6.547  19.460  0.00  0.00    +0.000 N 
ATOM      4  C   UNL     1       1.864   5.270  19.864  0.00  0.00    +0.000 A 
ATOM      5  O   UNL     1       0.906   5.065  20.610  0.00  0.00    +0.000 OA
ATOM      6  C   UNL     1       2.583   4.166  19.263  0.00  0.00    +0.000 A 
ATOM      7  C   UNL     1       2.323   2.824  19.466  0.00  0.00    +0.000 A 
ATOM      8  S   UNL     1       3.381   1.843  18.552  0.00  0.00    +0.000 S 
ATOM      9  C   UNL     1       4.191   3.205  17.907  0.00  0.00    +0.000 A 
ATOM     10  C   UNL     1       3.654   4.392  18.359  0.00  0.00    +0.000 A 
ENDROOT
BRANCH   3  11
ATOM     11  C   UNL     1       1.790   7.759  20.003  0.00  0.00    +0.000 A 
ATOM     12  C   UNL     1       1.563   7.916  21.380  0.00  0.00    +0.000 A 
ATOM     13  C   UNL     1       0.990   9.082  21.899  0.00  0.00    +0.000 A 
ATOM     14  C   UNL     1       0.640  10.118  21.043  0.00  0.00    +0.000 A 
ATOM     15 CL   UNL     1      -0.096  11.537  21.677  0.00  0.00    +0.000 Cl
ATOM     16  C   UNL     1       0.883  10.005  19.678  0.00  0.00    +0.000 A 
ATOM     17  C   UNL     1       1.466   8.839  19.164  0.00  0.00    +0.000 A 
ENDBRANCH   3  11
BRANCH   1  21
ATOM     18  C   UNL     1       7.560   6.164  16.476  0.00  0.00    +0.000 C 
ATOM     19  N   UNL     1       6.519   5.978  17.473  0.00  0.00    +0.000 N 
ATOM     20  C   UNL     1       6.924   5.729  18.846  0.00  0.00    +0.000 C 
ATOM     21  C   UNL     1       5.192   6.050  17.033  0.00  0.00    +0.000 C 
ATOM     22  O   UNL     1       4.905   6.313  15.866  0.00  0.00    +0.000 OA
ENDBRANCH   1  21
BRANCH   7  23
ATOM     23  N   UNL     1       1.377   2.279  20.260  0.00  0.00    +0.000 N 
ATOM     24  H   UNL     1       1.238   2.655  21.201  0.00  0.00    +0.000 HD
ATOM     25  H   UNL     1       0.562   1.828  19.858  0.00  0.00    +0.000 HD
ENDBRANCH   7  23
TORSDOF 3
ENDMDL
MODEL 6
REMARK VINA RESULT:      -6.8      1.498      1.970
REMARK  Name = 
REMARK  5 active torsions:
REMARK  status: ('A' for Active; 'I' for Inactive)
REMARK    1  A    between atoms: C_1  and  N_2
REMARK    2  A    between atoms: N_2  and  C_3
REMARK    3  A    between atoms: C_4  and  C_6
REMARK    4  A    between atoms: N_8  and  C_9
REMARK    5  A    between atoms: C_19  and  N_20
REMARK                            x       y       z     vdW  Elec       q    Type
REMARK                         _______ _______ _______ _____ _____    ______ ____
ROOT
ATOM      1  C   UNL     1       4.050   5.754  18.001  0.00  0.00    +0.000 A 
ATOM      2  N   UNL     1       3.357   6.758  18.474  0.00  0.00    +0.000 NA
ATOM      3  N   UNL     1       2.333   6.572  19.418  0.00  0.00    +0.000 N 
ATOM      4  C   UNL     1       1.882   5.303  19.866  0.00  0.00    +0.000 A 
ATOM      5  O   UNL     1       0.923   5.109  20.616  0.00  0.00    +0.000 OA
ATOM      6  C   UNL     1       2.622   4.190  19.309  0.00  0.00    +0.000 A 
ATOM      7  C   UNL     1       2.384   2.852  19.561  0.00  0.00    +0.000 A 
ATOM      8  S   UNL     1       3.463   1.857  18.688  0.00  0.00    +0.000 S 
ATOM      9  C   UNL     1       4.252   3.208  17.995  0.00  0.00    +0.000 A 
ATOM     10  C   UNL     1       3.693   4.401  18.402  0.00  0.00    +0.000 A 
ENDROOT
BRANCH   3  11
ATOM     11  C   UNL     1       1.763   7.794  19.913  0.00  0.00    +0.000 A 
ATOM     12  C   UNL     1       1.452   8.864  19.057  0.00  0.00    +0.000 A 
ATOM     13  C   UNL     1       0.940  10.069  19.549  0.00  0.00    +0.000 A 
ATOM     14  C   UNL     1       0.722  10.219  20.912  0.00  0.00    +0.000 A 
ATOM     15 CL   UNL     1       0.124  11.712  21.521  0.00  0.00    +0.000 Cl
ATOM     16  C   UNL     1       0.989   9.166  21.781  0.00  0.00    +0.000 A 
ATOM     17  C   UNL     1       1.494   7.957  21.282  0.00  0.00    +0.000 A 
ENDBRANCH   3  11
BRANCH   1  21
ATOM     18  C   UNL     1       7.575   6.152  16.463  0.00  0.00    +0.000 C 
ATOM     19  N   UNL     1       6.534   5.983  17.463  0.00  0.00    +0.000 N 
ATOM     20  C   UNL     1       6.940   5.769  18.842  0.00  0.00    +0.000 C 
ATOM     21  C   UNL     1       5.207   6.036  17.021  0.00  0.00    +0.000 C 
ATOM     22  O   UNL     1       4.920   6.270  15.848  0.00  0.00    +0.000 OA
ENDBRANCH   1  21
BRANCH   7  23
ATOM     23  N   UNL     1       1.444   2.320  20.371  0.00  0.00    +0.000 N 
ATOM     24  H   UNL     1       1.438   1.310  20.530  0.00  0.00    +0.000 HD
ATOM     25  H   UNL     1       1.033   2.870  21.116  0.00  0.00    +0.000 HD
ENDBRANCH   7  23
TORSDOF 3
ENDMDL
MODEL 7
REMARK VINA RESULT:      -6.5      1.297      1.395
REMARK  Name = 
REMARK  5 active torsions:
REMARK  status: ('A' for Active; 'I' for Inactive)
REMARK    1  A    between atoms: C_1  and  N_2
REMARK    2  A    between atoms: N_2  and  C_3
REMARK    3  A    between atoms: C_4  and  C_6
REMARK    4  A    between atoms: N_8  and  C_9
REMARK    5  A    between atoms: C_19  and  N_20
REMARK                            x       y       z     vdW  Elec       q    Type
REMARK                         _______ _______ _______ _____ _____    ______ ____
ROOT
ATOM      1  C   UNL     1       4.350   5.483  19.086  0.00  0.00    +0.000 A 
ATOM      2  N   UNL     1       3.660   6.560  19.362  0.00  0.00    +0.000 NA
ATOM      3  N   UNL     1       2.352   6.492  19.872  0.00  0.00    +0.000 N 
ATOM      4  C   UNL     1       1.621   5.286  20.037  0.00  0.00    +0.000 A 
ATOM      5  O   UNL     1       0.443   5.207  20.387  0.00  0.00    +0.000 OA
ATOM      6  C   UNL     1       2.372   4.097  19.690  0.00  0.00    +0.000 A 
ATOM      7  C   UNL     1       1.900   2.799  19.740  0.00  0.00    +0.000 A 
ATOM      8  S   UNL     1       3.091   1.688  19.225  0.00  0.00    +0.000 S 
ATOM      9  C   UNL     1       4.232   2.935  18.957  0.00  0.00    +0.000 A 
ATOM     10  C   UNL     1       3.713   4.182  19.232  0.00  0.00    +0.000 A 
ENDROOT
BRANCH   3  11
ATOM     11  C   UNL     1       1.795   7.767  20.229  0.00  0.00    +0.000 A 
ATOM     12  C   UNL     1       1.509   8.101  21.563  0.00  0.00    +0.000 A 
ATOM     13  C   UNL     1       0.926   9.327  21.901  0.00  0.00    +0.000 A 
ATOM     14  C   UNL     1       0.625  10.245  20.904  0.00  0.00    +0.000 A 
ATOM     15 CL   UNL     1      -0.123  11.737  21.316  0.00  0.00    +0.000 Cl
ATOM     16  C   UNL     1       0.927   9.957  19.577  0.00  0.00    +0.000 A 
ATOM     17  C   UNL     1       1.520   8.731  19.244  0.00  0.00    +0.000 A 
ENDBRANCH   3  11
BRANCH   1  21
ATOM     18  C   UNL     1       7.463   6.321  16.952  0.00  0.00    +0.000 C 
ATOM     19  N   UNL     1       6.070   6.107  17.308  0.00  0.00    +0.000 N 
ATOM     20  C   UNL     1       5.056   6.405  16.310  0.00  0.00    +0.000 C 
ATOM     21  C   UNL     1       5.805   5.628  18.596  0.00  0.00    +0.000 C 
ATOM     22  O   UNL     1       6.706   5.345  19.384  0.00  0.00    +0.000 OA
ENDBRANCH   1  21
BRANCH   7  23
ATOM     23  N   UNL     1       0.677   2.381  20.128  0.00  0.00    +0.000 N 
ATOM     24  H   UNL     1       0.451   2.359  21.125  0.00  0.00    +0.000 HD
ATOM     25  H   UNL     1      -0.123   2.482  19.513  0.00  0.00    +0.000 HD
ENDBRANCH   7  23
TORSDOF 3
ENDMDL
MODEL 8
REMARK VINA RESULT:      -6.5      2.127      4.157
REMARK  Name = 
REMARK  5 active torsions:
REMARK  status: ('A' for Active; 'I' for Inactive)
REMARK    1  A    between atoms: C_1  and  N_2
REMARK    2  A    between atoms: N_2  and  C_3
REMARK    3  A    between atoms: C_4  and  C_6
REMARK    4  A    between atoms: N_8  and  C_9
REMARK    5  A    between atoms: C_19  and  N_20
REMARK                            x       y       z     vdW  Elec       q    Type
REMARK                         _______ _______ _______ _____ _____    ______ ____
ROOT
ATOM      1  C   UNL     1       2.535   5.586  19.831  0.00  0.00    +0.000 A 
ATOM      2  N   UNL     1       1.922   6.736  19.945  0.00  0.00    +0.000 NA
ATOM      3  N   UNL     1       2.090   7.763  19.001  0.00  0.00    +0.000 N 
ATOM      4  C   UNL     1       2.998   7.704  17.910  0.00  0.00    +0.000 A 
ATOM      5  O   UNL     1       3.235   8.625  17.128  0.00  0.00    +0.000 OA
ATOM      6  C   UNL     1       3.707   6.446  17.810  0.00  0.00    +0.000 A 
ATOM      7  C   UNL     1       4.657   6.126  16.858  0.00  0.00    +0.000 A 
ATOM      8  S   UNL     1       5.273   4.552  17.103  0.00  0.00    +0.000 S 
ATOM      9  C   UNL     1       4.262   4.296  18.460  0.00  0.00    +0.000 A 
ATOM     10  C   UNL     1       3.480   5.398  18.740  0.00  0.00    +0.000 A 
ENDROOT
BRANCH   3  11
ATOM     11  C   UNL     1       1.249   8.906  19.222  0.00  0.00    +0.000 A 
ATOM     12  C   UNL     1       1.016   9.413  20.511  0.00  0.00    +0.000 A 
ATOM     13  C   UNL     1       0.160  10.499  20.726  0.00  0.00    +0.000 A 
ATOM     14  C   UNL     1      -0.472  11.103  19.647  0.00  0.00    +0.000 A 
ATOM     15 CL   UNL     1      -1.549  12.415  19.915  0.00  0.00    +0.000 Cl
ATOM     16  C   UNL     1      -0.235  10.644  18.355  0.00  0.00    +0.000 A 
ATOM     17  C   UNL     1       0.630   9.561  18.144  0.00  0.00    +0.000 A 
ENDBRANCH   3  11
BRANCH   1  21
ATOM     18  C   UNL     1       1.340   2.311  21.501  0.00  0.00    +0.000 C 
ATOM     19  N   UNL     1       1.475   3.367  20.513  0.00  0.00    +0.000 N 
ATOM     20  C   UNL     1       0.804   3.197  19.235  0.00  0.00    +0.000 C 
ATOM     21  C   UNL     1       2.251   4.477  20.865  0.00  0.00    +0.000 C 
ATOM     22  O   UNL     1       2.756   4.592  21.980  0.00  0.00    +0.000 OA
ENDBRANCH   1  21
BRANCH   7  23
ATOM     23  N   UNL     1       5.098   6.897  15.842  0.00  0.00    +0.000 N 
ATOM     24  H   UNL     1       5.239   7.898  16.000  0.00  0.00    +0.000 HD
ATOM     25  H   UNL     1       5.664   6.500  15.100  0.00  0.00    +0.000 HD
ENDBRANCH   7  23
TORSDOF 3
ENDMDL
MODEL 9
REMARK VINA RESULT:      -6.5      1.304      1.711
REMARK  Name = 
REMARK  5 active torsions:
REMARK  status: ('A' for Active; 'I' for Inactive)
REMARK    1  A    between atoms: C_1  and  N_2
REMARK    2  A    between atoms: N_2  and  C_3
REMARK    3  A    between atoms: C_4  and  C_6
REMARK    4  A    between atoms: N_8  and  C_9
REMARK    5  A    between atoms: C_19  and  N_20
REMARK                            x       y       z     vdW  Elec       q    Type
REMARK                         _______ _______ _______ _____ _____    ______ ____
ROOT
ATOM      1  C   UNL     1       4.353   5.501  19.116  0.00  0.00    +0.000 A 
ATOM      2  N   UNL     1       3.653   6.573  19.384  0.00  0.00    +0.000 NA
ATOM      3  N   UNL     1       2.341   6.498  19.882  0.00  0.00    +0.000 N 
ATOM      4  C   UNL     1       1.617   5.287  20.043  0.00  0.00    +0.000 A 
ATOM      5  O   UNL     1       0.436   5.200  20.383  0.00  0.00    +0.000 OA
ATOM      6  C   UNL     1       2.378   4.103  19.705  0.00  0.00    +0.000 A 
ATOM      7  C   UNL     1       1.916   2.802  19.753  0.00  0.00    +0.000 A 
ATOM      8  S   UNL     1       3.118   1.697  19.251  0.00  0.00    +0.000 S 
ATOM      9  C   UNL     1       4.253   2.951  18.991  0.00  0.00    +0.000 A 
ATOM     10  C   UNL     1       3.723   4.196  19.259  0.00  0.00    +0.000 A 
ENDROOT
BRANCH   3  11
ATOM     11  C   UNL     1       1.773   7.770  20.232  0.00  0.00    +0.000 A 
ATOM     12  C   UNL     1       1.485   8.742  19.260  0.00  0.00    +0.000 A 
ATOM     13  C   UNL     1       0.974   9.997  19.609  0.00  0.00    +0.000 A 
ATOM     14  C   UNL     1       0.733  10.295  20.944  0.00  0.00    +0.000 A 
ATOM     15 CL   UNL     1       0.137  11.849  21.376  0.00  0.00    +0.000 Cl
ATOM     16  C   UNL     1       0.977   9.341  21.926  0.00  0.00    +0.000 A 
ATOM     17  C   UNL     1       1.481   8.082  21.570  0.00  0.00    +0.000 A 
ENDBRANCH   3  11
BRANCH   1  21
ATOM     18  C   UNL     1       7.477   6.328  16.995  0.00  0.00    +0.000 C 
ATOM     19  N   UNL     1       6.084   6.103  17.341  0.00  0.00    +0.000 N 
ATOM     20  C   UNL     1       5.078   6.360  16.324  0.00  0.00    +0.000 C 
ATOM     21  C   UNL     1       5.811   5.655  18.639  0.00  0.00    +0.000 C 
ATOM     22  O   UNL     1       6.707   5.406  19.444  0.00  0.00    +0.000 OA
ENDBRANCH   1  21
BRANCH   7  23
ATOM     23  N   UNL     1       0.692   2.376  20.131  0.00  0.00    +0.000 N 
ATOM     24  H   UNL     1       0.170   2.912  20.828  0.00  0.00    +0.000 HD
ATOM     25  H   UNL     1       0.117   1.829  19.499  0.00  0.00    +0.000 HD
ENDBRANCH   7  23
TORSDOF 3
ENDMDL
