MODEL 1
REMARK VINA RESULT:      -8.0      0.000      0.000
REMARK  Name = 
REMARK  6 active torsions:
REMARK  status: ('A' for Active; 'I' for Inactive)
REMARK    1  A    between atoms: C_1  and  O_2
REMARK    2  A    between atoms: O_2  and  C_3
REMARK    3  A    between atoms: C_6  and  C_7
REMARK    4  A    between atoms: C_7  and  N_8
REMARK    5  A    between atoms: N_8  and  C_9
REMARK    6  A    between atoms: C_24  and  O_25
REMARK                            x       y       z     vdW  Elec       q    Type
REMARK                         _______ _______ _______ _____ _____    ______ ____
ROOT
ATOM      1  C   UNL     1       3.943   4.775  17.138  0.00  0.00    +0.000 C 
ATOM      2  C   UNL     1       3.548   4.660  18.424  0.00  0.00    +0.000 C 
ATOM      3  C   UNL     1       3.889   3.376  19.120  0.00  0.00    +0.000 C 
ATOM      4  O   UNL     1       4.824   2.646  18.807  0.00  0.00    +0.000 OA
ATOM      5  N   UNL     1       3.077   3.057  20.173  0.00  0.00    +0.000 N 
ATOM      6  C   UNL     1       2.325   3.931  20.912  0.00  0.00    +0.000 C 
ATOM      7  O   UNL     1       1.842   3.603  21.988  0.00  0.00    +0.000 OA
ATOM      8  C   UNL     1       2.159   5.302  20.378  0.00  0.00    +0.000 A 
ATOM      9  C   UNL     1       1.425   6.226  21.140  0.00  0.00    +0.000 A 
ATOM     10  C   UNL     1       1.256   7.528  20.681  0.00  0.00    +0.000 A 
ATOM     11  C   UNL     1       1.822   7.904  19.468  0.00  0.00    +0.000 A 
ATOM     12 CL   UNL     1       1.613   9.515  18.899  0.00  0.00    +0.000 Cl
ATOM     13  C   UNL     1       2.562   6.990  18.709  0.00  0.00    +0.000 A 
ATOM     14  C   UNL     1       2.739   5.667  19.149  0.00  0.00    +0.000 A 
ATOM     15  H   UNL     1       3.276   2.174  20.620  0.00  0.00    +0.000 HD
ENDROOT
BRANCH   1  16
ATOM     16  N   UNL     1       4.690   3.881  16.406  0.00  0.00    +0.000 N 
ATOM     17  H   UNL     1       4.214   2.997  16.182  0.00  0.00    +0.000 HD
BRANCH  16  18
ATOM     18  C   UNL     1       6.092   3.941  16.060  0.00  0.00    +0.000 C 
BRANCH  18  22
ATOM     19  C   UNL     1       8.047   7.070  18.342  0.00  0.00    +0.000 A 
ATOM     20  C   UNL     1       7.500   7.329  17.080  0.00  0.00    +0.000 A 
ATOM     21  C   UNL     1       6.872   6.322  16.344  0.00  0.00    +0.000 A 
ATOM     22  C   UNL     1       6.774   5.024  16.857  0.00  0.00    +0.000 A 
ATOM     23  C   UNL     1       7.321   4.759  18.121  0.00  0.00    +0.000 A 
ATOM     24  C   UNL     1       7.952   5.773  18.857  0.00  0.00    +0.000 A 
BRANCH  19  26
ATOM     25  C   UNL     1       8.481   9.421  18.240  0.00  0.00    +0.000 C 
ATOM     26  O   UNL     1       8.616   8.179  18.910  0.00  0.00    +0.000 OA
ENDBRANCH  19  26
BRANCH  24  27
ATOM     27  O   UNL     1       8.471   5.453  20.082  0.00  0.00    +0.000 OA
ATOM     28  H   UNL     1       9.314   4.989  19.963  0.00  0.00    +0.000 HD
ENDBRANCH  24  27
ENDBRANCH  18  22
ENDBRANCH  16  18
ENDBRANCH   1  16
TORSDOF 5
ENDMDL
MODEL 2
REMARK VINA RESULT:      -7.8      3.130      6.502
REMARK  Name = 
REMARK  6 active torsions:
REMARK  status: ('A' for Active; 'I' for Inactive)
REMARK    1  A    between atoms: C_1  and  O_2
REMARK    2  A    between atoms: O_2  and  C_3
REMARK    3  A    between atoms: C_6  and  C_7
REMARK    4  A    between atoms: C_7  and  N_8
REMARK    5  A    between atoms: N_8  and  C_9
REMARK    6  A    between atoms: C_24  and  O_25
REMARK                            x       y       z     vdW  Elec       q    Type
REMARK                         _______ _______ _______ _____ _____    ______ ____
ROOT
ATOM      1  C   UNL     1       3.987   3.144  17.064  0.00  0.00    +0.000 C 
ATOM      2  C   UNL     1       5.095   3.897  16.892  0.00  0.00    +0.000 C 
ATOM      3  C   UNL     1       5.642   4.577  18.111  0.00  0.00    +0.000 C 
ATOM      4  O   UNL     1       5.467   4.185  19.260  0.00  0.00    +0.000 OA
ATOM      5  N   UNL     1       6.388   5.696  17.862  0.00  0.00    +0.000 N 
ATOM      6  C   UNL     1       7.039   5.995  16.695  0.00  0.00    +0.000 C 
ATOM      7  O   UNL     1       7.889   6.874  16.648  0.00  0.00    +0.000 OA
ATOM      8  C   UNL     1       6.704   5.180  15.505  0.00  0.00    +0.000 A 
ATOM      9  C   UNL     1       7.390   5.443  14.307  0.00  0.00    +0.000 A 
ATOM     10  C   UNL     1       7.116   4.693  13.169  0.00  0.00    +0.000 A 
ATOM     11  C   UNL     1       6.162   3.682  13.230  0.00  0.00    +0.000 A 
ATOM     12 CL   UNL     1       5.822   2.752  11.822  0.00  0.00    +0.000 Cl
ATOM     13  C   UNL     1       5.484   3.409  14.423  0.00  0.00    +0.000 A 
ATOM     14  C   UNL     1       5.739   4.160  15.583  0.00  0.00    +0.000 A 
ATOM     15  H   UNL     1       6.725   6.182  18.680  0.00  0.00    +0.000 HD
ENDROOT
BRANCH   1  16
ATOM     16  N   UNL     1       3.339   2.863  18.244  0.00  0.00    +0.000 N 
ATOM     17  H   UNL     1       3.833   2.212  18.868  0.00  0.00    +0.000 HD
BRANCH  16  18
ATOM     18  C   UNL     1       1.997   3.218  18.649  0.00  0.00    +0.000 C 
BRANCH  18  22
ATOM     19  C   UNL     1       1.907   7.321  20.056  0.00  0.00    +0.000 A 
ATOM     20  C   UNL     1       1.599   6.257  20.911  0.00  0.00    +0.000 A 
ATOM     21  C   UNL     1       1.626   4.936  20.458  0.00  0.00    +0.000 A 
ATOM     22  C   UNL     1       1.966   4.647  19.133  0.00  0.00    +0.000 A 
ATOM     23  C   UNL     1       2.275   5.710  18.271  0.00  0.00    +0.000 A 
ATOM     24  C   UNL     1       2.245   7.036  18.729  0.00  0.00    +0.000 A 
BRANCH  19  26
ATOM     25  C   UNL     1       0.704   9.359  20.412  0.00  0.00    +0.000 C 
ATOM     26  O   UNL     1       1.830   8.539  20.678  0.00  0.00    +0.000 OA
ENDBRANCH  19  26
BRANCH  24  27
ATOM     27  O   UNL     1       2.552   8.031  17.841  0.00  0.00    +0.000 OA
ATOM     28  H   UNL     1       2.768   7.638  16.981  0.00  0.00    +0.000 HD
ENDBRANCH  24  27
ENDBRANCH  18  22
ENDBRANCH  16  18
ENDBRANCH   1  16
TORSDOF 5
ENDMDL
MODEL 3
REMARK VINA RESULT:      -7.7      3.047      6.292
REMARK  Name = 
REMARK  6 active torsions:
REMARK  status: ('A' for Active; 'I' for Inactive)
REMARK    1  A    between atoms: C_1  and  O_2
REMARK    2  A    between atoms: O_2  and  C_3
REMARK    3  A    between atoms: C_6  and  C_7
REMARK    4  A    between atoms: C_7  and  N_8
REMARK    5  A    between atoms: N_8  and  C_9
REMARK    6  A    between atoms: C_24  and  O_25
REMARK                            x       y       z     vdW  Elec       q    Type
REMARK                         _______ _______ _______ _____ _____    ______ ____
ROOT
ATOM      1  C   UNL     1       4.084   3.249  17.388  0.00  0.00    +0.000 C 
ATOM      2  C   UNL     1       5.177   4.013  17.174  0.00  0.00    +0.000 C 
ATOM      3  C   UNL     1       5.753   4.712  18.369  0.00  0.00    +0.000 C 
ATOM      4  O   UNL     1       5.616   4.331  19.527  0.00  0.00    +0.000 OA
ATOM      5  N   UNL     1       6.477   5.838  18.086  0.00  0.00    +0.000 N 
ATOM      6  C   UNL     1       7.089   6.131  16.897  0.00  0.00    +0.000 C 
ATOM      7  O   UNL     1       7.927   7.019  16.814  0.00  0.00    +0.000 OA
ATOM      8  C   UNL     1       6.728   5.299  15.726  0.00  0.00    +0.000 A 
ATOM      9  C   UNL     1       7.374   5.557  14.505  0.00  0.00    +0.000 A 
ATOM     10  C   UNL     1       7.075   4.792  13.384  0.00  0.00    +0.000 A 
ATOM     11  C   UNL     1       6.136   3.771  13.484  0.00  0.00    +0.000 A 
ATOM     12 CL   UNL     1       5.765   2.821  12.097  0.00  0.00    +0.000 Cl
ATOM     13  C   UNL     1       5.497   3.502  14.700  0.00  0.00    +0.000 A 
ATOM     14  C   UNL     1       5.778   4.269  15.844  0.00  0.00    +0.000 A 
ATOM     15  H   UNL     1       6.832   6.335  18.889  0.00  0.00    +0.000 HD
ENDROOT
BRANCH   1  16
ATOM     16  N   UNL     1       3.475   2.973  18.590  0.00  0.00    +0.000 N 
ATOM     17  H   UNL     1       3.937   2.248  19.155  0.00  0.00    +0.000 HD
BRANCH  16  18
ATOM     18  C   UNL     1       2.197   3.432  19.086  0.00  0.00    +0.000 C 
BRANCH  18  22
ATOM     19  C   UNL     1       2.082   7.769  19.079  0.00  0.00    +0.000 A 
ATOM     20  C   UNL     1       2.226   7.048  17.889  0.00  0.00    +0.000 A 
ATOM     21  C   UNL     1       2.265   5.652  17.890  0.00  0.00    +0.000 A 
ATOM     22  C   UNL     1       2.158   4.940  19.090  0.00  0.00    +0.000 A 
ATOM     23  C   UNL     1       2.015   5.659  20.286  0.00  0.00    +0.000 A 
ATOM     24  C   UNL     1       1.978   7.061  20.280  0.00  0.00    +0.000 A 
BRANCH  19  26
ATOM     25  C   UNL     1       0.804   9.763  18.736  0.00  0.00    +0.000 C 
ATOM     26  O   UNL     1       2.062   9.123  18.878  0.00  0.00    +0.000 OA
ENDBRANCH  19  26
BRANCH  24  27
ATOM     27  O   UNL     1       1.840   7.706  21.479  0.00  0.00    +0.000 OA
ATOM     28  H   UNL     1       2.673   7.647  21.973  0.00  0.00    +0.000 HD
ENDBRANCH  24  27
ENDBRANCH  18  22
ENDBRANCH  16  18
ENDBRANCH   1  16
TORSDOF 5
ENDMDL
MODEL 4
REMARK VINA RESULT:      -7.7      5.175      7.541
REMARK  Name = 
REMARK  6 active torsions:
REMARK  status: ('A' for Active; 'I' for Inactive)
REMARK    1  A    between atoms: C_1  and  O_2
REMARK    2  A    between atoms: O_2  and  C_3
REMARK    3  A    between atoms: C_6  and  C_7
REMARK    4  A    between atoms: C_7  and  N_8
REMARK    5  A    between atoms: N_8  and  C_9
REMARK    6  A    between atoms: C_24  and  O_25
REMARK                            x       y       z     vdW  Elec       q    Type
REMARK                         _______ _______ _______ _____ _____    ______ ____
ROOT
ATOM      1  C   UNL     1       0.556   9.505  17.866  0.00  0.00    +0.000 C 
ATOM      2  C   UNL     1      -0.323  10.409  18.351  0.00  0.00    +0.000 C 
ATOM      3  C   UNL     1       0.084  11.146  19.591  0.00  0.00    +0.000 C 
ATOM      4  O   UNL     1       1.247  11.331  19.936  0.00  0.00    +0.000 OA
ATOM      5  N   UNL     1      -0.951  11.630  20.342  0.00  0.00    +0.000 N 
ATOM      6  C   UNL     1      -2.215  11.908  19.896  0.00  0.00    +0.000 C 
ATOM      7  O   UNL     1      -2.992  12.580  20.563  0.00  0.00    +0.000 OA
ATOM      8  C   UNL     1      -2.589  11.402  18.555  0.00  0.00    +0.000 A 
ATOM      9  C   UNL     1      -3.867  11.710  18.062  0.00  0.00    +0.000 A 
ATOM     10  C   UNL     1      -4.254  11.265  16.803  0.00  0.00    +0.000 A 
ATOM     11  C   UNL     1      -3.363  10.518  16.039  0.00  0.00    +0.000 A 
ATOM     12 CL   UNL     1      -3.840   9.967  14.479  0.00  0.00    +0.000 Cl
ATOM     13  C   UNL     1      -2.084  10.217  16.522  0.00  0.00    +0.000 A 
ATOM     14  C   UNL     1      -1.676  10.649  17.795  0.00  0.00    +0.000 A 
ATOM     15  H   UNL     1      -0.684  12.092  21.199  0.00  0.00    +0.000 HD
ENDROOT
BRANCH   1  16
ATOM     16  N   UNL     1       1.820   9.231  18.333  0.00  0.00    +0.000 N 
ATOM     17  H   UNL     1       2.225   9.953  18.944  0.00  0.00    +0.000 HD
BRANCH  16  18
ATOM     18  C   UNL     1       2.715   8.162  17.953  0.00  0.00    +0.000 C 
BRANCH  18  22
ATOM     19  C   UNL     1       1.647   4.530  20.072  0.00  0.00    +0.000 A 
ATOM     20  C   UNL     1       1.703   5.762  20.732  0.00  0.00    +0.000 A 
ATOM     21  C   UNL     1       2.049   6.931  20.052  0.00  0.00    +0.000 A 
ATOM     22  C   UNL     1       2.345   6.896  18.685  0.00  0.00    +0.000 A 
ATOM     23  C   UNL     1       2.290   5.662  18.018  0.00  0.00    +0.000 A 
ATOM     24  C   UNL     1       1.944   4.490  18.706  0.00  0.00    +0.000 A 
BRANCH  19  26
ATOM     25  C   UNL     1       2.316   2.758  21.535  0.00  0.00    +0.000 C 
ATOM     26  O   UNL     1       1.288   3.501  20.901  0.00  0.00    +0.000 OA
ENDBRANCH  19  26
BRANCH  24  27
ATOM     27  O   UNL     1       1.912   3.317  18.002  0.00  0.00    +0.000 OA
ATOM     28  H   UNL     1       1.502   3.472  17.138  0.00  0.00    +0.000 HD
ENDBRANCH  24  27
ENDBRANCH  18  22
ENDBRANCH  16  18
ENDBRANCH   1  16
TORSDOF 5
ENDMDL
MODEL 5
REMARK VINA RESULT:      -7.6      2.892      6.190
REMARK  Name = 
REMARK  6 active torsions:
REMARK  status: ('A' for Active; 'I' for Inactive)
REMARK    1  A    between atoms: C_1  and  O_2
REMARK    2  A    between atoms: O_2  and  C_3
REMARK    3  A    between atoms: C_6  and  C_7
REMARK    4  A    between atoms: C_7  and  N_8
REMARK    5  A    between atoms: N_8  and  C_9
REMARK    6  A    between atoms: C_24  and  O_25
REMARK                            x       y       z     vdW  Elec       q    Type
REMARK                         _______ _______ _______ _____ _____    ______ ____
ROOT
ATOM      1  C   UNL     1       3.449   2.802  17.177  0.00  0.00    +0.000 C 
ATOM      2  C   UNL     1       4.660   3.377  17.339  0.00  0.00    +0.000 C 
ATOM      3  C   UNL     1       5.119   3.591  18.750  0.00  0.00    +0.000 C 
ATOM      4  O   UNL     1       4.736   2.931  19.711  0.00  0.00    +0.000 OA
ATOM      5  N   UNL     1       6.034   4.594  18.915  0.00  0.00    +0.000 N 
ATOM      6  C   UNL     1       6.874   5.091  17.954  0.00  0.00    +0.000 C 
ATOM      7  O   UNL     1       7.832   5.794  18.248  0.00  0.00    +0.000 OA
ATOM      8  C   UNL     1       6.602   4.706  16.550  0.00  0.00    +0.000 A 
ATOM      9  C   UNL     1       7.475   5.172  15.553  0.00  0.00    +0.000 A 
ATOM     10  C   UNL     1       7.264   4.823  14.224  0.00  0.00    +0.000 A 
ATOM     11  C   UNL     1       6.185   4.009  13.894  0.00  0.00    +0.000 A 
ATOM     12 CL   UNL     1       5.923   3.576  12.249  0.00  0.00    +0.000 Cl
ATOM     13  C   UNL     1       5.318   3.534  14.885  0.00  0.00    +0.000 A 
ATOM     14  C   UNL     1       5.508   3.881  16.233  0.00  0.00    +0.000 A 
ATOM     15  H   UNL     1       6.316   4.770  19.867  0.00  0.00    +0.000 HD
ENDROOT
BRANCH   1  16
ATOM     16  N   UNL     1       2.612   2.317  18.155  0.00  0.00    +0.000 N 
ATOM     17  H   UNL     1       2.864   1.390  18.523  0.00  0.00    +0.000 HD
BRANCH  16  18
ATOM     18  C   UNL     1       1.348   2.848  18.612  0.00  0.00    +0.000 C 
BRANCH  18  22
ATOM     19  C   UNL     1       1.874   6.905  20.056  0.00  0.00    +0.000 A 
ATOM     20  C   UNL     1       1.458   5.881  20.913  0.00  0.00    +0.000 A 
ATOM     21  C   UNL     1       1.287   4.575  20.449  0.00  0.00    +0.000 A 
ATOM     22  C   UNL     1       1.531   4.260  19.108  0.00  0.00    +0.000 A 
ATOM     23  C   UNL     1       1.947   5.284  18.244  0.00  0.00    +0.000 A 
ATOM     24  C   UNL     1       2.117   6.595  18.714  0.00  0.00    +0.000 A 
BRANCH  19  26
ATOM     25  C   UNL     1       0.928   8.532  21.534  0.00  0.00    +0.000 C 
ATOM     26  O   UNL     1       1.988   8.113  20.691  0.00  0.00    +0.000 OA
ENDBRANCH  19  26
BRANCH  24  27
ATOM     27  O   UNL     1       2.521   7.551  17.822  0.00  0.00    +0.000 OA
ATOM     28  H   UNL     1       3.391   7.888  18.085  0.00  0.00    +0.000 HD
ENDBRANCH  24  27
ENDBRANCH  18  22
ENDBRANCH  16  18
ENDBRANCH   1  16
TORSDOF 5
ENDMDL
MODEL 6
REMARK VINA RESULT:      -7.5      2.815      5.929
REMARK  Name = 
REMARK  6 active torsions:
REMARK  status: ('A' for Active; 'I' for Inactive)
REMARK    1  A    between atoms: C_1  and  O_2
REMARK    2  A    between atoms: O_2  and  C_3
REMARK    3  A    between atoms: C_6  and  C_7
REMARK    4  A    between atoms: C_7  and  N_8
REMARK    5  A    between atoms: N_8  and  C_9
REMARK    6  A    between atoms: C_24  and  O_25
REMARK                            x       y       z     vdW  Elec       q    Type
REMARK                         _______ _______ _______ _____ _____    ______ ____
ROOT
ATOM      1  C   UNL     1       3.456   2.796  17.443  0.00  0.00    +0.000 C 
ATOM      2  C   UNL     1       4.660   3.394  17.573  0.00  0.00    +0.000 C 
ATOM      3  C   UNL     1       5.141   3.641  18.971  0.00  0.00    +0.000 C 
ATOM      4  O   UNL     1       4.786   2.991  19.950  0.00  0.00    +0.000 OA
ATOM      5  N   UNL     1       6.041   4.662  19.101  0.00  0.00    +0.000 N 
ATOM      6  C   UNL     1       6.855   5.156  18.117  0.00  0.00    +0.000 C 
ATOM      7  O   UNL     1       7.805   5.880  18.381  0.00  0.00    +0.000 OA
ATOM      8  C   UNL     1       6.564   4.742  16.725  0.00  0.00    +0.000 A 
ATOM      9  C   UNL     1       7.411   5.205  15.705  0.00  0.00    +0.000 A 
ATOM     10  C   UNL     1       7.181   4.829  14.386  0.00  0.00    +0.000 A 
ATOM     11  C   UNL     1       6.112   3.992  14.090  0.00  0.00    +0.000 A 
ATOM     12 CL   UNL     1       5.827   3.525  12.457  0.00  0.00    +0.000 Cl
ATOM     13  C   UNL     1       5.271   3.519  15.104  0.00  0.00    +0.000 A 
ATOM     14  C   UNL     1       5.479   3.893  16.443  0.00  0.00    +0.000 A 
ATOM     15  H   UNL     1       6.337   4.859  20.046  0.00  0.00    +0.000 HD
ENDROOT
BRANCH   1  16
ATOM     16  N   UNL     1       2.646   2.314  18.445  0.00  0.00    +0.000 N 
ATOM     17  H   UNL     1       2.818   1.336  18.711  0.00  0.00    +0.000 HD
BRANCH  16  18
ATOM     18  C   UNL     1       1.487   2.931  19.049  0.00  0.00    +0.000 C 
BRANCH  18  22
ATOM     19  C   UNL     1       2.014   7.235  19.192  0.00  0.00    +0.000 A 
ATOM     20  C   UNL     1       2.069   6.540  17.979  0.00  0.00    +0.000 A 
ATOM     21  C   UNL     1       1.902   5.154  17.932  0.00  0.00    +0.000 A 
ATOM     22  C   UNL     1       1.671   4.427  19.105  0.00  0.00    +0.000 A 
ATOM     23  C   UNL     1       1.615   5.120  20.324  0.00  0.00    +0.000 A 
ATOM     24  C   UNL     1       1.785   6.512  20.367  0.00  0.00    +0.000 A 
BRANCH  19  26
ATOM     25  C   UNL     1       2.039   9.140  17.743  0.00  0.00    +0.000 C 
ATOM     26  O   UNL     1       2.197   8.584  19.038  0.00  0.00    +0.000 OA
ENDBRANCH  19  26
BRANCH  24  27
ATOM     27  O   UNL     1       1.724   7.130  21.586  0.00  0.00    +0.000 OA
ATOM     28  H   UNL     1       0.886   6.906  22.018  0.00  0.00    +0.000 HD
ENDBRANCH  24  27
ENDBRANCH  18  22
ENDBRANCH  16  18
ENDBRANCH   1  16
TORSDOF 5
ENDMDL
MODEL 7
REMARK VINA RESULT:      -7.5      5.188      7.179
REMARK  Name = 
REMARK  6 active torsions:
REMARK  status: ('A' for Active; 'I' for Inactive)
REMARK    1  A    between atoms: C_1  and  O_2
REMARK    2  A    between atoms: O_2  and  C_3
REMARK    3  A    between atoms: C_6  and  C_7
REMARK    4  A    between atoms: C_7  and  N_8
REMARK    5  A    between atoms: N_8  and  C_9
REMARK    6  A    between atoms: C_24  and  O_25
REMARK                            x       y       z     vdW  Elec       q    Type
REMARK                         _______ _______ _______ _____ _____    ______ ____
ROOT
ATOM      1  C   UNL     1       0.386   9.371  17.932  0.00  0.00    +0.000 C 
ATOM      2  C   UNL     1      -0.465  10.322  18.375  0.00  0.00    +0.000 C 
ATOM      3  C   UNL     1      -0.064  11.059  19.617  0.00  0.00    +0.000 C 
ATOM      4  O   UNL     1       1.095  11.195  19.997  0.00  0.00    +0.000 OA
ATOM      5  N   UNL     1      -1.099  11.602  20.327  0.00  0.00    +0.000 N 
ATOM      6  C   UNL     1      -2.334  11.931  19.836  0.00  0.00    +0.000 C 
ATOM      7  O   UNL     1      -3.099  12.648  20.467  0.00  0.00    +0.000 OA
ATOM      8  C   UNL     1      -2.687  11.422  18.491  0.00  0.00    +0.000 A 
ATOM      9  C   UNL     1      -3.933  11.781  17.952  0.00  0.00    +0.000 A 
ATOM     10  C   UNL     1      -4.300  11.335  16.687  0.00  0.00    +0.000 A 
ATOM     11  C   UNL     1      -3.421  10.536  15.964  0.00  0.00    +0.000 A 
ATOM     12 CL   UNL     1      -3.872   9.983  14.397  0.00  0.00    +0.000 Cl
ATOM     13  C   UNL     1      -2.173  10.183  16.492  0.00  0.00    +0.000 A 
ATOM     14  C   UNL     1      -1.786  10.616  17.772  0.00  0.00    +0.000 A 
ATOM     15  H   UNL     1      -0.838  12.064  21.185  0.00  0.00    +0.000 HD
ENDROOT
BRANCH   1  16
ATOM     16  N   UNL     1       1.621   9.046  18.444  0.00  0.00    +0.000 N 
ATOM     17  H   UNL     1       1.796   9.380  19.401  0.00  0.00    +0.000 HD
BRANCH  16  18
ATOM     18  C   UNL     1       2.755   8.456  17.771  0.00  0.00    +0.000 C 
BRANCH  18  22
ATOM     19  C   UNL     1       3.454   4.439  19.254  0.00  0.00    +0.000 A 
ATOM     20  C   UNL     1       3.907   4.832  17.990  0.00  0.00    +0.000 A 
ATOM     21  C   UNL     1       3.681   6.124  17.511  0.00  0.00    +0.000 A 
ATOM     22  C   UNL     1       2.994   7.060  18.291  0.00  0.00    +0.000 A 
ATOM     23  C   UNL     1       2.537   6.671  19.559  0.00  0.00    +0.000 A 
ATOM     24  C   UNL     1       2.765   5.372  20.036  0.00  0.00    +0.000 A 
BRANCH  19  26
ATOM     25  C   UNL     1       3.512   2.146  18.573  0.00  0.00    +0.000 C 
ATOM     26  O   UNL     1       3.772   3.140  19.550  0.00  0.00    +0.000 OA
ENDBRANCH  19  26
BRANCH  24  27
ATOM     27  O   UNL     1       2.291   5.050  21.279  0.00  0.00    +0.000 OA
ATOM     28  H   UNL     1       1.592   4.383  21.193  0.00  0.00    +0.000 HD
ENDBRANCH  24  27
ENDBRANCH  18  22
ENDBRANCH  16  18
ENDBRANCH   1  16
TORSDOF 5
ENDMDL
MODEL 8
REMARK VINA RESULT:      -7.5      2.724      4.120
REMARK  Name = 
REMARK  6 active torsions:
REMARK  status: ('A' for Active; 'I' for Inactive)
REMARK    1  A    between atoms: C_1  and  O_2
REMARK    2  A    between atoms: O_2  and  C_3
REMARK    3  A    between atoms: C_6  and  C_7
REMARK    4  A    between atoms: C_7  and  N_8
REMARK    5  A    between atoms: N_8  and  C_9
REMARK    6  A    between atoms: C_24  and  O_25
REMARK                            x       y       z     vdW  Elec       q    Type
REMARK                         _______ _______ _______ _____ _____    ______ ____
ROOT
ATOM      1  C   UNL     1       2.425   5.681  20.380  0.00  0.00    +0.000 C 
ATOM      2  C   UNL     1       2.090   6.779  19.669  0.00  0.00    +0.000 C 
ATOM      3  C   UNL     1       2.346   6.728  18.192  0.00  0.00    +0.000 C 
ATOM      4  O   UNL     1       2.406   5.694  17.535  0.00  0.00    +0.000 OA
ATOM      5  N   UNL     1       2.505   7.947  17.592  0.00  0.00    +0.000 N 
ATOM      6  C   UNL     1       2.034   9.146  18.054  0.00  0.00    +0.000 C 
ATOM      7  O   UNL     1       1.990  10.134  17.331  0.00  0.00    +0.000 OA
ATOM      8  C   UNL     1       1.537   9.188  19.448  0.00  0.00    +0.000 A 
ATOM      9  C   UNL     1       1.012  10.399  19.929  0.00  0.00    +0.000 A 
ATOM     10  C   UNL     1       0.523  10.479  21.229  0.00  0.00    +0.000 A 
ATOM     11  C   UNL     1       0.557   9.350  22.041  0.00  0.00    +0.000 A 
ATOM     12 CL   UNL     1      -0.049   9.447  23.650  0.00  0.00    +0.000 Cl
ATOM     13  C   UNL     1       1.069   8.139  21.564  0.00  0.00    +0.000 A 
ATOM     14  C   UNL     1       1.577   8.038  20.257  0.00  0.00    +0.000 A 
ATOM     15  H   UNL     1       2.719   7.918  16.606  0.00  0.00    +0.000 HD
ENDROOT
BRANCH   1  16
ATOM     16  N   UNL     1       2.908   4.485  19.900  0.00  0.00    +0.000 N 
ATOM     17  H   UNL     1       2.200   3.863  19.490  0.00  0.00    +0.000 HD
BRANCH  16  18
ATOM     18  C   UNL     1       4.230   3.917  20.044  0.00  0.00    +0.000 C 
BRANCH  18  22
ATOM     19  C   UNL     1       6.764   5.232  16.777  0.00  0.00    +0.000 A 
ATOM     20  C   UNL     1       5.785   4.252  16.583  0.00  0.00    +0.000 A 
ATOM     21  C   UNL     1       4.970   3.826  17.634  0.00  0.00    +0.000 A 
ATOM     22  C   UNL     1       5.114   4.378  18.912  0.00  0.00    +0.000 A 
ATOM     23  C   UNL     1       6.094   5.361  19.111  0.00  0.00    +0.000 A 
ATOM     24  C   UNL     1       6.912   5.785  18.053  0.00  0.00    +0.000 A 
BRANCH  19  26
ATOM     25  C   UNL     1       7.044   4.907  14.422  0.00  0.00    +0.000 C 
ATOM     26  O   UNL     1       7.459   5.520  15.632  0.00  0.00    +0.000 OA
ENDBRANCH  19  26
BRANCH  24  27
ATOM     27  O   UNL     1       7.853   6.744  18.311  0.00  0.00    +0.000 OA
ATOM     28  H   UNL     1       8.216   6.607  19.199  0.00  0.00    +0.000 HD
ENDBRANCH  24  27
ENDBRANCH  18  22
ENDBRANCH  16  18
ENDBRANCH   1  16
TORSDOF 5
ENDMDL
MODEL 9
REMARK VINA RESULT:      -7.3      3.881      5.628
REMARK  Name = 
REMARK  6 active torsions:
REMARK  status: ('A' for Active; 'I' for Inactive)
REMARK    1  A    between atoms: C_1  and  O_2
REMARK    2  A    between atoms: O_2  and  C_3
REMARK    3  A    between atoms: C_6  and  C_7
REMARK    4  A    between atoms: C_7  and  N_8
REMARK    5  A    between atoms: N_8  and  C_9
REMARK    6  A    between atoms: C_24  and  O_25
REMARK                            x       y       z     vdW  Elec       q    Type
REMARK                         _______ _______ _______ _____ _____    ______ ____
ROOT
ATOM      1  C   UNL     1       1.694   7.988  19.944  0.00  0.00    +0.000 C 
ATOM      2  C   UNL     1       1.496   9.230  19.453  0.00  0.00    +0.000 C 
ATOM      3  C   UNL     1       2.084   9.521  18.105  0.00  0.00    +0.000 C 
ATOM      4  O   UNL     1       2.323   8.669  17.255  0.00  0.00    +0.000 OA
ATOM      5  N   UNL     1       2.338  10.842  17.858  0.00  0.00    +0.000 N 
ATOM      6  C   UNL     1       1.737  11.911  18.468  0.00  0.00    +0.000 C 
ATOM      7  O   UNL     1       1.829  13.041  18.006  0.00  0.00    +0.000 OA
ATOM      8  C   UNL     1       0.935  11.637  19.682  0.00  0.00    +0.000 A 
ATOM      9  C   UNL     1       0.277  12.713  20.299  0.00  0.00    +0.000 A 
ATOM     10  C   UNL     1      -0.497  12.498  21.434  0.00  0.00    +0.000 A 
ATOM     11  C   UNL     1      -0.616  11.210  21.946  0.00  0.00    +0.000 A 
ATOM     12 CL   UNL     1      -1.575  10.941  23.350  0.00  0.00    +0.000 Cl
ATOM     13  C   UNL     1       0.029  10.132  21.328  0.00  0.00    +0.000 A 
ATOM     14  C   UNL     1       0.824  10.328  20.186  0.00  0.00    +0.000 A 
ATOM     15  H   UNL     1       2.771  11.040  16.969  0.00  0.00    +0.000 HD
ENDROOT
BRANCH   1  16
ATOM     16  N   UNL     1       2.310   6.927  19.322  0.00  0.00    +0.000 N 
ATOM     17  H   UNL     1       1.980   6.732  18.367  0.00  0.00    +0.000 HD
BRANCH  16  18
ATOM     18  C   UNL     1       3.224   5.955  19.878  0.00  0.00    +0.000 C 
BRANCH  18  22
ATOM     19  C   UNL     1       5.719   4.318  16.729  0.00  0.00    +0.000 A 
ATOM     20  C   UNL     1       4.368   4.604  16.506  0.00  0.00    +0.000 A 
ATOM     21  C   UNL     1       3.563   5.129  17.519  0.00  0.00    +0.000 A 
ATOM     22  C   UNL     1       4.096   5.385  18.787  0.00  0.00    +0.000 A 
ATOM     23  C   UNL     1       5.450   5.100  19.016  0.00  0.00    +0.000 A 
ATOM     24  C   UNL     1       6.255   4.570  17.996  0.00  0.00    +0.000 A 
BRANCH  19  26
ATOM     25  C   UNL     1       6.980   4.722  14.735  0.00  0.00    +0.000 C 
ATOM     26  O   UNL     1       6.344   3.814  15.619  0.00  0.00    +0.000 OA
ENDBRANCH  19  26
BRANCH  24  27
ATOM     27  O   UNL     1       7.567   4.309  18.281  0.00  0.00    +0.000 OA
ATOM     28  H   UNL     1       7.618   3.740  19.065  0.00  0.00    +0.000 HD
ENDBRANCH  24  27
ENDBRANCH  18  22
ENDBRANCH  16  18
ENDBRANCH   1  16
TORSDOF 5
ENDMDL
