MODEL 1
REMARK VINA RESULT:      -8.9      0.000      0.000
REMARK  Name = 
REMARK  7 active torsions:
REMARK  status: ('A' for Active; 'I' for Inactive)
REMARK    1  A    between atoms: C_1  and  C_2
REMARK    2  A    between atoms: C_5  and  C_6
REMARK    3  A    between atoms: C_6  and  C_7
REMARK    4  A    between atoms: C_7  and  N_8
REMARK    5  A    between atoms: C_9  and  C_11
REMARK    6  A    between atoms: C_14  and  N_15
REMARK    7  A    between atoms: C_29  and  C_30
REMARK                            x       y       z     vdW  Elec       q    Type
REMARK                         _______ _______ _______ _____ _____    ______ ____
ROOT
ATOM      1  C   UNL     1       8.355   9.487  18.138  0.00  0.00    +0.000 A 
ATOM      2  C   UNL     1       9.365   9.824  19.043  0.00  0.00    +0.000 A 
ATOM      3  C   UNL     1       9.797  11.152  19.182  0.00  0.00    +0.000 A 
ATOM      4  C   UNL     1       9.234  12.184  18.420  0.00  0.00    +0.000 A 
ATOM      5  C   UNL     1       8.209  11.827  17.521  0.00  0.00    +0.000 A 
ATOM      6  C   UNL     1       7.783  10.498  17.368  0.00  0.00    +0.000 A 
ENDROOT
BRANCH   4   7
ATOM      7  N   UNL     1       9.759  13.515  18.425  0.00  0.00    +0.000 N 
ATOM      8  C   UNL     1       9.351  14.525  19.269  0.00  0.00    +0.000 C 
ATOM      9  O   UNL     1       8.322  14.607  19.933  0.00  0.00    +0.000 OA
ATOM     10  C   UNL     1      10.469  15.536  19.366  0.00  0.00    +0.000 C 
ATOM     11  C   UNL     1       9.996  16.972  19.567  0.00  0.00    +0.000 C 
ATOM     12  C   UNL     1      10.184  17.885  18.402  0.00  0.00    +0.000 C 
ATOM     13  C   UNL     1      10.912  17.583  17.324  0.00  0.00    +0.000 C 
ATOM     14  C   UNL     1      11.634  16.291  17.134  0.00  0.00    +0.000 C 
ATOM     15  C   UNL     1      11.375  15.213  18.187  0.00  0.00    +0.000 C 
ATOM     16  C   UNL     1      10.775  13.953  17.604  0.00  0.00    +0.000 C 
ATOM     17  O   UNL     1      11.182  13.445  16.567  0.00  0.00    +0.000 OA
ENDBRANCH   4   7
BRANCH   1  19
ATOM     18  N   UNL     1       7.113   7.700  17.001  0.00  0.00    +0.000 N 
ATOM     19  C   UNL     1       7.967   8.054  18.024  0.00  0.00    +0.000 C 
ATOM     20  O   UNL     1       8.389   7.243  18.844  0.00  0.00    +0.000 OA
ATOM     21  H   UNL     1       6.773   8.385  16.339  0.00  0.00    +0.000 HD
BRANCH  18  22
ATOM     22  C   UNL     1       6.683   6.321  16.862  0.00  0.00    +0.000 C 
BRANCH  22  23
ATOM     23  C   UNL     1       5.298   6.163  16.229  0.00  0.00    +0.000 C 
BRANCH  23  28
ATOM     24  C   UNL     1       1.250   3.940  19.802  0.00  0.00    +0.000 C 
ATOM     25  C   UNL     1       2.287   4.492  18.863  0.00  0.00    +0.000 A 
ATOM     26  C   UNL     1       2.616   5.853  18.927  0.00  0.00    +0.000 A 
ATOM     27  C   UNL     1       3.584   6.397  18.079  0.00  0.00    +0.000 A 
ATOM     28  C   UNL     1       4.250   5.589  17.154  0.00  0.00    +0.000 A 
ATOM     29  C   UNL     1       3.908   4.232  17.073  0.00  0.00    +0.000 A 
ATOM     30  C   UNL     1       2.933   3.673  17.917  0.00  0.00    +0.000 A 
ATOM     31  C   UNL     1       2.601   2.212  17.786  0.00  0.00    +0.000 C 
ENDBRANCH  23  28
ENDBRANCH  22  23
ENDBRANCH  18  22
ENDBRANCH   1  19
TORSDOF 5
ENDMDL
MODEL 2
REMARK VINA RESULT:      -8.8      5.946      9.061
REMARK  Name = 
REMARK  7 active torsions:
REMARK  status: ('A' for Active; 'I' for Inactive)
REMARK    1  A    between atoms: C_1  and  C_2
REMARK    2  A    between atoms: C_5  and  C_6
REMARK    3  A    between atoms: C_6  and  C_7
REMARK    4  A    between atoms: C_7  and  N_8
REMARK    5  A    between atoms: C_9  and  C_11
REMARK    6  A    between atoms: C_14  and  N_15
REMARK    7  A    between atoms: C_29  and  C_30
REMARK                            x       y       z     vdW  Elec       q    Type
REMARK                         _______ _______ _______ _____ _____    ______ ____
ROOT
ATOM      1  C   UNL     1       2.270   6.258  19.699  0.00  0.00    +0.000 A 
ATOM      2  C   UNL     1       2.424   7.402  18.911  0.00  0.00    +0.000 A 
ATOM      3  C   UNL     1       1.796   8.608  19.260  0.00  0.00    +0.000 A 
ATOM      4  C   UNL     1       0.995   8.708  20.404  0.00  0.00    +0.000 A 
ATOM      5  C   UNL     1       0.862   7.548  21.193  0.00  0.00    +0.000 A 
ATOM      6  C   UNL     1       1.476   6.334  20.841  0.00  0.00    +0.000 A 
ENDROOT
BRANCH   4   7
ATOM      7  N   UNL     1       0.220   9.874  20.698  0.00  0.00    +0.000 N 
ATOM      8  C   UNL     1       0.173  10.507  21.922  0.00  0.00    +0.000 C 
ATOM      9  O   UNL     1       0.500  10.080  23.025  0.00  0.00    +0.000 OA
ATOM     10  C   UNL     1      -0.256  11.937  21.693  0.00  0.00    +0.000 C 
ATOM     11  C   UNL     1      -1.072  12.533  22.836  0.00  0.00    +0.000 C 
ATOM     12  C   UNL     1      -2.517  12.768  22.546  0.00  0.00    +0.000 C 
ATOM     13  C   UNL     1      -3.058  12.694  21.327  0.00  0.00    +0.000 C 
ATOM     14  C   UNL     1      -2.294  12.363  20.089  0.00  0.00    +0.000 C 
ATOM     15  C   UNL     1      -0.839  11.938  20.288  0.00  0.00    +0.000 C 
ATOM     16  C   UNL     1      -0.558  10.542  19.779  0.00  0.00    +0.000 C 
ATOM     17  O   UNL     1      -0.977  10.133  18.703  0.00  0.00    +0.000 OA
ENDBRANCH   4   7
BRANCH   1  19
ATOM     18  N   UNL     1       2.751   4.604  17.949  0.00  0.00    +0.000 N 
ATOM     19  C   UNL     1       2.943   5.006  19.254  0.00  0.00    +0.000 C 
ATOM     20  O   UNL     1       3.620   4.363  20.052  0.00  0.00    +0.000 OA
ATOM     21  H   UNL     1       2.185   5.146  17.310  0.00  0.00    +0.000 HD
BRANCH  18  22
ATOM     22  C   UNL     1       3.363   3.377  17.473  0.00  0.00    +0.000 C 
BRANCH  22  23
ATOM     23  C   UNL     1       4.530   3.599  16.508  0.00  0.00    +0.000 C 
BRANCH  23  28
ATOM     24  C   UNL     1       7.882   8.208  17.781  0.00  0.00    +0.000 C 
ATOM     25  C   UNL     1       7.021   7.011  17.479  0.00  0.00    +0.000 A 
ATOM     26  C   UNL     1       6.065   7.093  16.458  0.00  0.00    +0.000 A 
ATOM     27  C   UNL     1       5.258   5.998  16.143  0.00  0.00    +0.000 A 
ATOM     28  C   UNL     1       5.396   4.793  16.837  0.00  0.00    +0.000 A 
ATOM     29  C   UNL     1       6.337   4.715  17.873  0.00  0.00    +0.000 A 
ATOM     30  C   UNL     1       7.152   5.811  18.203  0.00  0.00    +0.000 A 
ATOM     31  C   UNL     1       8.143   5.675  19.326  0.00  0.00    +0.000 C 
ENDBRANCH  23  28
ENDBRANCH  22  23
ENDBRANCH  18  22
ENDBRANCH   1  19
TORSDOF 5
ENDMDL
MODEL 3
REMARK VINA RESULT:      -8.6      5.672      8.223
REMARK  Name = 
REMARK  7 active torsions:
REMARK  status: ('A' for Active; 'I' for Inactive)
REMARK    1  A    between atoms: C_1  and  C_2
REMARK    2  A    between atoms: C_5  and  C_6
REMARK    3  A    between atoms: C_6  and  C_7
REMARK    4  A    between atoms: C_7  and  N_8
REMARK    5  A    between atoms: C_9  and  C_11
REMARK    6  A    between atoms: C_14  and  N_15
REMARK    7  A    between atoms: C_29  and  C_30
REMARK                            x       y       z     vdW  Elec       q    Type
REMARK                         _______ _______ _______ _____ _____    ______ ____
ROOT
ATOM      1  C   UNL     1       2.143   7.140  19.282  0.00  0.00    +0.000 A 
ATOM      2  C   UNL     1       2.203   7.918  18.123  0.00  0.00    +0.000 A 
ATOM      3  C   UNL     1       1.777   9.255  18.128  0.00  0.00    +0.000 A 
ATOM      4  C   UNL     1       1.278   9.856  19.291  0.00  0.00    +0.000 A 
ATOM      5  C   UNL     1       1.237   9.059  20.453  0.00  0.00    +0.000 A 
ATOM      6  C   UNL     1       1.648   7.716  20.450  0.00  0.00    +0.000 A 
ENDROOT
BRANCH   4   7
ATOM      7  N   UNL     1       0.693  11.161  19.290  0.00  0.00    +0.000 N 
ATOM      8  C   UNL     1       1.324  12.312  18.870  0.00  0.00    +0.000 C 
ATOM      9  O   UNL     1       2.523  12.522  18.716  0.00  0.00    +0.000 OA
ATOM     10  C   UNL     1       0.262  13.317  18.488  0.00  0.00    +0.000 C 
ATOM     11  C   UNL     1       0.656  14.768  18.742  0.00  0.00    +0.000 C 
ATOM     12  C   UNL     1      -0.063  15.449  19.857  0.00  0.00    +0.000 C 
ATOM     13  C   UNL     1      -1.138  14.948  20.471  0.00  0.00    +0.000 C 
ATOM     14  C   UNL     1      -1.766  13.639  20.128  0.00  0.00    +0.000 C 
ATOM     15  C   UNL     1      -1.015  12.776  19.115  0.00  0.00    +0.000 C 
ATOM     16  C   UNL     1      -0.601  11.434  19.676  0.00  0.00    +0.000 C 
ATOM     17  O   UNL     1      -1.351  10.740  20.352  0.00  0.00    +0.000 OA
ENDBRANCH   4   7
BRANCH   1  19
ATOM     18  N   UNL     1       2.361   5.049  18.013  0.00  0.00    +0.000 N 
ATOM     19  C   UNL     1       2.586   5.721  19.196  0.00  0.00    +0.000 C 
ATOM     20  O   UNL     1       3.110   5.187  20.171  0.00  0.00    +0.000 OA
ATOM     21  H   UNL     1       1.923   5.506  17.225  0.00  0.00    +0.000 HD
BRANCH  18  22
ATOM     22  C   UNL     1       2.750   3.657  17.887  0.00  0.00    +0.000 C 
BRANCH  22  23
ATOM     23  C   UNL     1       4.080   3.447  17.159  0.00  0.00    +0.000 C 
BRANCH  23  28
ATOM     24  C   UNL     1       7.781   7.948  17.534  0.00  0.00    +0.000 C 
ATOM     25  C   UNL     1       6.831   6.784  17.465  0.00  0.00    +0.000 A 
ATOM     26  C   UNL     1       5.845   6.761  16.470  0.00  0.00    +0.000 A 
ATOM     27  C   UNL     1       4.954   5.690  16.368  0.00  0.00    +0.000 A 
ATOM     28  C   UNL     1       5.037   4.613  17.256  0.00  0.00    +0.000 A 
ATOM     29  C   UNL     1       6.009   4.643  18.265  0.00  0.00    +0.000 A 
ATOM     30  C   UNL     1       6.908   5.717  18.381  0.00  0.00    +0.000 A 
ATOM     31  C   UNL     1       7.929   5.702  19.485  0.00  0.00    +0.000 C 
ENDBRANCH  23  28
ENDBRANCH  22  23
ENDBRANCH  18  22
ENDBRANCH   1  19
TORSDOF 5
ENDMDL
MODEL 4
REMARK VINA RESULT:      -8.5      1.477      1.875
REMARK  Name = 
REMARK  7 active torsions:
REMARK  status: ('A' for Active; 'I' for Inactive)
REMARK    1  A    between atoms: C_1  and  C_2
REMARK    2  A    between atoms: C_5  and  C_6
REMARK    3  A    between atoms: C_6  and  C_7
REMARK    4  A    between atoms: C_7  and  N_8
REMARK    5  A    between atoms: C_9  and  C_11
REMARK    6  A    between atoms: C_14  and  N_15
REMARK    7  A    between atoms: C_29  and  C_30
REMARK                            x       y       z     vdW  Elec       q    Type
REMARK                         _______ _______ _______ _____ _____    ______ ____
ROOT
ATOM      1  C   UNL     1       8.610   9.714  18.345  0.00  0.00    +0.000 A 
ATOM      2  C   UNL     1       8.325  10.821  17.539  0.00  0.00    +0.000 A 
ATOM      3  C   UNL     1       8.839  12.090  17.849  0.00  0.00    +0.000 A 
ATOM      4  C   UNL     1       9.651  12.293  18.971  0.00  0.00    +0.000 A 
ATOM      5  C   UNL     1       9.937  11.164  19.764  0.00  0.00    +0.000 A 
ATOM      6  C   UNL     1       9.415   9.894  19.468  0.00  0.00    +0.000 A 
ENDROOT
BRANCH   4   7
ATOM      7  N   UNL     1      10.057  13.596  19.397  0.00  0.00    +0.000 N 
ATOM      8  C   UNL     1       9.244  14.514  20.027  0.00  0.00    +0.000 C 
ATOM      9  O   UNL     1       8.019  14.552  20.079  0.00  0.00    +0.000 OA
ATOM     10  C   UNL     1      10.125  15.471  20.797  0.00  0.00    +0.000 C 
ATOM     11  C   UNL     1       9.569  16.888  20.894  0.00  0.00    +0.000 C 
ATOM     12  C   UNL     1      10.296  17.924  20.103  0.00  0.00    +0.000 C 
ATOM     13  C   UNL     1      11.480  17.726  19.519  0.00  0.00    +0.000 C 
ATOM     14  C   UNL     1      12.239  16.442  19.574  0.00  0.00    +0.000 C 
ATOM     15  C   UNL     1      11.514  15.259  20.215  0.00  0.00    +0.000 C 
ATOM     16  C   UNL     1      11.335  14.095  19.266  0.00  0.00    +0.000 C 
ATOM     17  O   UNL     1      12.230  13.698  18.529  0.00  0.00    +0.000 OA
ENDBRANCH   4   7
BRANCH   1  19
ATOM     18  N   UNL     1       8.309   7.313  18.761  0.00  0.00    +0.000 N 
ATOM     19  C   UNL     1       8.009   8.404  17.972  0.00  0.00    +0.000 C 
ATOM     20  O   UNL     1       7.294   8.324  16.976  0.00  0.00    +0.000 OA
ATOM     21  H   UNL     1       8.904   7.400  19.573  0.00  0.00    +0.000 HD
BRANCH  18  22
ATOM     22  C   UNL     1       7.770   6.008  18.425  0.00  0.00    +0.000 C 
BRANCH  22  23
ATOM     23  C   UNL     1       6.828   5.434  19.486  0.00  0.00    +0.000 C 
BRANCH  23  28
ATOM     24  C   UNL     1       1.464   4.184  17.547  0.00  0.00    +0.000 C 
ATOM     25  C   UNL     1       2.854   4.480  18.040  0.00  0.00    +0.000 A 
ATOM     26  C   UNL     1       3.316   5.803  18.038  0.00  0.00    +0.000 A 
ATOM     27  C   UNL     1       4.596   6.116  18.501  0.00  0.00    +0.000 A 
ATOM     28  C   UNL     1       5.440   5.112  18.983  0.00  0.00    +0.000 A 
ATOM     29  C   UNL     1       4.989   3.785  18.967  0.00  0.00    +0.000 A 
ATOM     30  C   UNL     1       3.704   3.457  18.500  0.00  0.00    +0.000 A 
ATOM     31  C   UNL     1       3.271   2.016  18.500  0.00  0.00    +0.000 C 
ENDBRANCH  23  28
ENDBRANCH  22  23
ENDBRANCH  18  22
ENDBRANCH   1  19
TORSDOF 5
ENDMDL
MODEL 5
REMARK VINA RESULT:      -8.5      0.556      1.093
REMARK  Name = 
REMARK  7 active torsions:
REMARK  status: ('A' for Active; 'I' for Inactive)
REMARK    1  A    between atoms: C_1  and  C_2
REMARK    2  A    between atoms: C_5  and  C_6
REMARK    3  A    between atoms: C_6  and  C_7
REMARK    4  A    between atoms: C_7  and  N_8
REMARK    5  A    between atoms: C_9  and  C_11
REMARK    6  A    between atoms: C_14  and  N_15
REMARK    7  A    between atoms: C_29  and  C_30
REMARK                            x       y       z     vdW  Elec       q    Type
REMARK                         _______ _______ _______ _____ _____    ______ ____
ROOT
ATOM      1  C   UNL     1       8.477   9.375  18.245  0.00  0.00    +0.000 A 
ATOM      2  C   UNL     1       7.916  10.392  17.468  0.00  0.00    +0.000 A 
ATOM      3  C   UNL     1       8.328  11.726  17.618  0.00  0.00    +0.000 A 
ATOM      4  C   UNL     1       9.311  12.084  18.548  0.00  0.00    +0.000 A 
ATOM      5  C   UNL     1       9.874  11.044  19.313  0.00  0.00    +0.000 A 
ATOM      6  C   UNL     1       9.456   9.709  19.179  0.00  0.00    +0.000 A 
ENDROOT
BRANCH   4   7
ATOM      7  N   UNL     1       9.637  13.447  18.832  0.00  0.00    +0.000 N 
ATOM      8  C   UNL     1       9.049  14.216  19.813  0.00  0.00    +0.000 C 
ATOM      9  O   UNL     1       7.989  14.033  20.405  0.00  0.00    +0.000 OA
ATOM     10  C   UNL     1      10.003  15.330  20.172  0.00  0.00    +0.000 C 
ATOM     11  C   UNL     1       9.318  16.626  20.596  0.00  0.00    +0.000 C 
ATOM     12  C   UNL     1       9.427  17.760  19.632  0.00  0.00    +0.000 C 
ATOM     13  C   UNL     1      10.240  17.767  18.573  0.00  0.00    +0.000 C 
ATOM     14  C   UNL     1      11.149  16.643  18.204  0.00  0.00    +0.000 C 
ATOM     15  C   UNL     1      11.000  15.361  19.023  0.00  0.00    +0.000 C 
ATOM     16  C   UNL     1      10.616  14.165  18.180  0.00  0.00    +0.000 C 
ATOM     17  O   UNL     1      11.140  13.922  17.100  0.00  0.00    +0.000 OA
ENDBRANCH   4   7
BRANCH   1  19
ATOM     18  N   UNL     1       7.064   7.771  17.038  0.00  0.00    +0.000 N 
ATOM     19  C   UNL     1       7.973   7.987  18.052  0.00  0.00    +0.000 C 
ATOM     20  O   UNL     1       8.354   7.092  18.803  0.00  0.00    +0.000 OA
ATOM     21  H   UNL     1       6.760   8.522  16.435  0.00  0.00    +0.000 HD
BRANCH  18  22
ATOM     22  C   UNL     1       6.522   6.441  16.825  0.00  0.00    +0.000 C 
BRANCH  22  23
ATOM     23  C   UNL     1       5.081   6.433  16.308  0.00  0.00    +0.000 C 
BRANCH  23  28
ATOM     24  C   UNL     1       1.315   3.530  19.697  0.00  0.00    +0.000 C 
ATOM     25  C   UNL     1       2.286   4.256  18.806  0.00  0.00    +0.000 A 
ATOM     26  C   UNL     1       2.301   5.657  18.805  0.00  0.00    +0.000 A 
ATOM     27  C   UNL     1       3.197   6.364  18.001  0.00  0.00    +0.000 A 
ATOM     28  C   UNL     1       4.105   5.683  17.185  0.00  0.00    +0.000 A 
ATOM     29  C   UNL     1       4.078   4.282  17.168  0.00  0.00    +0.000 A 
ATOM     30  C   UNL     1       3.178   3.559  17.969  0.00  0.00    +0.000 A 
ATOM     31  C   UNL     1       3.188   2.056  17.910  0.00  0.00    +0.000 C 
ENDBRANCH  23  28
ENDBRANCH  22  23
ENDBRANCH  18  22
ENDBRANCH   1  19
TORSDOF 5
ENDMDL
MODEL 6
REMARK VINA RESULT:      -8.4      5.584      7.811
REMARK  Name = 
REMARK  7 active torsions:
REMARK  status: ('A' for Active; 'I' for Inactive)
REMARK    1  A    between atoms: C_1  and  C_2
REMARK    2  A    between atoms: C_5  and  C_6
REMARK    3  A    between atoms: C_6  and  C_7
REMARK    4  A    between atoms: C_7  and  N_8
REMARK    5  A    between atoms: C_9  and  C_11
REMARK    6  A    between atoms: C_14  and  N_15
REMARK    7  A    between atoms: C_29  and  C_30
REMARK                            x       y       z     vdW  Elec       q    Type
REMARK                         _______ _______ _______ _____ _____    ______ ____
ROOT
ATOM      1  C   UNL     1       2.105   7.184  19.222  0.00  0.00    +0.000 A 
ATOM      2  C   UNL     1       1.676   7.684  20.455  0.00  0.00    +0.000 A 
ATOM      3  C   UNL     1       1.251   9.015  20.585  0.00  0.00    +0.000 A 
ATOM      4  C   UNL     1       1.243   9.887  19.490  0.00  0.00    +0.000 A 
ATOM      5  C   UNL     1       1.666   9.362  18.253  0.00  0.00    +0.000 A 
ATOM      6  C   UNL     1       2.106   8.035  18.119  0.00  0.00    +0.000 A 
ENDROOT
BRANCH   4   7
ATOM      7  N   UNL     1       0.966  11.284  19.624  0.00  0.00    +0.000 N 
ATOM      8  C   UNL     1      -0.100  11.819  20.314  0.00  0.00    +0.000 C 
ATOM      9  O   UNL     1      -1.140  11.273  20.671  0.00  0.00    +0.000 OA
ATOM     10  C   UNL     1       0.254  13.235  20.703  0.00  0.00    +0.000 C 
ATOM     11  C   UNL     1      -0.938  14.185  20.752  0.00  0.00    +0.000 C 
ATOM     12  C   UNL     1      -0.990  15.215  19.673  0.00  0.00    +0.000 C 
ATOM     13  C   UNL     1       0.018  15.477  18.838  0.00  0.00    +0.000 C 
ATOM     14  C   UNL     1       1.334  14.774  18.866  0.00  0.00    +0.000 C 
ATOM     15  C   UNL     1       1.443  13.584  19.819  0.00  0.00    +0.000 C 
ATOM     16  C   UNL     1       1.758  12.287  19.108  0.00  0.00    +0.000 C 
ATOM     17  O   UNL     1       2.604  12.204  18.226  0.00  0.00    +0.000 OA
ENDBRANCH   4   7
BRANCH   1  19
ATOM     18  N   UNL     1       2.350   5.072  17.994  0.00  0.00    +0.000 N 
ATOM     19  C   UNL     1       2.568   5.769  19.163  0.00  0.00    +0.000 C 
ATOM     20  O   UNL     1       3.100   5.262  20.148  0.00  0.00    +0.000 OA
ATOM     21  H   UNL     1       1.906   5.507  17.197  0.00  0.00    +0.000 HD
BRANCH  18  22
ATOM     22  C   UNL     1       2.759   3.683  17.894  0.00  0.00    +0.000 C 
BRANCH  22  23
ATOM     23  C   UNL     1       4.077   3.475  17.145  0.00  0.00    +0.000 C 
BRANCH  23  28
ATOM     24  C   UNL     1       7.817   7.942  17.541  0.00  0.00    +0.000 C 
ATOM     25  C   UNL     1       6.857   6.786  17.466  0.00  0.00    +0.000 A 
ATOM     26  C   UNL     1       5.874   6.774  16.467  0.00  0.00    +0.000 A 
ATOM     27  C   UNL     1       4.975   5.711  16.360  0.00  0.00    +0.000 A 
ATOM     28  C   UNL     1       5.044   4.633  17.247  0.00  0.00    +0.000 A 
ATOM     29  C   UNL     1       6.012   4.653  18.260  0.00  0.00    +0.000 A 
ATOM     30  C   UNL     1       6.921   5.718  18.380  0.00  0.00    +0.000 A 
ATOM     31  C   UNL     1       7.938   5.692  19.488  0.00  0.00    +0.000 C 
ENDBRANCH  23  28
ENDBRANCH  22  23
ENDBRANCH  18  22
ENDBRANCH   1  19
TORSDOF 5
ENDMDL
MODEL 7
REMARK VINA RESULT:      -8.4      5.924      8.839
REMARK  Name = 
REMARK  7 active torsions:
REMARK  status: ('A' for Active; 'I' for Inactive)
REMARK    1  A    between atoms: C_1  and  C_2
REMARK    2  A    between atoms: C_5  and  C_6
REMARK    3  A    between atoms: C_6  and  C_7
REMARK    4  A    between atoms: C_7  and  N_8
REMARK    5  A    between atoms: C_9  and  C_11
REMARK    6  A    between atoms: C_14  and  N_15
REMARK    7  A    between atoms: C_29  and  C_30
REMARK                            x       y       z     vdW  Elec       q    Type
REMARK                         _______ _______ _______ _____ _____    ______ ____
ROOT
ATOM      1  C   UNL     1       2.274   6.193  19.664  0.00  0.00    +0.000 A 
ATOM      2  C   UNL     1       2.443   7.297  18.824  0.00  0.00    +0.000 A 
ATOM      3  C   UNL     1       1.859   8.536  19.135  0.00  0.00    +0.000 A 
ATOM      4  C   UNL     1       1.090   8.709  20.292  0.00  0.00    +0.000 A 
ATOM      5  C   UNL     1       0.941   7.588  21.132  0.00  0.00    +0.000 A 
ATOM      6  C   UNL     1       1.510   6.342  20.820  0.00  0.00    +0.000 A 
ENDROOT
BRANCH   4   7
ATOM      7  N   UNL     1       0.357   9.909  20.553  0.00  0.00    +0.000 N 
ATOM      8  C   UNL     1      -0.282  10.672  19.599  0.00  0.00    +0.000 C 
ATOM      9  O   UNL     1      -0.121  10.678  18.382  0.00  0.00    +0.000 OA
ATOM     10  C   UNL     1      -1.364  11.472  20.285  0.00  0.00    +0.000 C 
ATOM     11  C   UNL     1      -1.631  12.833  19.649  0.00  0.00    +0.000 C 
ATOM     12  C   UNL     1      -1.195  14.016  20.447  0.00  0.00    +0.000 C 
ATOM     13  C   UNL     1      -0.804  13.956  21.723  0.00  0.00    +0.000 C 
ATOM     14  C   UNL     1      -0.746  12.699  22.525  0.00  0.00    +0.000 C 
ATOM     15  C   UNL     1      -1.009  11.401  21.762  0.00  0.00    +0.000 C 
ATOM     16  C   UNL     1       0.161  10.444  21.807  0.00  0.00    +0.000 C 
ATOM     17  O   UNL     1       0.789  10.214  22.834  0.00  0.00    +0.000 OA
ENDBRANCH   4   7
BRANCH   1  19
ATOM     18  N   UNL     1       2.777   4.519  17.940  0.00  0.00    +0.000 N 
ATOM     19  C   UNL     1       2.898   4.903  19.259  0.00  0.00    +0.000 C 
ATOM     20  O   UNL     1       3.474   4.216  20.099  0.00  0.00    +0.000 OA
ATOM     21  H   UNL     1       2.295   5.098  17.266  0.00  0.00    +0.000 HD
BRANCH  18  22
ATOM     22  C   UNL     1       3.346   3.258  17.499  0.00  0.00    +0.000 C 
BRANCH  22  23
ATOM     23  C   UNL     1       4.576   3.412  16.602  0.00  0.00    +0.000 C 
BRANCH  23  28
ATOM     24  C   UNL     1       7.794   8.160  17.694  0.00  0.00    +0.000 C 
ATOM     25  C   UNL     1       6.967   6.929  17.440  0.00  0.00    +0.000 A 
ATOM     26  C   UNL     1       6.034   6.933  16.394  0.00  0.00    +0.000 A 
ATOM     27  C   UNL     1       5.260   5.803  16.121  0.00  0.00    +0.000 A 
ATOM     28  C   UNL     1       5.408   4.642  16.884  0.00  0.00    +0.000 A 
ATOM     29  C   UNL     1       6.325   4.642  17.944  0.00  0.00    +0.000 A 
ATOM     30  C   UNL     1       7.107   5.773  18.231  0.00  0.00    +0.000 A 
ATOM     31  C   UNL     1       8.074   5.723  19.383  0.00  0.00    +0.000 C 
ENDBRANCH  23  28
ENDBRANCH  22  23
ENDBRANCH  18  22
ENDBRANCH   1  19
TORSDOF 5
ENDMDL
MODEL 8
REMARK VINA RESULT:      -8.4      0.821      2.064
REMARK  Name = 
REMARK  7 active torsions:
REMARK  status: ('A' for Active; 'I' for Inactive)
REMARK    1  A    between atoms: C_1  and  C_2
REMARK    2  A    between atoms: C_5  and  C_6
REMARK    3  A    between atoms: C_6  and  C_7
REMARK    4  A    between atoms: C_7  and  N_8
REMARK    5  A    between atoms: C_9  and  C_11
REMARK    6  A    between atoms: C_14  and  N_15
REMARK    7  A    between atoms: C_29  and  C_30
REMARK                            x       y       z     vdW  Elec       q    Type
REMARK                         _______ _______ _______ _____ _____    ______ ____
ROOT
ATOM      1  C   UNL     1       8.565   9.487  18.391  0.00  0.00    +0.000 A 
ATOM      2  C   UNL     1       8.136  10.482  17.509  0.00  0.00    +0.000 A 
ATOM      3  C   UNL     1       8.525  11.819  17.685  0.00  0.00    +0.000 A 
ATOM      4  C   UNL     1       9.353  12.203  18.748  0.00  0.00    +0.000 A 
ATOM      5  C   UNL     1       9.784  11.184  19.620  0.00  0.00    +0.000 A 
ATOM      6  C   UNL     1       9.387   9.846  19.457  0.00  0.00    +0.000 A 
ENDROOT
BRANCH   4   7
ATOM      7  N   UNL     1       9.636  13.573  19.043  0.00  0.00    +0.000 N 
ATOM      8  C   UNL     1      10.515  14.370  18.341  0.00  0.00    +0.000 C 
ATOM      9  O   UNL     1      11.412  14.038  17.572  0.00  0.00    +0.000 OA
ATOM     10  C   UNL     1      10.125  15.812  18.568  0.00  0.00    +0.000 C 
ATOM     11  C   UNL     1      11.300  16.784  18.559  0.00  0.00    +0.000 C 
ATOM     12  C   UNL     1      11.657  17.381  19.880  0.00  0.00    +0.000 C 
ATOM     13  C   UNL     1      10.899  17.283  20.975  0.00  0.00    +0.000 C 
ATOM     14  C   UNL     1       9.593  16.563  21.031  0.00  0.00    +0.000 C 
ATOM     15  C   UNL     1       9.208  15.770  19.782  0.00  0.00    +0.000 C 
ATOM     16  C   UNL     1       9.035  14.292  20.053  0.00  0.00    +0.000 C 
ATOM     17  O   UNL     1       8.433  13.864  21.031  0.00  0.00    +0.000 OA
ENDBRANCH   4   7
BRANCH   1  19
ATOM     18  N   UNL     1       7.187   7.886  17.139  0.00  0.00    +0.000 N 
ATOM     19  C   UNL     1       8.090   8.094  18.159  0.00  0.00    +0.000 C 
ATOM     20  O   UNL     1       8.491   7.187  18.885  0.00  0.00    +0.000 OA
ATOM     21  H   UNL     1       6.867   8.648  16.557  0.00  0.00    +0.000 HD
BRANCH  18  22
ATOM     22  C   UNL     1       6.674   6.552  16.888  0.00  0.00    +0.000 C 
BRANCH  22  23
ATOM     23  C   UNL     1       5.266   6.530  16.288  0.00  0.00    +0.000 C 
BRANCH  23  28
ATOM     24  C   UNL     1       1.254   3.921  19.633  0.00  0.00    +0.000 C 
ATOM     25  C   UNL     1       2.286   4.572  18.753  0.00  0.00    +0.000 A 
ATOM     26  C   UNL     1       2.437   5.965  18.787  0.00  0.00    +0.000 A 
ATOM     27  C   UNL     1       3.394   6.601  17.993  0.00  0.00    +0.000 A 
ATOM     28  C   UNL     1       4.226   5.856  17.154  0.00  0.00    +0.000 A 
ATOM     29  C   UNL     1       4.063   4.465  17.102  0.00  0.00    +0.000 A 
ATOM     30  C   UNL     1       3.102   3.813  17.893  0.00  0.00    +0.000 A 
ATOM     31  C   UNL     1       2.965   2.318  17.796  0.00  0.00    +0.000 C 
ENDBRANCH  23  28
ENDBRANCH  22  23
ENDBRANCH  18  22
ENDBRANCH   1  19
TORSDOF 5
ENDMDL
MODEL 9
REMARK VINA RESULT:      -8.3      7.374      9.033
REMARK  Name = 
REMARK  7 active torsions:
REMARK  status: ('A' for Active; 'I' for Inactive)
REMARK    1  A    between atoms: C_1  and  C_2
REMARK    2  A    between atoms: C_5  and  C_6
REMARK    3  A    between atoms: C_6  and  C_7
REMARK    4  A    between atoms: C_7  and  N_8
REMARK    5  A    between atoms: C_9  and  C_11
REMARK    6  A    between atoms: C_14  and  N_15
REMARK    7  A    between atoms: C_29  and  C_30
REMARK                            x       y       z     vdW  Elec       q    Type
REMARK                         _______ _______ _______ _____ _____    ______ ____
ROOT
ATOM      1  C   UNL     1       2.525   7.006  19.357  0.00  0.00    +0.000 A 
ATOM      2  C   UNL     1       2.428   7.920  18.304  0.00  0.00    +0.000 A 
ATOM      3  C   UNL     1       1.671   9.095  18.435  0.00  0.00    +0.000 A 
ATOM      4  C   UNL     1       0.987   9.392  19.621  0.00  0.00    +0.000 A 
ATOM      5  C   UNL     1       1.106   8.464  20.675  0.00  0.00    +0.000 A 
ATOM      6  C   UNL     1       1.850   7.280  20.545  0.00  0.00    +0.000 A 
ENDROOT
BRANCH   4   7
ATOM      7  N   UNL     1       0.086  10.497  19.730  0.00  0.00    +0.000 N 
ATOM      8  C   UNL     1       0.282  11.606  20.524  0.00  0.00    +0.000 C 
ATOM      9  O   UNL     1       1.046  11.749  21.474  0.00  0.00    +0.000 OA
ATOM     10  C   UNL     1      -0.539  12.740  19.957  0.00  0.00    +0.000 C 
ATOM     11  C   UNL     1      -1.060  13.717  21.007  0.00  0.00    +0.000 C 
ATOM     12  C   UNL     1      -2.531  13.676  21.256  0.00  0.00    +0.000 C 
ATOM     13  C   UNL     1      -3.402  13.017  20.487  0.00  0.00    +0.000 C 
ATOM     14  C   UNL     1      -3.026  12.230  19.277  0.00  0.00    +0.000 C 
ATOM     15  C   UNL     1      -1.528  12.061  19.022  0.00  0.00    +0.000 C 
ATOM     16  C   UNL     1      -1.090  10.614  19.021  0.00  0.00    +0.000 C 
ATOM     17  O   UNL     1      -1.721   9.732  18.451  0.00  0.00    +0.000 OA
ENDBRANCH   4   7
BRANCH   1  19
ATOM     18  N   UNL     1       4.682   5.905  18.954  0.00  0.00    +0.000 N 
ATOM     19  C   UNL     1       3.322   5.768  19.137  0.00  0.00    +0.000 C 
ATOM     20  O   UNL     1       2.756   4.678  19.101  0.00  0.00    +0.000 OA
ATOM     21  H   UNL     1       5.127   6.812  18.982  0.00  0.00    +0.000 HD
BRANCH  18  22
ATOM     22  C   UNL     1       5.501   4.732  18.711  0.00  0.00    +0.000 C 
BRANCH  22  23
ATOM     23  C   UNL     1       6.705   4.993  17.803  0.00  0.00    +0.000 C 
BRANCH  23  28
ATOM     24  C   UNL     1       5.891   3.520  12.211  0.00  0.00    +0.000 C 
ATOM     25  C   UNL     1       6.113   3.923  13.644  0.00  0.00    +0.000 A 
ATOM     26  C   UNL     1       5.268   3.414  14.639  0.00  0.00    +0.000 A 
ATOM     27  C   UNL     1       5.452   3.757  15.980  0.00  0.00    +0.000 A 
ATOM     28  C   UNL     1       6.493   4.611  16.356  0.00  0.00    +0.000 A 
ATOM     29  C   UNL     1       7.327   5.139  15.360  0.00  0.00    +0.000 A 
ATOM     30  C   UNL     1       7.149   4.805  14.007  0.00  0.00    +0.000 A 
ATOM     31  C   UNL     1       8.069   5.402  12.978  0.00  0.00    +0.000 C 
ENDBRANCH  23  28
ENDBRANCH  22  23
ENDBRANCH  18  22
ENDBRANCH   1  19
TORSDOF 5
ENDMDL
