MODEL 1
REMARK VINA RESULT:      -8.9      0.000      0.000
REMARK  Name = 
REMARK  5 active torsions:
REMARK  status: ('A' for Active; 'I' for Inactive)
REMARK    1  A    between atoms: C_1  and  C_2
REMARK    2  A    between atoms: C_5  and  N_6
REMARK    3  A    between atoms: N_9  and  C_10
REMARK    4  A    between atoms: C_13  and  C_14
REMARK    5  A    between atoms: C_17  and  C_18
REMARK                            x       y       z     vdW  Elec       q    Type
REMARK                         _______ _______ _______ _____ _____    ______ ____
ROOT
ATOM      1  N   UNL     1       2.218   8.090  19.318  0.00  0.00    +0.000 N 
ATOM      2  C   UNL     1       2.482   8.896  18.143  0.00  0.00    +0.000 C 
ATOM      3  C   UNL     1       3.593   8.202  17.436  0.00  0.00    +0.000 C 
ATOM      4  N   UNL     1       3.508   6.778  17.777  0.00  0.00    +0.000 N 
ATOM      5  C   UNL     1       2.813   6.706  19.158  0.00  0.00    +0.000 C 
ENDROOT
BRANCH   5   6
ATOM      6  C   UNL     1       1.725   5.611  19.226  0.00  0.00    +0.000 A 
ATOM      7  C   UNL     1       1.417   5.017  20.473  0.00  0.00    +0.000 A 
ATOM      8  C   UNL     1       1.436   3.621  20.576  0.00  0.00    +0.000 A 
ATOM      9  C   UNL     1       1.726   2.954  19.407  0.00  0.00    +0.000 A 
ATOM     10  C   UNL     1       1.590   3.558  18.178  0.00  0.00    +0.000 A 
ATOM     11  C   UNL     1       1.414   4.904  18.062  0.00  0.00    +0.000 A 
ATOM     12  O   UNL     1       2.222   2.842  17.185  0.00  0.00    +0.000 OA
ATOM     13  C   UNL     1       3.182   2.218  18.049  0.00  0.00    +0.000 C 
ATOM     14  O   UNL     1       2.568   1.870  19.318  0.00  0.00    +0.000 OA
ENDBRANCH   5   6
BRANCH   1  19
ATOM     15  C   UNL     1      -1.245  10.654  23.136  0.00  0.00    +0.000 C 
ATOM     16  C   UNL     1      -0.356   9.972  22.143  0.00  0.00    +0.000 A 
ATOM     17  C   UNL     1      -0.465  10.246  20.791  0.00  0.00    +0.000 A 
ATOM     18  C   UNL     1       0.377   9.602  19.879  0.00  0.00    +0.000 A 
ATOM     19  C   UNL     1       1.374   8.661  20.256  0.00  0.00    +0.000 A 
ATOM     20  C   UNL     1       1.440   8.387  21.618  0.00  0.00    +0.000 A 
ATOM     21  C   UNL     1       0.592   9.016  22.537  0.00  0.00    +0.000 A 
ENDBRANCH   1  19
BRANCH   4  22
ATOM     22  C   UNL     1       4.339   5.981  16.976  0.00  0.00    +0.000 A 
ATOM     23  C   UNL     1       4.739   6.424  15.678  0.00  0.00    +0.000 A 
ATOM     24  C   UNL     1       5.457   5.675  14.732  0.00  0.00    +0.000 A 
ATOM     25  C   UNL     1       5.847   4.384  15.018  0.00  0.00    +0.000 A 
ATOM     26  C   UNL     1       6.600   3.598  13.990  0.00  0.00    +0.000 C 
ATOM     27  C   UNL     1       5.551   3.912  16.297  0.00  0.00    +0.000 A 
ATOM     28  C   UNL     1       4.827   4.701  17.248  0.00  0.00    +0.000 A 
ENDBRANCH   4  22
TORSDOF 3
ENDMDL
MODEL 2
REMARK VINA RESULT:      -8.1      1.007      6.833
REMARK  Name = 
REMARK  5 active torsions:
REMARK  status: ('A' for Active; 'I' for Inactive)
REMARK    1  A    between atoms: C_1  and  C_2
REMARK    2  A    between atoms: C_5  and  N_6
REMARK    3  A    between atoms: N_9  and  C_10
REMARK    4  A    between atoms: C_13  and  C_14
REMARK    5  A    between atoms: C_17  and  C_18
REMARK                            x       y       z     vdW  Elec       q    Type
REMARK                         _______ _______ _______ _____ _____    ______ ____
ROOT
ATOM      1  N   UNL     1       3.278   6.839  17.642  0.00  0.00    +0.000 N 
ATOM      2  C   UNL     1       3.549   8.257  17.516  0.00  0.00    +0.000 C 
ATOM      3  C   UNL     1       2.465   8.931  18.281  0.00  0.00    +0.000 C 
ATOM      4  N   UNL     1       2.021   8.000  19.325  0.00  0.00    +0.000 N 
ATOM      5  C   UNL     1       2.332   6.579  18.795  0.00  0.00    +0.000 C 
ENDROOT
BRANCH   5   6
ATOM      6  C   UNL     1       2.978   5.669  19.863  0.00  0.00    +0.000 A 
ATOM      7  C   UNL     1       4.347   5.330  19.748  0.00  0.00    +0.000 A 
ATOM      8  C   UNL     1       4.713   3.980  19.794  0.00  0.00    +0.000 A 
ATOM      9  C   UNL     1       3.672   3.101  19.989  0.00  0.00    +0.000 A 
ATOM     10  C   UNL     1       2.466   3.512  20.510  0.00  0.00    +0.000 A 
ATOM     11  C   UNL     1       2.152   4.834  20.619  0.00  0.00    +0.000 A 
ATOM     12  O   UNL     1       1.482   2.566  20.327  0.00  0.00    +0.000 OA
ATOM     13  C   UNL     1       2.077   1.963  19.170  0.00  0.00    +0.000 C 
ATOM     14  O   UNL     1       3.521   1.912  19.315  0.00  0.00    +0.000 OA
ENDBRANCH   5   6
BRANCH   1  19
ATOM     15  C   UNL     1       6.359   3.544  14.065  0.00  0.00    +0.000 C 
ATOM     16  C   UNL     1       5.569   4.396  15.010  0.00  0.00    +0.000 A 
ATOM     17  C   UNL     1       5.840   5.746  15.141  0.00  0.00    +0.000 A 
ATOM     18  C   UNL     1       5.089   6.525  16.026  0.00  0.00    +0.000 A 
ATOM     19  C   UNL     1       4.027   6.013  16.819  0.00  0.00    +0.000 A 
ATOM     20  C   UNL     1       3.796   4.648  16.685  0.00  0.00    +0.000 A 
ATOM     21  C   UNL     1       4.552   3.856  15.812  0.00  0.00    +0.000 A 
ENDBRANCH   1  19
BRANCH   4  22
ATOM     22  C   UNL     1       1.183   8.609  20.270  0.00  0.00    +0.000 A 
ATOM     23  C   UNL     1       0.373   9.729  19.908  0.00  0.00    +0.000 A 
ATOM     24  C   UNL     1      -0.406  10.505  20.782  0.00  0.00    +0.000 A 
ATOM     25  C   UNL     1      -0.440  10.212  22.129  0.00  0.00    +0.000 A 
ATOM     26  C   UNL     1      -1.266  11.060  23.046  0.00  0.00    +0.000 C 
ATOM     27  C   UNL     1       0.273   9.086  22.541  0.00  0.00    +0.000 A 
ATOM     28  C   UNL     1       1.051   8.304  21.627  0.00  0.00    +0.000 A 
ENDBRANCH   4  22
TORSDOF 3
ENDMDL
MODEL 3
REMARK VINA RESULT:      -8.0      0.867      1.233
REMARK  Name = 
REMARK  5 active torsions:
REMARK  status: ('A' for Active; 'I' for Inactive)
REMARK    1  A    between atoms: C_1  and  C_2
REMARK    2  A    between atoms: C_5  and  N_6
REMARK    3  A    between atoms: N_9  and  C_10
REMARK    4  A    between atoms: C_13  and  C_14
REMARK    5  A    between atoms: C_17  and  C_18
REMARK                            x       y       z     vdW  Elec       q    Type
REMARK                         _______ _______ _______ _____ _____    ______ ____
ROOT
ATOM      1  N   UNL     1       1.852   8.425  19.601  0.00  0.00    +0.000 N 
ATOM      2  C   UNL     1       1.817   8.995  18.270  0.00  0.00    +0.000 C 
ATOM      3  C   UNL     1       2.979   8.394  17.558  0.00  0.00    +0.000 C 
ATOM      4  N   UNL     1       3.241   7.088  18.172  0.00  0.00    +0.000 N 
ATOM      5  C   UNL     1       2.716   7.181  19.625  0.00  0.00    +0.000 C 
ENDROOT
BRANCH   5   6
ATOM      6  C   UNL     1       1.906   5.937  20.052  0.00  0.00    +0.000 A 
ATOM      7  C   UNL     1       2.360   5.154  21.140  0.00  0.00    +0.000 A 
ATOM      8  C   UNL     1       2.514   3.775  20.959  0.00  0.00    +0.000 A 
ATOM      9  C   UNL     1       2.161   3.308  19.713  0.00  0.00    +0.000 A 
ATOM     10  C   UNL     1       1.345   4.032  18.874  0.00  0.00    +0.000 A 
ATOM     11  C   UNL     1       1.056   5.341  19.118  0.00  0.00    +0.000 A 
ATOM     12  O   UNL     1       1.378   3.545  17.586  0.00  0.00    +0.000 OA
ATOM     13  C   UNL     1       2.687   2.969  17.685  0.00  0.00    +0.000 C 
ATOM     14  O   UNL     1       2.882   2.381  18.997  0.00  0.00    +0.000 OA
ENDBRANCH   5   6
BRANCH   1  19
ATOM     15  C   UNL     1      -1.634  11.045  23.359  0.00  0.00    +0.000 C 
ATOM     16  C   UNL     1      -0.740  10.349  22.381  0.00  0.00    +0.000 A 
ATOM     17  C   UNL     1      -0.776  10.672  21.035  0.00  0.00    +0.000 A 
ATOM     18  C   UNL     1       0.070  10.014  20.138  0.00  0.00    +0.000 A 
ATOM     19  C   UNL     1       0.999   9.010  20.523  0.00  0.00    +0.000 A 
ATOM     20  C   UNL     1       0.992   8.689  21.876  0.00  0.00    +0.000 A 
ATOM     21  C   UNL     1       0.139   9.332  22.781  0.00  0.00    +0.000 A 
ENDBRANCH   1  19
BRANCH   4  22
ATOM     22  C   UNL     1       4.144   6.314  17.428  0.00  0.00    +0.000 A 
ATOM     23  C   UNL     1       4.955   5.328  18.068  0.00  0.00    +0.000 A 
ATOM     24  C   UNL     1       5.981   4.582  17.466  0.00  0.00    +0.000 A 
ATOM     25  C   UNL     1       6.286   4.766  16.134  0.00  0.00    +0.000 A 
ATOM     26  C   UNL     1       7.392   3.970  15.514  0.00  0.00    +0.000 C 
ATOM     27  C   UNL     1       5.484   5.665  15.429  0.00  0.00    +0.000 A 
ATOM     28  C   UNL     1       4.435   6.405  16.065  0.00  0.00    +0.000 A 
ENDBRANCH   4  22
TORSDOF 3
ENDMDL
MODEL 4
REMARK VINA RESULT:      -7.8      4.701      7.718
REMARK  Name = 
REMARK  5 active torsions:
REMARK  status: ('A' for Active; 'I' for Inactive)
REMARK    1  A    between atoms: C_1  and  C_2
REMARK    2  A    between atoms: C_5  and  N_6
REMARK    3  A    between atoms: N_9  and  C_10
REMARK    4  A    between atoms: C_13  and  C_14
REMARK    5  A    between atoms: C_17  and  C_18
REMARK                            x       y       z     vdW  Elec       q    Type
REMARK                         _______ _______ _______ _____ _____    ______ ____
ROOT
ATOM      1  N   UNL     1      -0.845  11.337  21.437  0.00  0.00    +0.000 N 
ATOM      2  C   UNL     1      -0.512  10.269  22.357  0.00  0.00    +0.000 C 
ATOM      3  C   UNL     1       0.011   9.167  21.502  0.00  0.00    +0.000 C 
ATOM      4  N   UNL     1       0.583   9.781  20.298  0.00  0.00    +0.000 N 
ATOM      5  C   UNL     1      -0.162  11.123  20.102  0.00  0.00    +0.000 C 
ENDROOT
BRANCH   5   6
ATOM      6  C   UNL     1       0.787  12.292  19.758  0.00  0.00    +0.000 A 
ATOM      7  C   UNL     1       1.752  12.704  20.709  0.00  0.00    +0.000 A 
ATOM      8  C   UNL     1       1.811  14.056  21.066  0.00  0.00    +0.000 A 
ATOM      9  C   UNL     1       0.920  14.872  20.404  0.00  0.00    +0.000 A 
ATOM     10  C   UNL     1       0.332  14.490  19.220  0.00  0.00    +0.000 A 
ATOM     11  C   UNL     1       0.397  13.204  18.776  0.00  0.00    +0.000 A 
ATOM     12  O   UNL     1      -0.741  15.293  18.901  0.00  0.00    +0.000 OA
ATOM     13  C   UNL     1      -1.039  15.674  20.251  0.00  0.00    +0.000 C 
ATOM     14  O   UNL     1       0.187  15.870  21.003  0.00  0.00    +0.000 OA
ENDBRANCH   5   6
BRANCH   1  19
ATOM     15  C   UNL     1      -3.813  15.620  23.885  0.00  0.00    +0.000 C 
ATOM     16  C   UNL     1      -3.035  14.519  23.235  0.00  0.00    +0.000 A 
ATOM     17  C   UNL     1      -1.780  14.168  23.702  0.00  0.00    +0.000 A 
ATOM     18  C   UNL     1      -1.071  13.134  23.084  0.00  0.00    +0.000 A 
ATOM     19  C   UNL     1      -1.566  12.388  21.980  0.00  0.00    +0.000 A 
ATOM     20  C   UNL     1      -2.818  12.782  21.517  0.00  0.00    +0.000 A 
ATOM     21  C   UNL     1      -3.530  13.826  22.120  0.00  0.00    +0.000 A 
ENDBRANCH   1  19
BRANCH   4  22
ATOM     22  C   UNL     1       1.333   8.873  19.536  0.00  0.00    +0.000 A 
ATOM     23  C   UNL     1       1.781   7.642  20.105  0.00  0.00    +0.000 A 
ATOM     24  C   UNL     1       2.639   6.712  19.496  0.00  0.00    +0.000 A 
ATOM     25  C   UNL     1       3.132   6.945  18.229  0.00  0.00    +0.000 A 
ATOM     26  C   UNL     1       4.056   5.948  17.604  0.00  0.00    +0.000 C 
ATOM     27  C   UNL     1       2.677   8.097  17.586  0.00  0.00    +0.000 A 
ATOM     28  C   UNL     1       1.792   9.024  18.225  0.00  0.00    +0.000 A 
ENDBRANCH   4  22
TORSDOF 3
ENDMDL
MODEL 5
REMARK VINA RESULT:      -7.8      3.869      9.375
REMARK  Name = 
REMARK  5 active torsions:
REMARK  status: ('A' for Active; 'I' for Inactive)
REMARK    1  A    between atoms: C_1  and  C_2
REMARK    2  A    between atoms: C_5  and  N_6
REMARK    3  A    between atoms: N_9  and  C_10
REMARK    4  A    between atoms: C_13  and  C_14
REMARK    5  A    between atoms: C_17  and  C_18
REMARK                            x       y       z     vdW  Elec       q    Type
REMARK                         _______ _______ _______ _____ _____    ______ ____
ROOT
ATOM      1  N   UNL     1       0.947   8.745  20.883  0.00  0.00    +0.000 N 
ATOM      2  C   UNL     1      -0.109   8.183  21.701  0.00  0.00    +0.000 C 
ATOM      3  C   UNL     1      -0.535   9.290  22.601  0.00  0.00    +0.000 C 
ATOM      4  N   UNL     1      -0.255  10.552  21.907  0.00  0.00    +0.000 N 
ATOM      5  C   UNL     1       0.909  10.259  20.931  0.00  0.00    +0.000 C 
ENDROOT
BRANCH   5   6
ATOM      6  C   UNL     1       0.683  10.864  19.528  0.00  0.00    +0.000 A 
ATOM      7  C   UNL     1       1.543  11.891  19.069  0.00  0.00    +0.000 A 
ATOM      8  C   UNL     1       0.979  13.080  18.595  0.00  0.00    +0.000 A 
ATOM      9  C   UNL     1      -0.398  13.110  18.590  0.00  0.00    +0.000 A 
ATOM     10  C   UNL     1      -1.146  11.956  18.638  0.00  0.00    +0.000 A 
ATOM     11  C   UNL     1      -0.582  10.755  18.948  0.00  0.00    +0.000 A 
ATOM     12  O   UNL     1      -2.465  12.215  18.941  0.00  0.00    +0.000 OA
ATOM     13  C   UNL     1      -2.211  13.439  19.644  0.00  0.00    +0.000 C 
ATOM     14  O   UNL     1      -1.154  14.188  18.989  0.00  0.00    +0.000 OA
ENDBRANCH   5   6
BRANCH   1  19
ATOM     15  C   UNL     1       3.786   5.005  17.552  0.00  0.00    +0.000 C 
ATOM     16  C   UNL     1       3.064   5.981  18.428  0.00  0.00    +0.000 A 
ATOM     17  C   UNL     1       2.850   7.283  18.009  0.00  0.00    +0.000 A 
ATOM     18  C   UNL     1       2.170   8.179  18.840  0.00  0.00    +0.000 A 
ATOM     19  C   UNL     1       1.660   7.834  20.121  0.00  0.00    +0.000 A 
ATOM     20  C   UNL     1       1.914   6.527  20.524  0.00  0.00    +0.000 A 
ATOM     21  C   UNL     1       2.607   5.626  19.706  0.00  0.00    +0.000 A 
ENDBRANCH   1  19
BRANCH   4  22
ATOM     22  C   UNL     1      -0.844  11.656  22.540  0.00  0.00    +0.000 A 
ATOM     23  C   UNL     1      -2.116  11.536  23.178  0.00  0.00    +0.000 A 
ATOM     24  C   UNL     1      -2.867  12.585  23.733  0.00  0.00    +0.000 A 
ATOM     25  C   UNL     1      -2.391  13.878  23.693  0.00  0.00    +0.000 A 
ATOM     26  C   UNL     1      -3.214  14.985  24.278  0.00  0.00    +0.000 C 
ATOM     27  C   UNL     1      -1.120  14.059  23.147  0.00  0.00    +0.000 A 
ATOM     28  C   UNL     1      -0.368  12.969  22.598  0.00  0.00    +0.000 A 
ENDBRANCH   4  22
TORSDOF 3
ENDMDL
MODEL 6
REMARK VINA RESULT:      -7.6      3.693      6.387
REMARK  Name = 
REMARK  5 active torsions:
REMARK  status: ('A' for Active; 'I' for Inactive)
REMARK    1  A    between atoms: C_1  and  C_2
REMARK    2  A    between atoms: C_5  and  N_6
REMARK    3  A    between atoms: N_9  and  C_10
REMARK    4  A    between atoms: C_13  and  C_14
REMARK    5  A    between atoms: C_17  and  C_18
REMARK                            x       y       z     vdW  Elec       q    Type
REMARK                         _______ _______ _______ _____ _____    ______ ____
ROOT
ATOM      1  N   UNL     1       0.047  10.172  21.883  0.00  0.00    +0.000 N 
ATOM      2  C   UNL     1       1.277   9.899  22.597  0.00  0.00    +0.000 C 
ATOM      3  C   UNL     1       1.734   8.574  22.096  0.00  0.00    +0.000 C 
ATOM      4  N   UNL     1       1.213   8.418  20.733  0.00  0.00    +0.000 N 
ATOM      5  C   UNL     1      -0.064   9.290  20.657  0.00  0.00    +0.000 C 
ENDROOT
BRANCH   5   6
ATOM      6  C   UNL     1      -0.141  10.128  19.362  0.00  0.00    +0.000 A 
ATOM      7  C   UNL     1       0.842  11.116  19.116  0.00  0.00    +0.000 A 
ATOM      8  C   UNL     1       0.427  12.419  18.815  0.00  0.00    +0.000 A 
ATOM      9  C   UNL     1      -0.937  12.596  18.753  0.00  0.00    +0.000 A 
ATOM     10  C   UNL     1      -1.796  11.535  18.579  0.00  0.00    +0.000 A 
ATOM     11  C   UNL     1      -1.373  10.247  18.715  0.00  0.00    +0.000 A 
ATOM     12  O   UNL     1      -3.099  11.883  18.860  0.00  0.00    +0.000 OA
ATOM     13  C   UNL     1      -2.771  12.947  19.762  0.00  0.00    +0.000 C 
ATOM     14  O   UNL     1      -1.607  13.672  19.286  0.00  0.00    +0.000 OA
ENDBRANCH   5   6
BRANCH   1  19
ATOM     15  C   UNL     1      -2.834  14.717  23.929  0.00  0.00    +0.000 C 
ATOM     16  C   UNL     1      -2.095  13.536  23.381  0.00  0.00    +0.000 A 
ATOM     17  C   UNL     1      -0.864  13.694  22.768  0.00  0.00    +0.000 A 
ATOM     18  C   UNL     1      -0.188  12.578  22.265  0.00  0.00    +0.000 A 
ATOM     19  C   UNL     1      -0.687  11.250  22.350  0.00  0.00    +0.000 A 
ATOM     20  C   UNL     1      -1.938  11.128  22.947  0.00  0.00    +0.000 A 
ATOM     21  C   UNL     1      -2.630  12.241  23.441  0.00  0.00    +0.000 A 
ENDBRANCH   1  19
BRANCH   4  22
ATOM     22  C   UNL     1       1.783   7.328  20.060  0.00  0.00    +0.000 A 
ATOM     23  C   UNL     1       2.391   7.502  18.779  0.00  0.00    +0.000 A 
ATOM     24  C   UNL     1       2.880   6.480  17.949  0.00  0.00    +0.000 A 
ATOM     25  C   UNL     1       2.800   5.163  18.346  0.00  0.00    +0.000 A 
ATOM     26  C   UNL     1       3.316   4.087  17.440  0.00  0.00    +0.000 C 
ATOM     27  C   UNL     1       2.282   4.926  19.620  0.00  0.00    +0.000 A 
ATOM     28  C   UNL     1       1.800   5.987  20.452  0.00  0.00    +0.000 A 
ENDBRANCH   4  22
TORSDOF 3
ENDMDL
MODEL 7
REMARK VINA RESULT:      -7.6      3.541      9.114
REMARK  Name = 
REMARK  5 active torsions:
REMARK  status: ('A' for Active; 'I' for Inactive)
REMARK    1  A    between atoms: C_1  and  C_2
REMARK    2  A    between atoms: C_5  and  N_6
REMARK    3  A    between atoms: N_9  and  C_10
REMARK    4  A    between atoms: C_13  and  C_14
REMARK    5  A    between atoms: C_17  and  C_18
REMARK                            x       y       z     vdW  Elec       q    Type
REMARK                         _______ _______ _______ _____ _____    ______ ____
ROOT
ATOM      1  N   UNL     1       1.094   8.739  20.589  0.00  0.00    +0.000 N 
ATOM      2  C   UNL     1       0.150   8.140  21.510  0.00  0.00    +0.000 C 
ATOM      3  C   UNL     1      -0.283   9.250  22.402  0.00  0.00    +0.000 C 
ATOM      4  N   UNL     1      -0.152  10.499  21.643  0.00  0.00    +0.000 N 
ATOM      5  C   UNL     1       0.951  10.247  20.586  0.00  0.00    +0.000 C 
ENDROOT
BRANCH   5   6
ATOM      6  C   UNL     1       0.571  10.776  19.185  0.00  0.00    +0.000 A 
ATOM      7  C   UNL     1       0.772  12.144  18.883  0.00  0.00    +0.000 A 
ATOM      8  C   UNL     1      -0.299  12.887  18.373  0.00  0.00    +0.000 A 
ATOM      9  C   UNL     1      -1.461  12.174  18.179  0.00  0.00    +0.000 A 
ATOM     10  C   UNL     1      -1.460  10.801  18.086  0.00  0.00    +0.000 A 
ATOM     11  C   UNL     1      -0.367  10.065  18.433  0.00  0.00    +0.000 A 
ATOM     12  O   UNL     1      -2.729  10.280  18.213  0.00  0.00    +0.000 OA
ATOM     13  C   UNL     1      -3.254  11.370  18.983  0.00  0.00    +0.000 C 
ATOM     14  O   UNL     1      -2.717  12.631  18.504  0.00  0.00    +0.000 OA
ENDBRANCH   5   6
BRANCH   1  19
ATOM     15  C   UNL     1       4.182   4.992  17.496  0.00  0.00    +0.000 C 
ATOM     16  C   UNL     1       3.364   5.962  18.290  0.00  0.00    +0.000 A 
ATOM     17  C   UNL     1       2.810   5.594  19.503  0.00  0.00    +0.000 A 
ATOM     18  C   UNL     1       2.051   6.515  20.231  0.00  0.00    +0.000 A 
ATOM     19  C   UNL     1       1.809   7.849  19.804  0.00  0.00    +0.000 A 
ATOM     20  C   UNL     1       2.356   8.180  18.569  0.00  0.00    +0.000 A 
ATOM     21  C   UNL     1       3.105   7.260  17.825  0.00  0.00    +0.000 A 
ENDBRANCH   1  19
BRANCH   4  22
ATOM     22  C   UNL     1      -0.766  11.585  22.282  0.00  0.00    +0.000 A 
ATOM     23  C   UNL     1      -1.939  11.393  23.075  0.00  0.00    +0.000 A 
ATOM     24  C   UNL     1      -2.719  12.405  23.659  0.00  0.00    +0.000 A 
ATOM     25  C   UNL     1      -2.377  13.730  23.492  0.00  0.00    +0.000 A 
ATOM     26  C   UNL     1      -3.230  14.794  24.111  0.00  0.00    +0.000 C 
ATOM     27  C   UNL     1      -1.201  13.987  22.787  0.00  0.00    +0.000 A 
ATOM     28  C   UNL     1      -0.417  12.936  22.211  0.00  0.00    +0.000 A 
ENDBRANCH   4  22
TORSDOF 3
ENDMDL
MODEL 8
REMARK VINA RESULT:      -7.6      4.622      7.500
REMARK  Name = 
REMARK  5 active torsions:
REMARK  status: ('A' for Active; 'I' for Inactive)
REMARK    1  A    between atoms: C_1  and  C_2
REMARK    2  A    between atoms: C_5  and  N_6
REMARK    3  A    between atoms: N_9  and  C_10
REMARK    4  A    between atoms: C_13  and  C_14
REMARK    5  A    between atoms: C_17  and  C_18
REMARK                            x       y       z     vdW  Elec       q    Type
REMARK                         _______ _______ _______ _____ _____    ______ ____
ROOT
ATOM      1  N   UNL     1      -0.815  11.225  21.454  0.00  0.00    +0.000 N 
ATOM      2  C   UNL     1      -0.562  10.232  22.478  0.00  0.00    +0.000 C 
ATOM      3  C   UNL     1       0.012   9.064  21.755  0.00  0.00    +0.000 C 
ATOM      4  N   UNL     1       0.680   9.578  20.553  0.00  0.00    +0.000 N 
ATOM      5  C   UNL     1      -0.036  10.903  20.196  0.00  0.00    +0.000 C 
ENDROOT
BRANCH   5   6
ATOM      6  C   UNL     1       0.949  12.037  19.834  0.00  0.00    +0.000 A 
ATOM      7  C   UNL     1       1.818  12.545  20.829  0.00  0.00    +0.000 A 
ATOM      8  C   UNL     1       1.848  13.925  21.057  0.00  0.00    +0.000 A 
ATOM      9  C   UNL     1       1.030  14.669  20.236  0.00  0.00    +0.000 A 
ATOM     10  C   UNL     1       0.559  14.171  19.043  0.00  0.00    +0.000 A 
ATOM     11  C   UNL     1       0.660  12.848  18.734  0.00  0.00    +0.000 A 
ATOM     12  O   UNL     1      -0.475  14.934  18.544  0.00  0.00    +0.000 OA
ATOM     13  C   UNL     1      -0.901  15.443  19.815  0.00  0.00    +0.000 C 
ATOM     14  O   UNL     1       0.247  15.717  20.661  0.00  0.00    +0.000 OA
ENDBRANCH   5   6
BRANCH   1  19
ATOM     15  C   UNL     1      -3.940  15.831  22.925  0.00  0.00    +0.000 C 
ATOM     16  C   UNL     1      -3.136  14.623  22.557  0.00  0.00    +0.000 A 
ATOM     17  C   UNL     1      -3.545  13.785  21.534  0.00  0.00    +0.000 A 
ATOM     18  C   UNL     1      -2.778  12.664  21.203  0.00  0.00    +0.000 A 
ATOM     19  C   UNL     1      -1.565  12.318  21.856  0.00  0.00    +0.000 A 
ATOM     20  C   UNL     1      -1.194  13.164  22.896  0.00  0.00    +0.000 A 
ATOM     21  C   UNL     1      -1.962  14.281  23.246  0.00  0.00    +0.000 A 
ENDBRANCH   1  19
BRANCH   4  22
ATOM     22  C   UNL     1       1.476   8.610  19.924  0.00  0.00    +0.000 A 
ATOM     23  C   UNL     1       1.926   8.800  18.582  0.00  0.00    +0.000 A 
ATOM     24  C   UNL     1       2.615   7.860  17.798  0.00  0.00    +0.000 A 
ATOM     25  C   UNL     1       2.920   6.617  18.311  0.00  0.00    +0.000 A 
ATOM     26  C   UNL     1       3.644   5.625  17.454  0.00  0.00    +0.000 C 
ATOM     27  C   UNL     1       2.572   6.389  19.642  0.00  0.00    +0.000 A 
ATOM     28  C   UNL     1       1.880   7.370  20.424  0.00  0.00    +0.000 A 
ENDBRANCH   4  22
TORSDOF 3
ENDMDL
MODEL 9
REMARK VINA RESULT:      -7.6      3.544      9.028
REMARK  Name = 
REMARK  5 active torsions:
REMARK  status: ('A' for Active; 'I' for Inactive)
REMARK    1  A    between atoms: C_1  and  C_2
REMARK    2  A    between atoms: C_5  and  N_6
REMARK    3  A    between atoms: N_9  and  C_10
REMARK    4  A    between atoms: C_13  and  C_14
REMARK    5  A    between atoms: C_17  and  C_18
REMARK                            x       y       z     vdW  Elec       q    Type
REMARK                         _______ _______ _______ _____ _____    ______ ____
ROOT
ATOM      1  N   UNL     1       1.094   8.875  20.555  0.00  0.00    +0.000 N 
ATOM      2  C   UNL     1       0.176   8.261  21.493  0.00  0.00    +0.000 C 
ATOM      3  C   UNL     1      -0.308   9.377  22.351  0.00  0.00    +0.000 C 
ATOM      4  N   UNL     1      -0.232  10.607  21.555  0.00  0.00    +0.000 N 
ATOM      5  C   UNL     1       0.883  10.374  20.507  0.00  0.00    +0.000 C 
ENDROOT
BRANCH   5   6
ATOM      6  C   UNL     1       0.483  10.844  19.091  0.00  0.00    +0.000 A 
ATOM      7  C   UNL     1       0.544  12.223  18.776  0.00  0.00    +0.000 A 
ATOM      8  C   UNL     1      -0.588  12.840  18.231  0.00  0.00    +0.000 A 
ATOM      9  C   UNL     1      -1.662  12.004  18.020  0.00  0.00    +0.000 A 
ATOM     10  C   UNL     1      -1.511  10.638  17.945  0.00  0.00    +0.000 A 
ATOM     11  C   UNL     1      -0.354  10.028  18.327  0.00  0.00    +0.000 A 
ATOM     12  O   UNL     1      -2.719   9.985  18.049  0.00  0.00    +0.000 OA
ATOM     13  C   UNL     1      -3.377  11.020  18.792  0.00  0.00    +0.000 C 
ATOM     14  O   UNL     1      -2.967  12.326  18.309  0.00  0.00    +0.000 OA
ENDBRANCH   5   6
BRANCH   1  19
ATOM     15  C   UNL     1       4.117   5.267  17.240  0.00  0.00    +0.000 C 
ATOM     16  C   UNL     1       3.347   6.209  18.113  0.00  0.00    +0.000 A 
ATOM     17  C   UNL     1       3.127   7.517  17.719  0.00  0.00    +0.000 A 
ATOM     18  C   UNL     1       2.402   8.381  18.546  0.00  0.00    +0.000 A 
ATOM     19  C   UNL     1       1.850   7.995  19.798  0.00  0.00    +0.000 A 
ATOM     20  C   UNL     1       2.111   6.682  20.177  0.00  0.00    +0.000 A 
ATOM     21  C   UNL     1       2.848   5.814  19.363  0.00  0.00    +0.000 A 
ENDBRANCH   1  19
BRANCH   4  22
ATOM     22  C   UNL     1      -0.896  11.683  22.161  0.00  0.00    +0.000 A 
ATOM     23  C   UNL     1      -0.336  12.997  22.126  0.00  0.00    +0.000 A 
ATOM     24  C   UNL     1      -0.831  14.127  22.797  0.00  0.00    +0.000 A 
ATOM     25  C   UNL     1      -1.962  14.031  23.580  0.00  0.00    +0.000 A 
ATOM     26  C   UNL     1      -2.466  15.245  24.298  0.00  0.00    +0.000 C 
ATOM     27  C   UNL     1      -2.602  12.791  23.603  0.00  0.00    +0.000 A 
ATOM     28  C   UNL     1      -2.083  11.657  22.899  0.00  0.00    +0.000 A 
ENDBRANCH   4  22
TORSDOF 3
ENDMDL
