MODEL 1
REMARK VINA RESULT:      -8.0      0.000      0.000
REMARK  Name = 
REMARK  7 active torsions:
REMARK  status: ('A' for Active; 'I' for Inactive)
REMARK    1  A    between atoms: C_4  and  C_5
REMARK    2  A    between atoms: C_12  and  O_13
REMARK    3  A    between atoms: C_14  and  C_15
REMARK    4  A    between atoms: C_15  and  C_16
REMARK    5  A    between atoms: C_15  and  S_22
REMARK    6  A    between atoms: C_16  and  C_17
REMARK    7  A    between atoms: S_22  and  C_23
REMARK                            x       y       z     vdW  Elec       q    Type
REMARK                         _______ _______ _______ _____ _____    ______ ____
ROOT
ATOM      1  O   UNL     1       6.043   7.801  16.254  0.00  0.00    +0.000 OA
ATOM      2  C   UNL     1       6.851   7.788  17.178  0.00  0.00    +0.000 A 
ATOM      3  C   UNL     1       7.619   9.014  17.483  0.00  0.00    +0.000 A 
ATOM      4  C   UNL     1       8.506   8.994  18.488  0.00  0.00    +0.000 A 
ATOM      5  O   UNL     1       8.795   7.828  19.171  0.00  0.00    +0.000 OA
ATOM      6  C   UNL     1       8.072   6.675  18.924  0.00  0.00    +0.000 A 
ATOM      7  C   UNL     1       7.062   6.582  18.036  0.00  0.00    +0.000 A 
ENDROOT
BRANCH   4   8
ATOM      8  C   UNL     1       9.270  10.183  18.951  0.00  0.00    +0.000 A 
ATOM      9  C   UNL     1       9.371  10.534  20.310  0.00  0.00    +0.000 A 
ATOM     10  C   UNL     1      10.123  11.645  20.720  0.00  0.00    +0.000 A 
ATOM     11  C   UNL     1      10.800  12.415  19.782  0.00  0.00    +0.000 A 
ATOM     12  C   UNL     1      10.735  12.075  18.435  0.00  0.00    +0.000 A 
ATOM     13  C   UNL     1       9.980  10.968  18.027  0.00  0.00    +0.000 A 
ENDBRANCH   4   8
BRANCH   6  14
ATOM     14  O   UNL     1       8.421   5.597  19.700  0.00  0.00    +0.000 OA
ATOM     15  H   UNL     1       7.703   5.505  20.349  0.00  0.00    +0.000 HD
ENDBRANCH   6  14
BRANCH   7  16
ATOM     16  C   UNL     1       6.119   5.410  17.825  0.00  0.00    +0.000 C 
BRANCH  16  17
ATOM     17  C   UNL     1       6.857   4.180  17.229  0.00  0.00    +0.000 C 
BRANCH  17  18
ATOM     18  C   UNL     1       6.633   3.813  15.741  0.00  0.00    +0.000 C 
ATOM     19  C   UNL     1       5.205   3.934  15.211  0.00  0.00    +0.000 C 
ATOM     20  C   UNL     1       5.368   4.078  13.696  0.00  0.00    +0.000 C 
ATOM     21  C   UNL     1       6.745   4.693  13.466  0.00  0.00    +0.000 C 
ATOM     22  C   UNL     1       7.403   4.786  14.836  0.00  0.00    +0.000 C 
ENDBRANCH  17  18
ENDBRANCH  16  17
BRANCH  16  23
ATOM     23  S   UNL     1       5.300   4.934  19.411  0.00  0.00    +0.000 S 
BRANCH  23  24
ATOM     24  C   UNL     1       3.779   4.055  18.906  0.00  0.00    +0.000 C 
ATOM     25  C   UNL     1       2.584   4.956  18.598  0.00  0.00    +0.000 C 
ATOM     26  C   UNL     1       1.545   4.145  17.817  0.00  0.00    +0.000 C 
ATOM     27  C   UNL     1       1.124   2.869  18.550  0.00  0.00    +0.000 C 
ATOM     28  C   UNL     1       2.306   2.041  19.062  0.00  0.00    +0.000 C 
ATOM     29  C   UNL     1       3.334   2.898  19.807  0.00  0.00    +0.000 C 
ENDBRANCH  23  24
ENDBRANCH  16  23
ENDBRANCH   7  16
TORSDOF 7
ENDMDL
MODEL 2
REMARK VINA RESULT:      -8.0      4.864      7.424
REMARK  Name = 
REMARK  7 active torsions:
REMARK  status: ('A' for Active; 'I' for Inactive)
REMARK    1  A    between atoms: C_4  and  C_5
REMARK    2  A    between atoms: C_12  and  O_13
REMARK    3  A    between atoms: C_14  and  C_15
REMARK    4  A    between atoms: C_15  and  C_16
REMARK    5  A    between atoms: C_15  and  S_22
REMARK    6  A    between atoms: C_16  and  C_17
REMARK    7  A    between atoms: S_22  and  C_23
REMARK                            x       y       z     vdW  Elec       q    Type
REMARK                         _______ _______ _______ _____ _____    ______ ____
ROOT
ATOM      1  O   UNL     1       1.650   6.334  21.160  0.00  0.00    +0.000 OA
ATOM      2  C   UNL     1       1.492   7.414  20.599  0.00  0.00    +0.000 A 
ATOM      3  C   UNL     1       0.755   8.490  21.297  0.00  0.00    +0.000 A 
ATOM      4  C   UNL     1       0.577   9.665  20.678  0.00  0.00    +0.000 A 
ATOM      5  O   UNL     1       0.971   9.856  19.367  0.00  0.00    +0.000 OA
ATOM      6  C   UNL     1       1.687   8.878  18.702  0.00  0.00    +0.000 A 
ATOM      7  C   UNL     1       2.052   7.698  19.242  0.00  0.00    +0.000 A 
ENDROOT
BRANCH   4   8
ATOM      8  C   UNL     1      -0.064  10.851  21.306  0.00  0.00    +0.000 A 
ATOM      9  C   UNL     1      -0.087  12.115  20.686  0.00  0.00    +0.000 A 
ATOM     10  C   UNL     1      -0.724  13.209  21.290  0.00  0.00    +0.000 A 
ATOM     11  C   UNL     1      -1.363  13.057  22.515  0.00  0.00    +0.000 A 
ATOM     12  C   UNL     1      -1.374  11.813  23.136  0.00  0.00    +0.000 A 
ATOM     13  C   UNL     1      -0.734  10.723  22.534  0.00  0.00    +0.000 A 
ENDBRANCH   4   8
BRANCH   6  14
ATOM     14  O   UNL     1       2.062   9.206  17.422  0.00  0.00    +0.000 OA
ATOM     15  H   UNL     1       2.968   9.547  17.501  0.00  0.00    +0.000 HD
ENDBRANCH   6  14
BRANCH   7  16
ATOM     16  C   UNL     1       2.970   6.648  18.640  0.00  0.00    +0.000 C 
BRANCH  16  17
ATOM     17  C   UNL     1       2.168   5.538  17.907  0.00  0.00    +0.000 C 
BRANCH  17  18
ATOM     18  C   UNL     1       2.386   4.058  18.309  0.00  0.00    +0.000 C 
ATOM     19  C   UNL     1       2.826   3.103  17.200  0.00  0.00    +0.000 C 
ATOM     20  C   UNL     1       3.492   1.938  17.937  0.00  0.00    +0.000 C 
ATOM     21  C   UNL     1       4.013   2.502  19.255  0.00  0.00    +0.000 C 
ATOM     22  C   UNL     1       3.542   3.948  19.314  0.00  0.00    +0.000 C 
ENDBRANCH  17  18
ENDBRANCH  16  17
BRANCH  16  23
ATOM     23  S   UNL     1       4.171   7.421  17.469  0.00  0.00    +0.000 S 
BRANCH  23  24
ATOM     24  C   UNL     1       5.202   6.033  16.873  0.00  0.00    +0.000 C 
ATOM     25  C   UNL     1       6.625   6.000  17.428  0.00  0.00    +0.000 C 
ATOM     26  C   UNL     1       7.217   4.609  17.181  0.00  0.00    +0.000 C 
ATOM     27  C   UNL     1       7.170   4.205  15.705  0.00  0.00    +0.000 C 
ATOM     28  C   UNL     1       5.801   4.425  15.056  0.00  0.00    +0.000 C 
ATOM     29  C   UNL     1       5.234   5.816  15.357  0.00  0.00    +0.000 C 
ENDBRANCH  23  24
ENDBRANCH  16  23
ENDBRANCH   7  16
TORSDOF 7
ENDMDL
MODEL 3
REMARK VINA RESULT:      -8.0      4.755      6.768
REMARK  Name = 
REMARK  7 active torsions:
REMARK  status: ('A' for Active; 'I' for Inactive)
REMARK    1  A    between atoms: C_4  and  C_5
REMARK    2  A    between atoms: C_12  and  O_13
REMARK    3  A    between atoms: C_14  and  C_15
REMARK    4  A    between atoms: C_15  and  C_16
REMARK    5  A    between atoms: C_15  and  S_22
REMARK    6  A    between atoms: C_16  and  C_17
REMARK    7  A    between atoms: S_22  and  C_23
REMARK                            x       y       z     vdW  Elec       q    Type
REMARK                         _______ _______ _______ _____ _____    ______ ____
ROOT
ATOM      1  O   UNL     1       2.276   9.105  17.066  0.00  0.00    +0.000 OA
ATOM      2  C   UNL     1       1.890   8.886  18.211  0.00  0.00    +0.000 A 
ATOM      3  C   UNL     1       1.055   9.896  18.897  0.00  0.00    +0.000 A 
ATOM      4  C   UNL     1       0.643   9.658  20.149  0.00  0.00    +0.000 A 
ATOM      5  O   UNL     1       1.070   8.545  20.849  0.00  0.00    +0.000 OA
ATOM      6  C   UNL     1       1.826   7.572  20.223  0.00  0.00    +0.000 A 
ATOM      7  C   UNL     1       2.205   7.614  18.929  0.00  0.00    +0.000 A 
ENDROOT
BRANCH   4   8
ATOM      8  C   UNL     1      -0.272  10.549  20.911  0.00  0.00    +0.000 A 
ATOM      9  C   UNL     1      -1.068  11.527  20.288  0.00  0.00    +0.000 A 
ATOM     10  C   UNL     1      -1.943  12.334  21.029  0.00  0.00    +0.000 A 
ATOM     11  C   UNL     1      -2.052  12.167  22.405  0.00  0.00    +0.000 A 
ATOM     12  C   UNL     1      -1.293  11.190  23.042  0.00  0.00    +0.000 A 
ATOM     13  C   UNL     1      -0.417  10.389  22.300  0.00  0.00    +0.000 A 
ENDBRANCH   4   8
BRANCH   6  14
ATOM     14  O   UNL     1       2.147   6.493  21.009  0.00  0.00    +0.000 OA
ATOM     15  H   UNL     1       1.419   6.417  21.649  0.00  0.00    +0.000 HD
ENDBRANCH   6  14
BRANCH   7  16
ATOM     16  C   UNL     1       2.891   6.519  18.128  0.00  0.00    +0.000 C 
BRANCH  16  17
ATOM     17  C   UNL     1       4.258   6.125  18.751  0.00  0.00    +0.000 C 
BRANCH  17  18
ATOM     18  C   UNL     1       5.486   5.948  17.824  0.00  0.00    +0.000 C 
ATOM     19  C   UNL     1       6.571   4.982  18.300  0.00  0.00    +0.000 C 
ATOM     20  C   UNL     1       7.313   4.577  17.023  0.00  0.00    +0.000 C 
ATOM     21  C   UNL     1       6.315   4.727  15.879  0.00  0.00    +0.000 C 
ATOM     22  C   UNL     1       5.055   5.325  16.488  0.00  0.00    +0.000 C 
ENDBRANCH  17  18
ENDBRANCH  16  17
BRANCH  16  23
ATOM     23  S   UNL     1       1.812   5.025  18.004  0.00  0.00    +0.000 S 
BRANCH  23  24
ATOM     24  C   UNL     1       2.267   4.000  19.448  0.00  0.00    +0.000 C 
ATOM     25  C   UNL     1       3.285   2.897  19.164  0.00  0.00    +0.000 C 
ATOM     26  C   UNL     1       3.864   2.406  20.494  0.00  0.00    +0.000 C 
ATOM     27  C   UNL     1       2.779   1.944  21.471  0.00  0.00    +0.000 C 
ATOM     28  C   UNL     1       1.627   2.942  21.621  0.00  0.00    +0.000 C 
ATOM     29  C   UNL     1       1.104   3.429  20.267  0.00  0.00    +0.000 C 
ENDBRANCH  23  24
ENDBRANCH  16  23
ENDBRANCH   7  16
TORSDOF 7
ENDMDL
MODEL 4
REMARK VINA RESULT:      -7.8      4.849      7.422
REMARK  Name = 
REMARK  7 active torsions:
REMARK  status: ('A' for Active; 'I' for Inactive)
REMARK    1  A    between atoms: C_4  and  C_5
REMARK    2  A    between atoms: C_12  and  O_13
REMARK    3  A    between atoms: C_14  and  C_15
REMARK    4  A    between atoms: C_15  and  C_16
REMARK    5  A    between atoms: C_15  and  S_22
REMARK    6  A    between atoms: C_16  and  C_17
REMARK    7  A    between atoms: S_22  and  C_23
REMARK                            x       y       z     vdW  Elec       q    Type
REMARK                         _______ _______ _______ _____ _____    ______ ____
ROOT
ATOM      1  O   UNL     1       2.203   9.101  17.323  0.00  0.00    +0.000 OA
ATOM      2  C   UNL     1       1.788   8.904  18.461  0.00  0.00    +0.000 A 
ATOM      3  C   UNL     1       0.910   9.912  19.095  0.00  0.00    +0.000 A 
ATOM      4  C   UNL     1       0.466   9.697  20.341  0.00  0.00    +0.000 A 
ATOM      5  O   UNL     1       0.896   8.613  21.082  0.00  0.00    +0.000 OA
ATOM      6  C   UNL     1       1.692   7.642  20.504  0.00  0.00    +0.000 A 
ATOM      7  C   UNL     1       2.109   7.658  19.222  0.00  0.00    +0.000 A 
ENDROOT
BRANCH   4   8
ATOM      8  C   UNL     1      -0.492  10.586  21.051  0.00  0.00    +0.000 A 
ATOM      9  C   UNL     1      -0.673  10.541  22.446  0.00  0.00    +0.000 A 
ATOM     10  C   UNL     1      -1.563  11.411  23.092  0.00  0.00    +0.000 A 
ATOM     11  C   UNL     1      -2.277  12.352  22.358  0.00  0.00    +0.000 A 
ATOM     12  C   UNL     1      -2.098  12.431  20.981  0.00  0.00    +0.000 A 
ATOM     13  C   UNL     1      -1.212  11.559  20.338  0.00  0.00    +0.000 A 
ENDBRANCH   4   8
BRANCH   6  14
ATOM     14  O   UNL     1       2.013   6.590  21.329  0.00  0.00    +0.000 OA
ATOM     15  H   UNL     1       2.424   5.927  20.749  0.00  0.00    +0.000 HD
ENDBRANCH   6  14
BRANCH   7  16
ATOM     16  C   UNL     1       2.842   6.559  18.471  0.00  0.00    +0.000 C 
BRANCH  16  17
ATOM     17  C   UNL     1       1.857   5.522  17.868  0.00  0.00    +0.000 C 
BRANCH  17  18
ATOM     18  C   UNL     1       2.064   4.017  18.174  0.00  0.00    +0.000 C 
ATOM     19  C   UNL     1       2.900   3.222  17.172  0.00  0.00    +0.000 C 
ATOM     20  C   UNL     1       3.403   2.012  17.965  0.00  0.00    +0.000 C 
ATOM     21  C   UNL     1       3.448   2.443  19.427  0.00  0.00    +0.000 C 
ATOM     22  C   UNL     1       2.863   3.848  19.475  0.00  0.00    +0.000 C 
ENDBRANCH  17  18
ENDBRANCH  16  17
BRANCH  16  23
ATOM     23  S   UNL     1       3.891   7.272  17.128  0.00  0.00    +0.000 S 
BRANCH  23  24
ATOM     24  C   UNL     1       5.464   6.344  17.223  0.00  0.00    +0.000 C 
ATOM     25  C   UNL     1       5.646   5.268  16.154  0.00  0.00    +0.000 C 
ATOM     26  C   UNL     1       7.124   4.872  16.100  0.00  0.00    +0.000 C 
ATOM     27  C   UNL     1       7.661   4.422  17.461  0.00  0.00    +0.000 C 
ATOM     28  C   UNL     1       7.313   5.381  18.602  0.00  0.00    +0.000 C 
ATOM     29  C   UNL     1       5.833   5.774  18.596  0.00  0.00    +0.000 C 
ENDBRANCH  23  24
ENDBRANCH  16  23
ENDBRANCH   7  16
TORSDOF 7
ENDMDL
MODEL 5
REMARK VINA RESULT:      -7.8      4.789      7.486
REMARK  Name = 
REMARK  7 active torsions:
REMARK  status: ('A' for Active; 'I' for Inactive)
REMARK    1  A    between atoms: C_4  and  C_5
REMARK    2  A    between atoms: C_12  and  O_13
REMARK    3  A    between atoms: C_14  and  C_15
REMARK    4  A    between atoms: C_15  and  C_16
REMARK    5  A    between atoms: C_15  and  S_22
REMARK    6  A    between atoms: C_16  and  C_17
REMARK    7  A    between atoms: S_22  and  C_23
REMARK                            x       y       z     vdW  Elec       q    Type
REMARK                         _______ _______ _______ _____ _____    ______ ____
ROOT
ATOM      1  O   UNL     1       1.893   6.271  21.118  0.00  0.00    +0.000 OA
ATOM      2  C   UNL     1       1.688   7.351  20.574  0.00  0.00    +0.000 A 
ATOM      3  C   UNL     1       1.013   8.426  21.333  0.00  0.00    +0.000 A 
ATOM      4  C   UNL     1       0.783   9.602  20.733  0.00  0.00    +0.000 A 
ATOM      5  O   UNL     1       1.065   9.795  19.393  0.00  0.00    +0.000 OA
ATOM      6  C   UNL     1       1.722   8.818  18.669  0.00  0.00    +0.000 A 
ATOM      7  C   UNL     1       2.131   7.637  19.175  0.00  0.00    +0.000 A 
ENDROOT
BRANCH   4   8
ATOM      8  C   UNL     1       0.198  10.788  21.414  0.00  0.00    +0.000 A 
ATOM      9  C   UNL     1       0.495  12.107  21.025  0.00  0.00    +0.000 A 
ATOM     10  C   UNL     1      -0.094  13.205  21.668  0.00  0.00    +0.000 A 
ATOM     11  C   UNL     1      -1.003  13.005  22.700  0.00  0.00    +0.000 A 
ATOM     12  C   UNL     1      -1.332  11.710  23.088  0.00  0.00    +0.000 A 
ATOM     13  C   UNL     1      -0.739  10.615  22.447  0.00  0.00    +0.000 A 
ENDBRANCH   4   8
BRANCH   6  14
ATOM     14  O   UNL     1       1.987   9.147  17.362  0.00  0.00    +0.000 OA
ATOM     15  H   UNL     1       1.155   8.990  16.885  0.00  0.00    +0.000 HD
ENDBRANCH   6  14
BRANCH   7  16
ATOM     16  C   UNL     1       2.995   6.587  18.496  0.00  0.00    +0.000 C 
BRANCH  16  17
ATOM     17  C   UNL     1       2.135   5.470  17.846  0.00  0.00    +0.000 C 
BRANCH  17  18
ATOM     18  C   UNL     1       2.313   4.007  18.321  0.00  0.00    +0.000 C 
ATOM     19  C   UNL     1       3.515   3.719  19.220  0.00  0.00    +0.000 C 
ATOM     20  C   UNL     1       3.139   2.434  19.965  0.00  0.00    +0.000 C 
ATOM     21  C   UNL     1       1.616   2.397  20.020  0.00  0.00    +0.000 C 
ATOM     22  C   UNL     1       1.132   3.591  19.209  0.00  0.00    +0.000 C 
ENDBRANCH  17  18
ENDBRANCH  16  17
BRANCH  16  23
ATOM     23  S   UNL     1       4.079   7.360  17.215  0.00  0.00    +0.000 S 
BRANCH  23  24
ATOM     24  C   UNL     1       5.618   6.372  17.249  0.00  0.00    +0.000 C 
ATOM     25  C   UNL     1       5.595   5.109  16.390  0.00  0.00    +0.000 C 
ATOM     26  C   UNL     1       7.033   4.621  16.192  0.00  0.00    +0.000 C 
ATOM     27  C   UNL     1       7.764   4.397  17.519  0.00  0.00    +0.000 C 
ATOM     28  C   UNL     1       7.630   5.569  18.495  0.00  0.00    +0.000 C 
ATOM     29  C   UNL     1       6.181   6.043  18.636  0.00  0.00    +0.000 C 
ENDBRANCH  23  24
ENDBRANCH  16  23
ENDBRANCH   7  16
TORSDOF 7
ENDMDL
MODEL 6
REMARK VINA RESULT:      -7.8      4.853      7.736
REMARK  Name = 
REMARK  7 active torsions:
REMARK  status: ('A' for Active; 'I' for Inactive)
REMARK    1  A    between atoms: C_4  and  C_5
REMARK    2  A    between atoms: C_12  and  O_13
REMARK    3  A    between atoms: C_14  and  C_15
REMARK    4  A    between atoms: C_15  and  C_16
REMARK    5  A    between atoms: C_15  and  S_22
REMARK    6  A    between atoms: C_16  and  C_17
REMARK    7  A    between atoms: S_22  and  C_23
REMARK                            x       y       z     vdW  Elec       q    Type
REMARK                         _______ _______ _______ _____ _____    ______ ____
ROOT
ATOM      1  O   UNL     1       2.361   8.977  17.261  0.00  0.00    +0.000 OA
ATOM      2  C   UNL     1       1.892   8.862  18.389  0.00  0.00    +0.000 A 
ATOM      3  C   UNL     1       1.002   9.921  18.914  0.00  0.00    +0.000 A 
ATOM      4  C   UNL     1       0.500   9.796  20.150  0.00  0.00    +0.000 A 
ATOM      5  O   UNL     1       0.880   8.759  20.981  0.00  0.00    +0.000 OA
ATOM      6  C   UNL     1       1.687   7.742  20.507  0.00  0.00    +0.000 A 
ATOM      7  C   UNL     1       2.161   7.667  19.247  0.00  0.00    +0.000 A 
ENDROOT
BRANCH   4   8
ATOM      8  C   UNL     1      -0.476  10.742  20.754  0.00  0.00    +0.000 A 
ATOM      9  C   UNL     1      -1.377  11.497  19.981  0.00  0.00    +0.000 A 
ATOM     10  C   UNL     1      -2.305  12.360  20.581  0.00  0.00    +0.000 A 
ATOM     11  C   UNL     1      -2.361  12.473  21.965  0.00  0.00    +0.000 A 
ATOM     12  C   UNL     1      -1.497  11.720  22.753  0.00  0.00    +0.000 A 
ATOM     13  C   UNL     1      -0.568  10.862  22.151  0.00  0.00    +0.000 A 
ENDBRANCH   4   8
BRANCH   6  14
ATOM     14  O   UNL     1       1.955   6.745  21.413  0.00  0.00    +0.000 OA
ATOM     15  H   UNL     1       2.836   6.951  21.767  0.00  0.00    +0.000 HD
ENDBRANCH   6  14
BRANCH   7  16
ATOM     16  C   UNL     1       2.911   6.512  18.605  0.00  0.00    +0.000 C 
BRANCH  16  17
ATOM     17  C   UNL     1       1.952   5.357  18.207  0.00  0.00    +0.000 C 
BRANCH  17  18
ATOM     18  C   UNL     1       2.030   4.013  18.973  0.00  0.00    +0.000 C 
ATOM     19  C   UNL     1       3.240   3.810  19.883  0.00  0.00    +0.000 C 
ATOM     20  C   UNL     1       2.792   2.745  20.888  0.00  0.00    +0.000 C 
ATOM     21  C   UNL     1       1.274   2.857  20.986  0.00  0.00    +0.000 C 
ATOM     22  C   UNL     1       0.856   3.896  19.956  0.00  0.00    +0.000 C 
ENDBRANCH  17  18
ENDBRANCH  16  17
BRANCH  16  23
ATOM     23  S   UNL     1       3.846   7.083  17.118  0.00  0.00    +0.000 S 
BRANCH  23  24
ATOM     24  C   UNL     1       5.459   6.228  17.224  0.00  0.00    +0.000 C 
ATOM     25  C   UNL     1       5.586   4.976  16.358  0.00  0.00    +0.000 C 
ATOM     26  C   UNL     1       7.069   4.614  16.231  0.00  0.00    +0.000 C 
ATOM     27  C   UNL     1       7.748   4.439  17.592  0.00  0.00    +0.000 C 
ATOM     28  C   UNL     1       7.466   5.584  18.567  0.00  0.00    +0.000 C 
ATOM     29  C   UNL     1       5.977   5.933  18.636  0.00  0.00    +0.000 C 
ENDBRANCH  23  24
ENDBRANCH  16  23
ENDBRANCH   7  16
TORSDOF 7
ENDMDL
MODEL 7
REMARK VINA RESULT:      -7.8      6.870      9.831
REMARK  Name = 
REMARK  7 active torsions:
REMARK  status: ('A' for Active; 'I' for Inactive)
REMARK    1  A    between atoms: C_4  and  C_5
REMARK    2  A    between atoms: C_12  and  O_13
REMARK    3  A    between atoms: C_14  and  C_15
REMARK    4  A    between atoms: C_15  and  C_16
REMARK    5  A    between atoms: C_15  and  S_22
REMARK    6  A    between atoms: C_16  and  C_17
REMARK    7  A    between atoms: S_22  and  C_23
REMARK                            x       y       z     vdW  Elec       q    Type
REMARK                         _______ _______ _______ _____ _____    ______ ____
ROOT
ATOM      1  O   UNL     1       0.222   9.433  21.656  0.00  0.00    +0.000 OA
ATOM      2  C   UNL     1       0.843   8.956  20.711  0.00  0.00    +0.000 A 
ATOM      3  C   UNL     1       1.461   7.619  20.853  0.00  0.00    +0.000 A 
ATOM      4  C   UNL     1       2.145   7.105  19.823  0.00  0.00    +0.000 A 
ATOM      5  O   UNL     1       2.378   7.838  18.674  0.00  0.00    +0.000 OA
ATOM      6  C   UNL     1       1.789   9.077  18.504  0.00  0.00    +0.000 A 
ATOM      7  C   UNL     1       0.970   9.663  19.400  0.00  0.00    +0.000 A 
ENDROOT
BRANCH   4   8
ATOM      8  C   UNL     1       2.732   5.738  19.809  0.00  0.00    +0.000 A 
ATOM      9  C   UNL     1       3.939   5.440  19.149  0.00  0.00    +0.000 A 
ATOM     10  C   UNL     1       4.483   4.148  19.177  0.00  0.00    +0.000 A 
ATOM     11  C   UNL     1       3.839   3.133  19.876  0.00  0.00    +0.000 A 
ATOM     12  C   UNL     1       2.657   3.408  20.555  0.00  0.00    +0.000 A 
ATOM     13  C   UNL     1       2.114   4.698  20.523  0.00  0.00    +0.000 A 
ENDBRANCH   4   8
BRANCH   6  14
ATOM     14  O   UNL     1       2.058   9.684  17.302  0.00  0.00    +0.000 OA
ATOM     15  H   UNL     1       1.588   9.154  16.637  0.00  0.00    +0.000 HD
ENDBRANCH   6  14
BRANCH   7  16
ATOM     16  C   UNL     1       0.160  10.936  19.221  0.00  0.00    +0.000 C 
BRANCH  16  17
ATOM     17  C   UNL     1      -1.357  10.635  19.083  0.00  0.00    +0.000 C 
BRANCH  17  18
ATOM     18  C   UNL     1      -2.090  11.032  17.777  0.00  0.00    +0.000 C 
ATOM     19  C   UNL     1      -2.268   9.934  16.729  0.00  0.00    +0.000 C 
ATOM     20  C   UNL     1      -3.450  10.404  15.876  0.00  0.00    +0.000 C 
ATOM     21  C   UNL     1      -4.300  11.299  16.772  0.00  0.00    +0.000 C 
ATOM     22  C   UNL     1      -3.541  11.429  18.086  0.00  0.00    +0.000 C 
ENDBRANCH  17  18
ENDBRANCH  16  17
BRANCH  16  23
ATOM     23  S   UNL     1       0.436  12.093  20.635  0.00  0.00    +0.000 S 
BRANCH  23  24
ATOM     24  C   UNL     1      -1.230  12.391  21.325  0.00  0.00    +0.000 C 
ATOM     25  C   UNL     1      -1.904  13.680  20.856  0.00  0.00    +0.000 C 
ATOM     26  C   UNL     1      -3.400  13.597  21.173  0.00  0.00    +0.000 C 
ATOM     27  C   UNL     1      -3.671  13.318  22.654  0.00  0.00    +0.000 C 
ATOM     28  C   UNL     1      -2.848  12.156  23.217  0.00  0.00    +0.000 C 
ATOM     29  C   UNL     1      -1.366  12.264  22.847  0.00  0.00    +0.000 C 
ENDBRANCH  23  24
ENDBRANCH  16  23
ENDBRANCH   7  16
TORSDOF 7
ENDMDL
MODEL 8
REMARK VINA RESULT:      -7.8      4.951      7.590
REMARK  Name = 
REMARK  7 active torsions:
REMARK  status: ('A' for Active; 'I' for Inactive)
REMARK    1  A    between atoms: C_4  and  C_5
REMARK    2  A    between atoms: C_12  and  O_13
REMARK    3  A    between atoms: C_14  and  C_15
REMARK    4  A    between atoms: C_15  and  C_16
REMARK    5  A    between atoms: C_15  and  S_22
REMARK    6  A    between atoms: C_16  and  C_17
REMARK    7  A    between atoms: S_22  and  C_23
REMARK                            x       y       z     vdW  Elec       q    Type
REMARK                         _______ _______ _______ _____ _____    ______ ____
ROOT
ATOM      1  O   UNL     1       1.733   6.575  21.072  0.00  0.00    +0.000 OA
ATOM      2  C   UNL     1       1.486   7.629  20.493  0.00  0.00    +0.000 A 
ATOM      3  C   UNL     1       0.680   8.660  21.183  0.00  0.00    +0.000 A 
ATOM      4  C   UNL     1       0.404   9.805  20.545  0.00  0.00    +0.000 A 
ATOM      5  O   UNL     1       0.762   9.998  19.224  0.00  0.00    +0.000 OA
ATOM      6  C   UNL     1       1.540   9.064  18.566  0.00  0.00    +0.000 A 
ATOM      7  C   UNL     1       2.002   7.926  19.122  0.00  0.00    +0.000 A 
ENDROOT
BRANCH   4   8
ATOM      8  C   UNL     1      -0.315  10.952  21.160  0.00  0.00    +0.000 A 
ATOM      9  C   UNL     1      -0.722  12.076  20.417  0.00  0.00    +0.000 A 
ATOM     10  C   UNL     1      -1.424  13.130  21.019  0.00  0.00    +0.000 A 
ATOM     11  C   UNL     1      -1.746  13.074  22.370  0.00  0.00    +0.000 A 
ATOM     12  C   UNL     1      -1.375  11.964  23.121  0.00  0.00    +0.000 A 
ATOM     13  C   UNL     1      -0.671  10.914  22.519  0.00  0.00    +0.000 A 
ENDBRANCH   4   8
BRANCH   6  14
ATOM     14  O   UNL     1       1.869   9.392  17.273  0.00  0.00    +0.000 OA
ATOM     15  H   UNL     1       1.769   8.569  16.767  0.00  0.00    +0.000 HD
ENDBRANCH   6  14
BRANCH   7  16
ATOM     16  C   UNL     1       2.987   6.936  18.525  0.00  0.00    +0.000 C 
BRANCH  16  17
ATOM     17  C   UNL     1       2.262   5.726  17.876  0.00  0.00    +0.000 C 
BRANCH  17  18
ATOM     18  C   UNL     1       2.487   4.309  18.459  0.00  0.00    +0.000 C 
ATOM     19  C   UNL     1       1.257   3.592  19.015  0.00  0.00    +0.000 C 
ATOM     20  C   UNL     1       1.627   2.107  18.977  0.00  0.00    +0.000 C 
ATOM     21  C   UNL     1       2.655   1.947  17.862  0.00  0.00    +0.000 C 
ATOM     22  C   UNL     1       2.953   3.350  17.353  0.00  0.00    +0.000 C 
ENDBRANCH  17  18
ENDBRANCH  16  17
BRANCH  16  23
ATOM     23  S   UNL     1       4.065   7.759  17.271  0.00  0.00    +0.000 S 
BRANCH  23  24
ATOM     24  C   UNL     1       5.481   6.624  17.055  0.00  0.00    +0.000 C 
ATOM     25  C   UNL     1       5.388   5.695  15.845  0.00  0.00    +0.000 C 
ATOM     26  C   UNL     1       6.777   5.115  15.561  0.00  0.00    +0.000 C 
ATOM     27  C   UNL     1       7.377   4.408  16.779  0.00  0.00    +0.000 C 
ATOM     28  C   UNL     1       7.296   5.233  18.066  0.00  0.00    +0.000 C 
ATOM     29  C   UNL     1       5.899   5.820  18.291  0.00  0.00    +0.000 C 
ENDBRANCH  23  24
ENDBRANCH  16  23
ENDBRANCH   7  16
TORSDOF 7
ENDMDL
MODEL 9
REMARK VINA RESULT:      -7.7      4.954      7.230
REMARK  Name = 
REMARK  7 active torsions:
REMARK  status: ('A' for Active; 'I' for Inactive)
REMARK    1  A    between atoms: C_4  and  C_5
REMARK    2  A    between atoms: C_12  and  O_13
REMARK    3  A    between atoms: C_14  and  C_15
REMARK    4  A    between atoms: C_15  and  C_16
REMARK    5  A    between atoms: C_15  and  S_22
REMARK    6  A    between atoms: C_16  and  C_17
REMARK    7  A    between atoms: S_22  and  C_23
REMARK                            x       y       z     vdW  Elec       q    Type
REMARK                         _______ _______ _______ _____ _____    ______ ____
ROOT
ATOM      1  O   UNL     1       1.756   6.541  21.127  0.00  0.00    +0.000 OA
ATOM      2  C   UNL     1       1.580   7.617  20.563  0.00  0.00    +0.000 A 
ATOM      3  C   UNL     1       0.931   8.722  21.301  0.00  0.00    +0.000 A 
ATOM      4  C   UNL     1       0.733   9.892  20.679  0.00  0.00    +0.000 A 
ATOM      5  O   UNL     1       1.020  10.053  19.337  0.00  0.00    +0.000 OA
ATOM      6  C   UNL     1       1.653   9.046  18.632  0.00  0.00    +0.000 A 
ATOM      7  C   UNL     1       2.032   7.865  19.159  0.00  0.00    +0.000 A 
ENDROOT
BRANCH   4   8
ATOM      8  C   UNL     1       0.177  11.105  21.337  0.00  0.00    +0.000 A 
ATOM      9  C   UNL     1      -0.780  11.035  22.366  0.00  0.00    +0.000 A 
ATOM     10  C   UNL     1      -1.265  12.195  22.988  0.00  0.00    +0.000 A 
ATOM     11  C   UNL     1      -0.792  13.444  22.604  0.00  0.00    +0.000 A 
ATOM     12  C   UNL     1       0.171  13.538  21.605  0.00  0.00    +0.000 A 
ATOM     13  C   UNL     1       0.651  12.379  20.982  0.00  0.00    +0.000 A 
ENDBRANCH   4   8
BRANCH   6  14
ATOM     14  O   UNL     1       1.928   9.344  17.319  0.00  0.00    +0.000 OA
ATOM     15  H   UNL     1       1.165   9.015  16.817  0.00  0.00    +0.000 HD
ENDBRANCH   6  14
BRANCH   7  16
ATOM     16  C   UNL     1       2.869   6.781  18.502  0.00  0.00    +0.000 C 
BRANCH  16  17
ATOM     17  C   UNL     1       1.982   5.658  17.899  0.00  0.00    +0.000 C 
BRANCH  17  18
ATOM     18  C   UNL     1       2.279   4.182  18.265  0.00  0.00    +0.000 C 
ATOM     19  C   UNL     1       2.928   3.324  17.180  0.00  0.00    +0.000 C 
ATOM     20  C   UNL     1       3.602   2.181  17.945  0.00  0.00    +0.000 C 
ATOM     21  C   UNL     1       3.913   2.719  19.338  0.00  0.00    +0.000 C 
ATOM     22  C   UNL     1       3.313   4.117  19.398  0.00  0.00    +0.000 C 
ENDBRANCH  17  18
ENDBRANCH  16  17
BRANCH  16  23
ATOM     23  S   UNL     1       3.946   7.496  17.182  0.00  0.00    +0.000 S 
BRANCH  23  24
ATOM     24  C   UNL     1       5.470   6.487  17.226  0.00  0.00    +0.000 C 
ATOM     25  C   UNL     1       5.557   5.398  16.158  0.00  0.00    +0.000 C 
ATOM     26  C   UNL     1       7.010   4.925  16.054  0.00  0.00    +0.000 C 
ATOM     27  C   UNL     1       7.570   4.453  17.398  0.00  0.00    +0.000 C 
ATOM     28  C   UNL     1       7.314   5.433  18.545  0.00  0.00    +0.000 C 
ATOM     29  C   UNL     1       5.857   5.904  18.589  0.00  0.00    +0.000 C 
ENDBRANCH  23  24
ENDBRANCH  16  23
ENDBRANCH   7  16
TORSDOF 7
ENDMDL
