MODEL 1
REMARK VINA RESULT:      -9.1      0.000      0.000
REMARK  Name = 
REMARK  5 active torsions:
REMARK  status: ('A' for Active; 'I' for Inactive)
REMARK    1  A    between atoms: C_2  and  C_13
REMARK    2  A    between atoms: N_3  and  C_4
REMARK    3  A    between atoms: C_15  and  C_16
REMARK    4  A    between atoms: C_16  and  O_17
REMARK    5  A    between atoms: O_17  and  C_18
REMARK                            x       y       z     vdW  Elec       q    Type
REMARK                         _______ _______ _______ _____ _____    ______ ____
ROOT
ATOM      1  C   UNL     1       7.494   6.756  17.918  0.00  0.00    +0.000 A 
ATOM      2  C   UNL     1       8.411   7.431  18.772  0.00  0.00    +0.000 A 
ATOM      3  C   UNL     1       8.386   8.735  18.345  0.00  0.00    +0.000 A 
ATOM      4  O   UNL     1       7.616   8.824  17.233  0.00  0.00    +0.000 OA
ATOM      5  N   UNL     1       7.066   7.586  16.952  0.00  0.00    +0.000 NA
ENDROOT
BRANCH   1   7
ATOM      6  O   UNL     1       7.658   4.382  18.049  0.00  0.00    +0.000 OA
ATOM      7  C   UNL     1       6.961   5.393  18.060  0.00  0.00    +0.000 C 
ATOM      8  N   UNL     1       5.583   5.346  18.169  0.00  0.00    +0.000 N 
ATOM      9  H   UNL     1       5.054   6.204  18.075  0.00  0.00    +0.000 HD
BRANCH   8  10
ATOM     10  C   UNL     1       4.836   4.105  18.146  0.00  0.00    +0.000 C 
ATOM     11  C   UNL     1       4.229   3.789  16.757  0.00  0.00    +0.000 C 
ATOM     12  C   UNL     1       2.905   3.049  17.012  0.00  0.00    +0.000 C 
ATOM     13  C   UNL     1       2.488   3.649  18.317  0.00  0.00    +0.000 A 
ATOM     14  C   UNL     1       1.225   3.666  18.881  0.00  0.00    +0.000 A 
ATOM     15  C   UNL     1       1.062   4.263  20.129  0.00  0.00    +0.000 A 
ATOM     16  C   UNL     1       2.170   4.787  20.819  0.00  0.00    +0.000 A 
ATOM     17  C   UNL     1       3.444   4.744  20.253  0.00  0.00    +0.000 A 
ATOM     18  C   UNL     1       3.589   4.205  18.982  0.00  0.00    +0.000 A 
ENDBRANCH   8  10
ENDBRANCH   1   7
BRANCH   3  19
ATOM     19  C   UNL     1       8.939   9.994  18.894  0.00  0.00    +0.000 C 
BRANCH  19  20
ATOM     20  O   UNL     1       9.859  10.508  17.942  0.00  0.00    +0.000 OA
BRANCH  20  21
ATOM     21  C   UNL     1      10.167  11.839  18.045  0.00  0.00    +0.000 A 
ATOM     22  C   UNL     1       9.351  12.917  17.682  0.00  0.00    +0.000 A 
ATOM     23  F   UNL     1       8.127  12.728  17.171  0.00  0.00    +0.000 F 
ATOM     24  C   UNL     1       9.774  14.237  17.850  0.00  0.00    +0.000 A 
ATOM     25  C   UNL     1      11.031  14.506  18.386  0.00  0.00    +0.000 A 
ATOM     26  C   UNL     1      11.860  13.448  18.748  0.00  0.00    +0.000 A 
ATOM     27  C   UNL     1      11.428  12.133  18.572  0.00  0.00    +0.000 A 
ATOM     28  F   UNL     1      12.249  11.139  18.940  0.00  0.00    +0.000 F 
ENDBRANCH  20  21
ENDBRANCH  19  20
ENDBRANCH   3  19
TORSDOF 5
ENDMDL
MODEL 2
REMARK VINA RESULT:      -8.8      1.539      1.677
REMARK  Name = 
REMARK  5 active torsions:
REMARK  status: ('A' for Active; 'I' for Inactive)
REMARK    1  A    between atoms: C_2  and  C_13
REMARK    2  A    between atoms: N_3  and  C_4
REMARK    3  A    between atoms: C_15  and  C_16
REMARK    4  A    between atoms: C_16  and  O_17
REMARK    5  A    between atoms: O_17  and  C_18
REMARK                            x       y       z     vdW  Elec       q    Type
REMARK                         _______ _______ _______ _____ _____    ______ ____
ROOT
ATOM      1  C   UNL     1       7.040   6.618  18.089  0.00  0.00    +0.000 A 
ATOM      2  C   UNL     1       8.109   7.400  18.612  0.00  0.00    +0.000 A 
ATOM      3  C   UNL     1       8.037   8.587  17.927  0.00  0.00    +0.000 A 
ATOM      4  O   UNL     1       7.082   8.490  16.969  0.00  0.00    +0.000 OA
ATOM      5  N   UNL     1       6.465   7.255  17.055  0.00  0.00    +0.000 NA
ENDROOT
BRANCH   1   7
ATOM      6  O   UNL     1       7.144   4.592  19.341  0.00  0.00    +0.000 OA
ATOM      7  C   UNL     1       6.512   5.347  18.607  0.00  0.00    +0.000 C 
ATOM      8  N   UNL     1       5.238   5.053  18.156  0.00  0.00    +0.000 N 
ATOM      9  H   UNL     1       4.804   5.666  17.477  0.00  0.00    +0.000 HD
BRANCH   8  10
ATOM     10  C   UNL     1       4.594   3.779  18.401  0.00  0.00    +0.000 C 
ATOM     11  C   UNL     1       4.036   3.125  17.113  0.00  0.00    +0.000 C 
ATOM     12  C   UNL     1       2.772   2.350  17.523  0.00  0.00    +0.000 C 
ATOM     13  C   UNL     1       2.288   3.178  18.670  0.00  0.00    +0.000 A 
ATOM     14  C   UNL     1       1.019   3.212  19.221  0.00  0.00    +0.000 A 
ATOM     15  C   UNL     1       0.789   4.045  20.313  0.00  0.00    +0.000 A 
ATOM     16  C   UNL     1       1.840   4.794  20.872  0.00  0.00    +0.000 A 
ATOM     17  C   UNL     1       3.122   4.736  20.325  0.00  0.00    +0.000 A 
ATOM     18  C   UNL     1       3.330   3.952  19.199  0.00  0.00    +0.000 A 
ENDBRANCH   8  10
ENDBRANCH   1   7
BRANCH   3  19
ATOM     19  C   UNL     1       8.705   9.897  18.093  0.00  0.00    +0.000 C 
BRANCH  19  20
ATOM     20  O   UNL     1       9.307   9.911  19.379  0.00  0.00    +0.000 OA
BRANCH  20  21
ATOM     21  C   UNL     1       9.745  11.126  19.837  0.00  0.00    +0.000 A 
ATOM     22  C   UNL     1       9.370  11.755  21.030  0.00  0.00    +0.000 A 
ATOM     23  F   UNL     1       8.497  11.190  21.875  0.00  0.00    +0.000 F 
ATOM     24  C   UNL     1       9.900  12.994  21.397  0.00  0.00    +0.000 A 
ATOM     25  C   UNL     1      10.821  13.633  20.570  0.00  0.00    +0.000 A 
ATOM     26  C   UNL     1      11.203  13.027  19.376  0.00  0.00    +0.000 A 
ATOM     27  C   UNL     1      10.664  11.790  19.019  0.00  0.00    +0.000 A 
ATOM     28  F   UNL     1      11.061  11.232  17.866  0.00  0.00    +0.000 F 
ENDBRANCH  20  21
ENDBRANCH  19  20
ENDBRANCH   3  19
TORSDOF 5
ENDMDL
MODEL 3
REMARK VINA RESULT:      -8.7      1.386      1.740
REMARK  Name = 
REMARK  5 active torsions:
REMARK  status: ('A' for Active; 'I' for Inactive)
REMARK    1  A    between atoms: C_2  and  C_13
REMARK    2  A    between atoms: N_3  and  C_4
REMARK    3  A    between atoms: C_15  and  C_16
REMARK    4  A    between atoms: C_16  and  O_17
REMARK    5  A    between atoms: O_17  and  C_18
REMARK                            x       y       z     vdW  Elec       q    Type
REMARK                         _______ _______ _______ _____ _____    ______ ____
ROOT
ATOM      1  C   UNL     1       7.248   6.544  18.054  0.00  0.00    +0.000 A 
ATOM      2  C   UNL     1       8.092   7.460  18.743  0.00  0.00    +0.000 A 
ATOM      3  C   UNL     1       8.113   8.578  17.947  0.00  0.00    +0.000 A 
ATOM      4  O   UNL     1       7.443   8.316  16.797  0.00  0.00    +0.000 OA
ATOM      5  N   UNL     1       6.912   7.041  16.852  0.00  0.00    +0.000 NA
ENDROOT
BRANCH   1   7
ATOM      6  O   UNL     1       7.319   4.487  19.256  0.00  0.00    +0.000 OA
ATOM      7  C   UNL     1       6.696   5.274  18.550  0.00  0.00    +0.000 C 
ATOM      8  N   UNL     1       5.408   5.023  18.113  0.00  0.00    +0.000 N 
ATOM      9  H   UNL     1       4.980   5.662  17.455  0.00  0.00    +0.000 HD
BRANCH   8  10
ATOM     10  C   UNL     1       4.736   3.760  18.338  0.00  0.00    +0.000 C 
ATOM     11  C   UNL     1       4.125   3.161  17.047  0.00  0.00    +0.000 C 
ATOM     12  C   UNL     1       2.852   2.408  17.469  0.00  0.00    +0.000 C 
ATOM     13  C   UNL     1       2.422   3.214  18.654  0.00  0.00    +0.000 A 
ATOM     14  C   UNL     1       1.170   3.265  19.240  0.00  0.00    +0.000 A 
ATOM     15  C   UNL     1       0.993   4.071  20.362  0.00  0.00    +0.000 A 
ATOM     16  C   UNL     1       2.079   4.774  20.914  0.00  0.00    +0.000 A 
ATOM     17  C   UNL     1       3.344   4.698  20.330  0.00  0.00    +0.000 A 
ATOM     18  C   UNL     1       3.499   3.943  19.175  0.00  0.00    +0.000 A 
ENDBRANCH   8  10
ENDBRANCH   1   7
BRANCH   3  19
ATOM     19  C   UNL     1       8.625   9.953  18.140  0.00  0.00    +0.000 C 
BRANCH  19  20
ATOM     20  O   UNL     1       9.544   9.920  19.223  0.00  0.00    +0.000 OA
BRANCH  20  21
ATOM     21  C   UNL     1      10.134  11.109  19.562  0.00  0.00    +0.000 A 
ATOM     22  C   UNL     1      11.185  11.742  18.888  0.00  0.00    +0.000 A 
ATOM     23  F   UNL     1      11.738  11.206  17.791  0.00  0.00    +0.000 F 
ATOM     24  C   UNL     1      11.695  12.966  19.325  0.00  0.00    +0.000 A 
ATOM     25  C   UNL     1      11.160  13.584  20.453  0.00  0.00    +0.000 A 
ATOM     26  C   UNL     1      10.118  12.968  21.140  0.00  0.00    +0.000 A 
ATOM     27  C   UNL     1       9.619  11.743  20.696  0.00  0.00    +0.000 A 
ATOM     28  F   UNL     1       8.610  11.182  21.377  0.00  0.00    +0.000 F 
ENDBRANCH  20  21
ENDBRANCH  19  20
ENDBRANCH   3  19
TORSDOF 5
ENDMDL
MODEL 4
REMARK VINA RESULT:      -8.5      5.960      8.600
REMARK  Name = 
REMARK  5 active torsions:
REMARK  status: ('A' for Active; 'I' for Inactive)
REMARK    1  A    between atoms: C_2  and  C_13
REMARK    2  A    between atoms: N_3  and  C_4
REMARK    3  A    between atoms: C_15  and  C_16
REMARK    4  A    between atoms: C_16  and  O_17
REMARK    5  A    between atoms: O_17  and  C_18
REMARK                            x       y       z     vdW  Elec       q    Type
REMARK                         _______ _______ _______ _____ _____    ______ ____
ROOT
ATOM      1  C   UNL     1       2.043   7.897  18.965  0.00  0.00    +0.000 A 
ATOM      2  C   UNL     1       2.609   6.790  18.272  0.00  0.00    +0.000 A 
ATOM      3  C   UNL     1       2.693   5.797  19.215  0.00  0.00    +0.000 A 
ATOM      4  O   UNL     1       2.331   6.299  20.422  0.00  0.00    +0.000 OA
ATOM      5  N   UNL     1       1.938   7.617  20.274  0.00  0.00    +0.000 NA
ENDROOT
BRANCH   1   7
ATOM      6  O   UNL     1       2.062   9.752  17.468  0.00  0.00    +0.000 OA
ATOM      7  C   UNL     1       1.529   9.153  18.398  0.00  0.00    +0.000 C 
ATOM      8  N   UNL     1       0.397   9.626  19.037  0.00  0.00    +0.000 N 
ATOM      9  H   UNL     1       0.058   9.140  19.857  0.00  0.00    +0.000 HD
BRANCH   8  10
ATOM     10  C   UNL     1      -0.176  10.926  18.756  0.00  0.00    +0.000 C 
ATOM     11  C   UNL     1      -0.565  11.705  20.037  0.00  0.00    +0.000 C 
ATOM     12  C   UNL     1      -1.805  12.545  19.683  0.00  0.00    +0.000 C 
ATOM     13  C   UNL     1      -2.449  11.681  18.645  0.00  0.00    +0.000 A 
ATOM     14  C   UNL     1      -3.763  11.708  18.212  0.00  0.00    +0.000 A 
ATOM     15  C   UNL     1      -4.150  10.823  17.208  0.00  0.00    +0.000 A 
ATOM     16  C   UNL     1      -3.210   9.961  16.616  0.00  0.00    +0.000 A 
ATOM     17  C   UNL     1      -1.882   9.957  17.043  0.00  0.00    +0.000 A 
ATOM     18  C   UNL     1      -1.517  10.797  18.086  0.00  0.00    +0.000 A 
ENDBRANCH   8  10
ENDBRANCH   1   7
BRANCH   3  19
ATOM     19  C   UNL     1       3.001   4.351  19.143  0.00  0.00    +0.000 C 
BRANCH  19  20
ATOM     20  O   UNL     1       4.394   4.198  19.374  0.00  0.00    +0.000 OA
BRANCH  20  21
ATOM     21  C   UNL     1       5.212   4.312  18.280  0.00  0.00    +0.000 A 
ATOM     22  C   UNL     1       4.937   3.874  16.980  0.00  0.00    +0.000 A 
ATOM     23  F   UNL     1       3.782   3.265  16.676  0.00  0.00    +0.000 F 
ATOM     24  C   UNL     1       5.850   4.062  15.941  0.00  0.00    +0.000 A 
ATOM     25  C   UNL     1       7.065   4.696  16.185  0.00  0.00    +0.000 A 
ATOM     26  C   UNL     1       7.361   5.136  17.472  0.00  0.00    +0.000 A 
ATOM     27  C   UNL     1       6.442   4.939  18.503  0.00  0.00    +0.000 A 
ATOM     28  F   UNL     1       6.756   5.382  19.729  0.00  0.00    +0.000 F 
ENDBRANCH  20  21
ENDBRANCH  19  20
ENDBRANCH   3  19
TORSDOF 5
ENDMDL
MODEL 5
REMARK VINA RESULT:      -8.5      6.143      8.413
REMARK  Name = 
REMARK  5 active torsions:
REMARK  status: ('A' for Active; 'I' for Inactive)
REMARK    1  A    between atoms: C_2  and  C_13
REMARK    2  A    between atoms: N_3  and  C_4
REMARK    3  A    between atoms: C_15  and  C_16
REMARK    4  A    between atoms: C_16  and  O_17
REMARK    5  A    between atoms: O_17  and  C_18
REMARK                            x       y       z     vdW  Elec       q    Type
REMARK                         _______ _______ _______ _____ _____    ______ ____
ROOT
ATOM      1  C   UNL     1       1.918   8.557  18.786  0.00  0.00    +0.000 A 
ATOM      2  C   UNL     1       2.480   7.636  17.858  0.00  0.00    +0.000 A 
ATOM      3  C   UNL     1       2.626   6.471  18.570  0.00  0.00    +0.000 A 
ATOM      4  O   UNL     1       2.303   6.701  19.867  0.00  0.00    +0.000 OA
ATOM      5  N   UNL     1       1.873   8.008  20.012  0.00  0.00    +0.000 NA
ENDROOT
BRANCH   1   7
ATOM      6  O   UNL     1       2.013  10.843  18.120  0.00  0.00    +0.000 OA
ATOM      7  C   UNL     1       1.351   9.886  18.512  0.00  0.00    +0.000 C 
ATOM      8  N   UNL     1      -0.004   9.974  18.773  0.00  0.00    +0.000 N 
ATOM      9  H   UNL     1      -0.477   9.180  19.185  0.00  0.00    +0.000 HD
BRANCH   8  10
ATOM     10  C   UNL     1      -0.729  11.227  18.736  0.00  0.00    +0.000 C 
ATOM     11  C   UNL     1      -1.305  11.634  20.115  0.00  0.00    +0.000 C 
ATOM     12  C   UNL     1      -2.621  12.381  19.841  0.00  0.00    +0.000 C 
ATOM     13  C   UNL     1      -3.072  11.714  18.581  0.00  0.00    +0.000 A 
ATOM     14  C   UNL     1      -4.346  11.686  18.041  0.00  0.00    +0.000 A 
ATOM     15  C   UNL     1      -4.542  11.021  16.833  0.00  0.00    +0.000 A 
ATOM     16  C   UNL     1      -3.456  10.438  16.155  0.00  0.00    +0.000 A 
ATOM     17  C   UNL     1      -2.172  10.492  16.696  0.00  0.00    +0.000 A 
ATOM     18  C   UNL     1      -1.994  11.101  17.930  0.00  0.00    +0.000 A 
ENDBRANCH   8  10
ENDBRANCH   1   7
BRANCH   3  19
ATOM     19  C   UNL     1       2.964   5.083  18.188  0.00  0.00    +0.000 C 
BRANCH  19  20
ATOM     20  O   UNL     1       4.028   5.144  17.248  0.00  0.00    +0.000 OA
BRANCH  20  21
ATOM     21  C   UNL     1       5.247   5.547  17.728  0.00  0.00    +0.000 A 
ATOM     22  C   UNL     1       5.904   5.055  18.861  0.00  0.00    +0.000 A 
ATOM     23  F   UNL     1       5.364   4.092  19.621  0.00  0.00    +0.000 F 
ATOM     24  C   UNL     1       7.157   5.538  19.242  0.00  0.00    +0.000 A 
ATOM     25  C   UNL     1       7.780   6.532  18.492  0.00  0.00    +0.000 A 
ATOM     26  C   UNL     1       7.142   7.039  17.364  0.00  0.00    +0.000 A 
ATOM     27  C   UNL     1       5.887   6.550  16.995  0.00  0.00    +0.000 A 
ATOM     28  F   UNL     1       5.305   7.055  15.898  0.00  0.00    +0.000 F 
ENDBRANCH  20  21
ENDBRANCH  19  20
ENDBRANCH   3  19
TORSDOF 5
ENDMDL
MODEL 6
REMARK VINA RESULT:      -8.3      1.461      1.643
REMARK  Name = 
REMARK  5 active torsions:
REMARK  status: ('A' for Active; 'I' for Inactive)
REMARK    1  A    between atoms: C_2  and  C_13
REMARK    2  A    between atoms: N_3  and  C_4
REMARK    3  A    between atoms: C_15  and  C_16
REMARK    4  A    between atoms: C_16  and  O_17
REMARK    5  A    between atoms: O_17  and  C_18
REMARK                            x       y       z     vdW  Elec       q    Type
REMARK                         _______ _______ _______ _____ _____    ______ ____
ROOT
ATOM      1  C   UNL     1       6.760   6.011  17.968  0.00  0.00    +0.000 A 
ATOM      2  C   UNL     1       6.719   7.306  17.377  0.00  0.00    +0.000 A 
ATOM      3  C   UNL     1       7.831   7.945  17.868  0.00  0.00    +0.000 A 
ATOM      4  O   UNL     1       8.430   7.150  18.789  0.00  0.00    +0.000 OA
ATOM      5  N   UNL     1       7.757   5.945  18.867  0.00  0.00    +0.000 NA
ENDROOT
BRANCH   1   7
ATOM      6  O   UNL     1       6.227   4.037  16.744  0.00  0.00    +0.000 OA
ATOM      7  C   UNL     1       5.942   4.837  17.631  0.00  0.00    +0.000 C 
ATOM      8  N   UNL     1       4.787   4.732  18.385  0.00  0.00    +0.000 N 
ATOM      9  H   UNL     1       4.558   5.473  19.036  0.00  0.00    +0.000 HD
BRANCH   8  10
ATOM     10  C   UNL     1       3.756   3.754  18.108  0.00  0.00    +0.000 C 
ATOM     11  C   UNL     1       2.587   4.328  17.269  0.00  0.00    +0.000 C 
ATOM     12  C   UNL     1       1.314   3.598  17.728  0.00  0.00    +0.000 C 
ATOM     13  C   UNL     1       1.645   3.314  19.159  0.00  0.00    +0.000 A 
ATOM     14  C   UNL     1       0.775   3.011  20.191  0.00  0.00    +0.000 A 
ATOM     15  C   UNL     1       1.304   2.756  21.454  0.00  0.00    +0.000 A 
ATOM     16  C   UNL     1       2.696   2.757  21.658  0.00  0.00    +0.000 A 
ATOM     17  C   UNL     1       3.567   3.041  20.606  0.00  0.00    +0.000 A 
ATOM     18  C   UNL     1       3.031   3.356  19.365  0.00  0.00    +0.000 A 
ENDBRANCH   8  10
ENDBRANCH   1   7
BRANCH   3  19
ATOM     19  C   UNL     1       8.499   9.222  17.531  0.00  0.00    +0.000 C 
BRANCH  19  20
ATOM     20  O   UNL     1       8.348  10.091  18.645  0.00  0.00    +0.000 OA
BRANCH  20  21
ATOM     21  C   UNL     1       9.037  11.274  18.596  0.00  0.00    +0.000 A 
ATOM     22  C   UNL     1       8.767  12.366  17.763  0.00  0.00    +0.000 A 
ATOM     23  F   UNL     1       7.751  12.345  16.888  0.00  0.00    +0.000 F 
ATOM     24  C   UNL     1       9.536  13.530  17.817  0.00  0.00    +0.000 A 
ATOM     25  C   UNL     1      10.600  13.623  18.710  0.00  0.00    +0.000 A 
ATOM     26  C   UNL     1      10.890  12.547  19.544  0.00  0.00    +0.000 A 
ATOM     27  C   UNL     1      10.115  11.387  19.479  0.00  0.00    +0.000 A 
ATOM     28  F   UNL     1      10.417  10.373  20.302  0.00  0.00    +0.000 F 
ENDBRANCH  20  21
ENDBRANCH  19  20
ENDBRANCH   3  19
TORSDOF 5
ENDMDL
MODEL 7
REMARK VINA RESULT:      -8.3      1.186      1.188
REMARK  Name = 
REMARK  5 active torsions:
REMARK  status: ('A' for Active; 'I' for Inactive)
REMARK    1  A    between atoms: C_2  and  C_13
REMARK    2  A    between atoms: N_3  and  C_4
REMARK    3  A    between atoms: C_15  and  C_16
REMARK    4  A    between atoms: C_16  and  O_17
REMARK    5  A    between atoms: O_17  and  C_18
REMARK                            x       y       z     vdW  Elec       q    Type
REMARK                         _______ _______ _______ _____ _____    ______ ____
ROOT
ATOM      1  C   UNL     1       6.941   6.554  18.176  0.00  0.00    +0.000 A 
ATOM      2  C   UNL     1       8.138   7.233  18.544  0.00  0.00    +0.000 A 
ATOM      3  C   UNL     1       8.137   8.373  17.779  0.00  0.00    +0.000 A 
ATOM      4  O   UNL     1       7.091   8.328  16.916  0.00  0.00    +0.000 OA
ATOM      5  N   UNL     1       6.348   7.186  17.150  0.00  0.00    +0.000 NA
ENDROOT
BRANCH   1   7
ATOM      6  O   UNL     1       6.730   4.904  19.883  0.00  0.00    +0.000 OA
ATOM      7  C   UNL     1       6.323   5.393  18.833  0.00  0.00    +0.000 C 
ATOM      8  N   UNL     1       5.250   4.868  18.135  0.00  0.00    +0.000 N 
ATOM      9  H   UNL     1       5.020   5.254  17.228  0.00  0.00    +0.000 HD
BRANCH   8  10
ATOM     10  C   UNL     1       4.603   3.628  18.507  0.00  0.00    +0.000 C 
ATOM     11  C   UNL     1       4.056   2.840  17.291  0.00  0.00    +0.000 C 
ATOM     12  C   UNL     1       2.787   2.114  17.769  0.00  0.00    +0.000 C 
ATOM     13  C   UNL     1       2.293   3.060  18.817  0.00  0.00    +0.000 A 
ATOM     14  C   UNL     1       1.019   3.152  19.348  0.00  0.00    +0.000 A 
ATOM     15  C   UNL     1       0.780   4.098  20.343  0.00  0.00    +0.000 A 
ATOM     16  C   UNL     1       1.826   4.901  20.829  0.00  0.00    +0.000 A 
ATOM     17  C   UNL     1       3.113   4.785  20.304  0.00  0.00    +0.000 A 
ATOM     18  C   UNL     1       3.331   3.885  19.270  0.00  0.00    +0.000 A 
ENDBRANCH   8  10
ENDBRANCH   1   7
BRANCH   3  19
ATOM     19  C   UNL     1       8.964   9.600  17.785  0.00  0.00    +0.000 C 
BRANCH  19  20
ATOM     20  O   UNL     1       8.497  10.426  18.843  0.00  0.00    +0.000 OA
BRANCH  20  21
ATOM     21  C   UNL     1       9.000  11.699  18.893  0.00  0.00    +0.000 A 
ATOM     22  C   UNL     1       8.720  12.745  18.006  0.00  0.00    +0.000 A 
ATOM     23  F   UNL     1       7.889  12.579  16.967  0.00  0.00    +0.000 F 
ATOM     24  C   UNL     1       9.286  14.010  18.171  0.00  0.00    +0.000 A 
ATOM     25  C   UNL     1      10.150  14.255  19.235  0.00  0.00    +0.000 A 
ATOM     26  C   UNL     1      10.446  13.228  20.127  0.00  0.00    +0.000 A 
ATOM     27  C   UNL     1       9.877  11.966  19.948  0.00  0.00    +0.000 A 
ATOM     28  F   UNL     1      10.177  11.002  20.831  0.00  0.00    +0.000 F 
ENDBRANCH  20  21
ENDBRANCH  19  20
ENDBRANCH   3  19
TORSDOF 5
ENDMDL
MODEL 8
REMARK VINA RESULT:      -8.1      5.833      8.473
REMARK  Name = 
REMARK  5 active torsions:
REMARK  status: ('A' for Active; 'I' for Inactive)
REMARK    1  A    between atoms: C_2  and  C_13
REMARK    2  A    between atoms: N_3  and  C_4
REMARK    3  A    between atoms: C_15  and  C_16
REMARK    4  A    between atoms: C_16  and  O_17
REMARK    5  A    between atoms: O_17  and  C_18
REMARK                            x       y       z     vdW  Elec       q    Type
REMARK                         _______ _______ _______ _____ _____    ______ ____
ROOT
ATOM      1  C   UNL     1       2.205   7.849  18.885  0.00  0.00    +0.000 A 
ATOM      2  C   UNL     1       2.991   6.869  18.215  0.00  0.00    +0.000 A 
ATOM      3  C   UNL     1       3.050   5.814  19.092  0.00  0.00    +0.000 A 
ATOM      4  O   UNL     1       2.460   6.173  20.259  0.00  0.00    +0.000 OA
ATOM      5  N   UNL     1       1.942   7.450  20.141  0.00  0.00    +0.000 NA
ENDROOT
BRANCH   1   7
ATOM      6  O   UNL     1       2.067   9.646  17.325  0.00  0.00    +0.000 OA
ATOM      7  C   UNL     1       1.638   9.087  18.330  0.00  0.00    +0.000 C 
ATOM      8  N   UNL     1       0.586   9.594  19.072  0.00  0.00    +0.000 N 
ATOM      9  H   UNL     1       0.338   9.143  19.943  0.00  0.00    +0.000 HD
BRANCH   8  10
ATOM     10  C   UNL     1      -0.008  10.888  18.807  0.00  0.00    +0.000 C 
ATOM     11  C   UNL     1      -0.360  11.669  20.097  0.00  0.00    +0.000 C 
ATOM     12  C   UNL     1      -1.618  12.496  19.784  0.00  0.00    +0.000 C 
ATOM     13  C   UNL     1      -2.290  11.623  18.772  0.00  0.00    +0.000 A 
ATOM     14  C   UNL     1      -3.619  11.636  18.385  0.00  0.00    +0.000 A 
ATOM     15  C   UNL     1      -4.032  10.744  17.398  0.00  0.00    +0.000 A 
ATOM     16  C   UNL     1      -3.105   9.888  16.776  0.00  0.00    +0.000 A 
ATOM     17  C   UNL     1      -1.764   9.898  17.157  0.00  0.00    +0.000 A 
ATOM     18  C   UNL     1      -1.370  10.745  18.184  0.00  0.00    +0.000 A 
ENDBRANCH   8  10
ENDBRANCH   1   7
BRANCH   3  19
ATOM     19  C   UNL     1       3.531   4.420  18.972  0.00  0.00    +0.000 C 
BRANCH  19  20
ATOM     20  O   UNL     1       4.950   4.451  19.011  0.00  0.00    +0.000 OA
BRANCH  20  21
ATOM     21  C   UNL     1       5.592   4.661  17.818  0.00  0.00    +0.000 A 
ATOM     22  C   UNL     1       6.543   5.650  17.543  0.00  0.00    +0.000 A 
ATOM     23  F   UNL     1       6.929   6.530  18.477  0.00  0.00    +0.000 F 
ATOM     24  C   UNL     1       7.140   5.754  16.285  0.00  0.00    +0.000 A 
ATOM     25  C   UNL     1       6.793   4.865  15.271  0.00  0.00    +0.000 A 
ATOM     26  C   UNL     1       5.845   3.877  15.522  0.00  0.00    +0.000 A 
ATOM     27  C   UNL     1       5.253   3.785  16.783  0.00  0.00    +0.000 A 
ATOM     28  F   UNL     1       4.350   2.816  16.993  0.00  0.00    +0.000 F 
ENDBRANCH  20  21
ENDBRANCH  19  20
ENDBRANCH   3  19
TORSDOF 5
ENDMDL
MODEL 9
REMARK VINA RESULT:      -8.1      6.007      8.234
REMARK  Name = 
REMARK  5 active torsions:
REMARK  status: ('A' for Active; 'I' for Inactive)
REMARK    1  A    between atoms: C_2  and  C_13
REMARK    2  A    between atoms: N_3  and  C_4
REMARK    3  A    between atoms: C_15  and  C_16
REMARK    4  A    between atoms: C_16  and  O_17
REMARK    5  A    between atoms: O_17  and  C_18
REMARK                            x       y       z     vdW  Elec       q    Type
REMARK                         _______ _______ _______ _____ _____    ______ ____
ROOT
ATOM      1  C   UNL     1       2.017   8.322  18.697  0.00  0.00    +0.000 A 
ATOM      2  C   UNL     1       2.605   7.340  17.851  0.00  0.00    +0.000 A 
ATOM      3  C   UNL     1       2.764   6.240  18.657  0.00  0.00    +0.000 A 
ATOM      4  O   UNL     1       2.424   6.568  19.928  0.00  0.00    +0.000 OA
ATOM      5  N   UNL     1       1.969   7.874  19.963  0.00  0.00    +0.000 NA
ENDROOT
BRANCH   1   7
ATOM      6  O   UNL     1       2.002  10.443  17.609  0.00  0.00    +0.000 OA
ATOM      7  C   UNL     1       1.430   9.614  18.311  0.00  0.00    +0.000 C 
ATOM      8  N   UNL     1       0.174   9.834  18.847  0.00  0.00    +0.000 N 
ATOM      9  H   UNL     1      -0.207   9.157  19.496  0.00  0.00    +0.000 HD
BRANCH   8  10
ATOM     10  C   UNL     1      -0.514  11.103  18.739  0.00  0.00    +0.000 C 
ATOM     11  C   UNL     1      -1.046  11.622  20.097  0.00  0.00    +0.000 C 
ATOM     12  C   UNL     1      -2.346  12.389  19.799  0.00  0.00    +0.000 C 
ATOM     13  C   UNL     1      -2.845  11.652  18.597  0.00  0.00    +0.000 A 
ATOM     14  C   UNL     1      -4.130  11.627  18.087  0.00  0.00    +0.000 A 
ATOM     15  C   UNL     1      -4.373  10.886  16.932  0.00  0.00    +0.000 A 
ATOM     16  C   UNL     1      -3.321  10.225  16.274  0.00  0.00    +0.000 A 
ATOM     17  C   UNL     1      -2.023  10.275  16.783  0.00  0.00    +0.000 A 
ATOM     18  C   UNL     1      -1.800  10.962  17.969  0.00  0.00    +0.000 A 
ENDBRANCH   8  10
ENDBRANCH   1   7
BRANCH   3  19
ATOM     19  C   UNL     1       3.131   4.831  18.391  0.00  0.00    +0.000 C 
BRANCH  19  20
ATOM     20  O   UNL     1       4.118   4.831  17.369  0.00  0.00    +0.000 OA
BRANCH  20  21
ATOM     21  C   UNL     1       5.310   5.437  17.669  0.00  0.00    +0.000 A 
ATOM     22  C   UNL     1       5.914   6.486  16.967  0.00  0.00    +0.000 A 
ATOM     23  F   UNL     1       5.346   7.017  15.875  0.00  0.00    +0.000 F 
ATOM     24  C   UNL     1       7.130   7.033  17.381  0.00  0.00    +0.000 A 
ATOM     25  C   UNL     1       7.770   6.535  18.513  0.00  0.00    +0.000 A 
ATOM     26  C   UNL     1       7.189   5.489  19.223  0.00  0.00    +0.000 A 
ATOM     27  C   UNL     1       5.975   4.948  18.797  0.00  0.00    +0.000 A 
ATOM     28  F   UNL     1       5.439   3.947  19.509  0.00  0.00    +0.000 F 
ENDBRANCH  20  21
ENDBRANCH  19  20
ENDBRANCH   3  19
TORSDOF 5
ENDMDL
