MODEL 1
REMARK VINA RESULT:      -6.8      0.000      0.000
REMARK  Name = 
REMARK  3 active torsions:
REMARK  status: ('A' for Active; 'I' for Inactive)
REMARK    1  A    between atoms: C_1  and  C_2
REMARK    2  A    between atoms: N_16  and  C_17
REMARK    3  A    between atoms: C_17  and  C_18
REMARK                            x       y       z     vdW  Elec       q    Type
REMARK                         _______ _______ _______ _____ _____    ______ ____
ROOT
ATOM      1  C   UNL     1       2.316   7.181  19.790  0.00  0.00    +0.000 C 
ATOM      2  C   UNL     1       1.463   8.341  20.222  0.00  0.00    +0.000 A 
ATOM      3  N   UNL     1       1.038   8.408  21.449  0.00  0.00    +0.000 NA
ATOM      4  C   UNL     1       0.203   9.489  21.775  0.00  0.00    +0.000 A 
ATOM      5  C   UNL     1      -0.291   9.657  23.049  0.00  0.00    +0.000 A 
ATOM      6  N   UNL     1      -1.127  10.654  23.416  0.00  0.00    +0.000 NA
ATOM      7  C   UNL     1      -1.468  11.545  22.480  0.00  0.00    +0.000 A 
ATOM      8  N   UNL     1      -2.331  12.556  22.789  0.00  0.00    +0.000 N 
ATOM      9  C   UNL     1      -3.109  12.552  24.021  0.00  0.00    +0.000 C 
ATOM     10  C   UNL     1      -4.507  13.109  23.691  0.00  0.00    +0.000 C 
ATOM     11  O   UNL     1      -4.432  14.414  23.083  0.00  0.00    +0.000 OA
ATOM     12  C   UNL     1      -3.667  14.363  21.864  0.00  0.00    +0.000 C 
ATOM     13  C   UNL     1      -2.244  13.849  22.117  0.00  0.00    +0.000 C 
ATOM     14  N   UNL     1      -1.038  11.466  21.212  0.00  0.00    +0.000 NA
ATOM     15  C   UNL     1      -0.223  10.449  20.874  0.00  0.00    +0.000 A 
ATOM     16  N   UNL     1       0.231  10.363  19.535  0.00  0.00    +0.000 N 
ATOM     17  C   UNL     1       1.114   9.371  19.149  0.00  0.00    +0.000 A 
ATOM     18  O   UNL     1       1.613   9.245  18.040  0.00  0.00    +0.000 OA
ENDROOT
BRANCH  16  19
ATOM     19  C   UNL     1      -0.259  11.306  18.545  0.00  0.00    +0.000 C 
BRANCH  19  20
ATOM     20  C   UNL     1      -1.566  10.860  17.946  0.00  0.00    +0.000 A 
ATOM     21  C   UNL     1      -1.804   9.887  16.994  0.00  0.00    +0.000 A 
ATOM     22  C   UNL     1      -3.172   9.817  16.609  0.00  0.00    +0.000 A 
ATOM     23  C   UNL     1      -3.942  10.729  17.292  0.00  0.00    +0.000 A 
ATOM     24  S   UNL     1      -3.019  11.657  18.391  0.00  0.00    +0.000 S 
ENDBRANCH  19  20
ENDBRANCH  16  19
TORSDOF 2
ENDMDL
MODEL 2
REMARK VINA RESULT:      -6.6      3.886      6.152
REMARK  Name = 
REMARK  3 active torsions:
REMARK  status: ('A' for Active; 'I' for Inactive)
REMARK    1  A    between atoms: C_1  and  C_2
REMARK    2  A    between atoms: N_16  and  C_17
REMARK    3  A    between atoms: C_17  and  C_18
REMARK                            x       y       z     vdW  Elec       q    Type
REMARK                         _______ _______ _______ _____ _____    ______ ____
ROOT
ATOM      1  C   UNL     1       5.189   6.362  15.940  0.00  0.00    +0.000 C 
ATOM      2  C   UNL     1       4.191   6.820  16.966  0.00  0.00    +0.000 A 
ATOM      3  N   UNL     1       3.549   7.937  16.790  0.00  0.00    +0.000 NA
ATOM      4  C   UNL     1       2.669   8.334  17.810  0.00  0.00    +0.000 A 
ATOM      5  C   UNL     1       1.934   9.494  17.715  0.00  0.00    +0.000 A 
ATOM      6  N   UNL     1       1.101   9.949  18.677  0.00  0.00    +0.000 NA
ATOM      7  C   UNL     1       0.968   9.201  19.778  0.00  0.00    +0.000 A 
ATOM      8  N   UNL     1       0.160   9.626  20.792  0.00  0.00    +0.000 N 
ATOM      9  C   UNL     1      -0.354  10.989  20.846  0.00  0.00    +0.000 C 
ATOM     10  C   UNL     1      -0.331  11.438  22.319  0.00  0.00    +0.000 C 
ATOM     11  O   UNL     1      -1.065  10.531  23.165  0.00  0.00    +0.000 OA
ATOM     12  C   UNL     1      -0.511   9.204  23.089  0.00  0.00    +0.000 C 
ATOM     13  C   UNL     1      -0.532   8.670  21.651  0.00  0.00    +0.000 C 
ATOM     14  N   UNL     1       1.641   8.056  19.962  0.00  0.00    +0.000 NA
ATOM     15  C   UNL     1       2.479   7.641  18.994  0.00  0.00    +0.000 A 
ATOM     16  N   UNL     1       3.193   6.433  19.188  0.00  0.00    +0.000 N 
ATOM     17  C   UNL     1       4.023   5.935  18.201  0.00  0.00    +0.000 A 
ATOM     18  O   UNL     1       4.632   4.875  18.241  0.00  0.00    +0.000 OA
ENDROOT
BRANCH  16  19
ATOM     19  C   UNL     1       3.078   5.723  20.450  0.00  0.00    +0.000 C 
BRANCH  19  20
ATOM     20  C   UNL     1       2.309   4.438  20.300  0.00  0.00    +0.000 A 
ATOM     21  C   UNL     1       0.971   4.248  20.011  0.00  0.00    +0.000 A 
ATOM     22  C   UNL     1       0.590   2.877  20.046  0.00  0.00    +0.000 A 
ATOM     23  C   UNL     1       1.654   2.058  20.344  0.00  0.00    +0.000 A 
ATOM     24  S   UNL     1       3.099   2.940  20.575  0.00  0.00    +0.000 S 
ENDBRANCH  19  20
ENDBRANCH  16  19
TORSDOF 2
ENDMDL
MODEL 3
REMARK VINA RESULT:      -6.2      1.591      2.553
REMARK  Name = 
REMARK  3 active torsions:
REMARK  status: ('A' for Active; 'I' for Inactive)
REMARK    1  A    between atoms: C_1  and  C_2
REMARK    2  A    between atoms: N_16  and  C_17
REMARK    3  A    between atoms: C_17  and  C_18
REMARK                            x       y       z     vdW  Elec       q    Type
REMARK                         _______ _______ _______ _____ _____    ______ ____
ROOT
ATOM      1  C   UNL     1       2.296   7.379  19.650  0.00  0.00    +0.000 C 
ATOM      2  C   UNL     1       1.438   8.522  20.115  0.00  0.00    +0.000 A 
ATOM      3  N   UNL     1       0.985   8.536  21.333  0.00  0.00    +0.000 NA
ATOM      4  C   UNL     1       0.147   9.605  21.689  0.00  0.00    +0.000 A 
ATOM      5  C   UNL     1      -0.375   9.718  22.957  0.00  0.00    +0.000 A 
ATOM      6  N   UNL     1      -1.216  10.701  23.351  0.00  0.00    +0.000 NA
ATOM      7  C   UNL     1      -1.532  11.636  22.448  0.00  0.00    +0.000 A 
ATOM      8  N   UNL     1      -2.397  12.636  22.783  0.00  0.00    +0.000 N 
ATOM      9  C   UNL     1      -3.204  12.580  23.996  0.00  0.00    +0.000 C 
ATOM     10  C   UNL     1      -4.591  13.158  23.660  0.00  0.00    +0.000 C 
ATOM     11  O   UNL     1      -4.497  14.488  23.113  0.00  0.00    +0.000 OA
ATOM     12  C   UNL     1      -3.705  14.489  21.910  0.00  0.00    +0.000 C 
ATOM     13  C   UNL     1      -2.290  13.957  22.172  0.00  0.00    +0.000 C 
ATOM     14  N   UNL     1      -1.073  11.612  21.188  0.00  0.00    +0.000 NA
ATOM     15  C   UNL     1      -0.254  10.607  20.822  0.00  0.00    +0.000 A 
ATOM     16  N   UNL     1       0.230  10.579  19.492  0.00  0.00    +0.000 N 
ATOM     17  C   UNL     1       1.117   9.601  19.081  0.00  0.00    +0.000 A 
ATOM     18  O   UNL     1       1.641   9.523  17.980  0.00  0.00    +0.000 OA
ENDROOT
BRANCH  16  19
ATOM     19  C   UNL     1      -0.234  11.569  18.535  0.00  0.00    +0.000 C 
BRANCH  19  20
ATOM     20  C   UNL     1       0.612  12.813  18.562  0.00  0.00    +0.000 A 
ATOM     21  C   UNL     1       1.977  12.946  18.392  0.00  0.00    +0.000 A 
ATOM     22  C   UNL     1       2.427  14.283  18.582  0.00  0.00    +0.000 A 
ATOM     23  C   UNL     1       1.388  15.135  18.875  0.00  0.00    +0.000 A 
ATOM     24  S   UNL     1      -0.116  14.326  18.916  0.00  0.00    +0.000 S 
ENDBRANCH  19  20
ENDBRANCH  16  19
TORSDOF 2
ENDMDL
MODEL 4
REMARK VINA RESULT:      -6.1      2.521      4.704
REMARK  Name = 
REMARK  3 active torsions:
REMARK  status: ('A' for Active; 'I' for Inactive)
REMARK    1  A    between atoms: C_1  and  C_2
REMARK    2  A    between atoms: N_16  and  C_17
REMARK    3  A    between atoms: C_17  and  C_18
REMARK                            x       y       z     vdW  Elec       q    Type
REMARK                         _______ _______ _______ _____ _____    ______ ____
ROOT
ATOM      1  C   UNL     1      -2.765  10.032  15.791  0.00  0.00    +0.000 C 
ATOM      2  C   UNL     1      -3.063  10.723  17.092  0.00  0.00    +0.000 A 
ATOM      3  N   UNL     1      -4.279  11.091  17.365  0.00  0.00    +0.000 NA
ATOM      4  C   UNL     1      -4.482  11.778  18.573  0.00  0.00    +0.000 A 
ATOM      5  C   UNL     1      -5.733  12.201  18.960  0.00  0.00    +0.000 A 
ATOM      6  N   UNL     1      -5.987  12.897  20.090  0.00  0.00    +0.000 NA
ATOM      7  C   UNL     1      -4.951  13.164  20.892  0.00  0.00    +0.000 A 
ATOM      8  N   UNL     1      -5.146  13.887  22.032  0.00  0.00    +0.000 N 
ATOM      9  C   UNL     1      -6.384  14.614  22.279  0.00  0.00    +0.000 C 
ATOM     10  C   UNL     1      -6.015  15.946  22.959  0.00  0.00    +0.000 C 
ATOM     11  O   UNL     1      -5.242  15.738  24.157  0.00  0.00    +0.000 OA
ATOM     12  C   UNL     1      -4.023  15.031  23.860  0.00  0.00    +0.000 C 
ATOM     13  C   UNL     1      -4.310  13.671  23.210  0.00  0.00    +0.000 C 
ATOM     14  N   UNL     1      -3.695  12.794  20.602  0.00  0.00    +0.000 NA
ATOM     15  C   UNL     1      -3.473  12.119  19.458  0.00  0.00    +0.000 A 
ATOM     16  N   UNL     1      -2.147  11.729  19.148  0.00  0.00    +0.000 N 
ATOM     17  C   UNL     1      -1.873  10.987  18.015  0.00  0.00    +0.000 A 
ATOM     18  O   UNL     1      -0.780  10.547  17.690  0.00  0.00    +0.000 OA
ENDROOT
BRANCH  16  19
ATOM     19  C   UNL     1      -1.054  12.139  20.014  0.00  0.00    +0.000 C 
BRANCH  19  20
ATOM     20  C   UNL     1      -0.755  11.105  21.065  0.00  0.00    +0.000 A 
ATOM     21  C   UNL     1      -0.243   9.830  20.916  0.00  0.00    +0.000 A 
ATOM     22  C   UNL     1      -0.188   9.112  22.144  0.00  0.00    +0.000 A 
ATOM     23  C   UNL     1      -0.644   9.868  23.198  0.00  0.00    +0.000 A 
ATOM     24  S   UNL     1      -1.130  11.431  22.707  0.00  0.00    +0.000 S 
ENDBRANCH  19  20
ENDBRANCH  16  19
TORSDOF 2
ENDMDL
MODEL 5
REMARK VINA RESULT:      -6.1      3.080      4.960
REMARK  Name = 
REMARK  3 active torsions:
REMARK  status: ('A' for Active; 'I' for Inactive)
REMARK    1  A    between atoms: C_1  and  C_2
REMARK    2  A    between atoms: N_16  and  C_17
REMARK    3  A    between atoms: C_17  and  C_18
REMARK                            x       y       z     vdW  Elec       q    Type
REMARK                         _______ _______ _______ _____ _____    ______ ____
ROOT
ATOM      1  C   UNL     1      -3.020   9.994  14.852  0.00  0.00    +0.000 C 
ATOM      2  C   UNL     1      -3.333  10.587  16.197  0.00  0.00    +0.000 A 
ATOM      3  N   UNL     1      -4.454  11.218  16.381  0.00  0.00    +0.000 NA
ATOM      4  C   UNL     1      -4.662  11.794  17.645  0.00  0.00    +0.000 A 
ATOM      5  C   UNL     1      -5.821  12.474  17.944  0.00  0.00    +0.000 A 
ATOM      6  N   UNL     1      -6.065  13.080  19.127  0.00  0.00    +0.000 NA
ATOM      7  C   UNL     1      -5.123  12.984  20.071  0.00  0.00    +0.000 A 
ATOM      8  N   UNL     1      -5.306  13.600  21.275  0.00  0.00    +0.000 N 
ATOM      9  C   UNL     1      -6.360  14.584  21.482  0.00  0.00    +0.000 C 
ATOM     10  C   UNL     1      -5.790  15.694  22.385  0.00  0.00    +0.000 C 
ATOM     11  O   UNL     1      -5.271  15.164  23.621  0.00  0.00    +0.000 OA
ATOM     12  C   UNL     1      -4.224  14.209  23.364  0.00  0.00    +0.000 C 
ATOM     13  C   UNL     1      -4.726  13.048  22.496  0.00  0.00    +0.000 C 
ATOM     14  N   UNL     1      -3.962  12.342  19.875  0.00  0.00    +0.000 NA
ATOM     15  C   UNL     1      -3.741  11.766  18.678  0.00  0.00    +0.000 A 
ATOM     16  N   UNL     1      -2.515  11.090  18.468  0.00  0.00    +0.000 N 
ATOM     17  C   UNL     1      -2.262  10.435  17.277  0.00  0.00    +0.000 A 
ATOM     18  O   UNL     1      -1.268   9.772  17.018  0.00  0.00    +0.000 OA
ENDROOT
BRANCH  16  19
ATOM     19  C   UNL     1      -1.495  11.110  19.502  0.00  0.00    +0.000 C 
BRANCH  19  20
ATOM     20  C   UNL     1      -0.434  12.140  19.222  0.00  0.00    +0.000 A 
ATOM     21  C   UNL     1      -0.562  13.507  19.068  0.00  0.00    +0.000 A 
ATOM     22  C   UNL     1       0.664  14.138  18.716  0.00  0.00    +0.000 A 
ATOM     23  C   UNL     1       1.697  13.235  18.629  0.00  0.00    +0.000 A 
ATOM     24  S   UNL     1       1.188  11.640  18.973  0.00  0.00    +0.000 S 
ENDBRANCH  19  20
ENDBRANCH  16  19
TORSDOF 2
ENDMDL
MODEL 6
REMARK VINA RESULT:      -6.0      2.567      4.830
REMARK  Name = 
REMARK  3 active torsions:
REMARK  status: ('A' for Active; 'I' for Inactive)
REMARK    1  A    between atoms: C_1  and  C_2
REMARK    2  A    between atoms: N_16  and  C_17
REMARK    3  A    between atoms: C_17  and  C_18
REMARK                            x       y       z     vdW  Elec       q    Type
REMARK                         _______ _______ _______ _____ _____    ______ ____
ROOT
ATOM      1  C   UNL     1      -4.009  10.818  16.343  0.00  0.00    +0.000 C 
ATOM      2  C   UNL     1      -3.892  11.417  17.717  0.00  0.00    +0.000 A 
ATOM      3  N   UNL     1      -4.942  11.922  18.293  0.00  0.00    +0.000 NA
ATOM      4  C   UNL     1      -4.755  12.513  19.554  0.00  0.00    +0.000 A 
ATOM      5  C   UNL     1      -5.805  13.065  20.252  0.00  0.00    +0.000 A 
ATOM      6  N   UNL     1      -5.684  13.680  21.449  0.00  0.00    +0.000 NA
ATOM      7  C   UNL     1      -4.464  13.724  21.996  0.00  0.00    +0.000 A 
ATOM      8  N   UNL     1      -4.280  14.356  23.191  0.00  0.00    +0.000 N 
ATOM      9  C   UNL     1      -5.301  15.220  23.769  0.00  0.00    +0.000 C 
ATOM     10  C   UNL     1      -4.585  16.418  24.419  0.00  0.00    +0.000 C 
ATOM     11  O   UNL     1      -3.602  15.993  25.384  0.00  0.00    +0.000 OA
ATOM     12  C   UNL     1      -2.608  15.156  24.763  0.00  0.00    +0.000 C 
ATOM     13  C   UNL     1      -3.243  13.916  24.120  0.00  0.00    +0.000 C 
ATOM     14  N   UNL     1      -3.380  13.214  21.393  0.00  0.00    +0.000 NA
ATOM     15  C   UNL     1      -3.531  12.626  20.191  0.00  0.00    +0.000 A 
ATOM     16  N   UNL     1      -2.388  12.089  19.552  0.00  0.00    +0.000 N 
ATOM     17  C   UNL     1      -2.498  11.426  18.343  0.00  0.00    +0.000 A 
ATOM     18  O   UNL     1      -1.588  10.873  17.741  0.00  0.00    +0.000 OA
ENDROOT
BRANCH  16  19
ATOM     19  C   UNL     1      -1.077  12.261  20.155  0.00  0.00    +0.000 C 
BRANCH  19  20
ATOM     20  C   UNL     1      -0.702  11.089  21.021  0.00  0.00    +0.000 A 
ATOM     21  C   UNL     1      -0.237   9.841  20.651  0.00  0.00    +0.000 A 
ATOM     22  C   UNL     1      -0.081   8.962  21.759  0.00  0.00    +0.000 A 
ATOM     23  C   UNL     1      -0.415   9.571  22.946  0.00  0.00    +0.000 A 
ATOM     24  S   UNL     1      -0.908  11.191  22.721  0.00  0.00    +0.000 S 
ENDBRANCH  19  20
ENDBRANCH  16  19
TORSDOF 2
ENDMDL
MODEL 7
REMARK VINA RESULT:      -6.0      2.856      4.846
REMARK  Name = 
REMARK  3 active torsions:
REMARK  status: ('A' for Active; 'I' for Inactive)
REMARK    1  A    between atoms: C_1  and  C_2
REMARK    2  A    between atoms: N_16  and  C_17
REMARK    3  A    between atoms: C_17  and  C_18
REMARK                            x       y       z     vdW  Elec       q    Type
REMARK                         _______ _______ _______ _____ _____    ______ ____
ROOT
ATOM      1  C   UNL     1       1.812   9.545  18.148  0.00  0.00    +0.000 C 
ATOM      2  C   UNL     1       0.455  10.148  18.380  0.00  0.00    +0.000 A 
ATOM      3  N   UNL     1      -0.578   9.678  17.746  0.00  0.00    +0.000 NA
ATOM      4  C   UNL     1      -1.808  10.319  17.969  0.00  0.00    +0.000 A 
ATOM      5  C   UNL     1      -2.963   9.892  17.354  0.00  0.00    +0.000 A 
ATOM      6  N   UNL     1      -4.168  10.488  17.498  0.00  0.00    +0.000 NA
ATOM      7  C   UNL     1      -4.236  11.544  18.315  0.00  0.00    +0.000 A 
ATOM      8  N   UNL     1      -5.422  12.200  18.476  0.00  0.00    +0.000 N 
ATOM      9  C   UNL     1      -6.555  11.968  17.590  0.00  0.00    +0.000 C 
ATOM     10  C   UNL     1      -7.243  13.325  17.348  0.00  0.00    +0.000 C 
ATOM     11  O   UNL     1      -7.623  13.959  18.585  0.00  0.00    +0.000 OA
ATOM     12  C   UNL     1      -6.469  14.181  19.417  0.00  0.00    +0.000 C 
ATOM     13  C   UNL     1      -5.746  12.865  19.734  0.00  0.00    +0.000 C 
ATOM     14  N   UNL     1      -3.166  12.034  18.958  0.00  0.00    +0.000 NA
ATOM     15  C   UNL     1      -1.977  11.430  18.777  0.00  0.00    +0.000 A 
ATOM     16  N   UNL     1      -0.845  11.947  19.453  0.00  0.00    +0.000 N 
ATOM     17  C   UNL     1       0.388  11.331  19.346  0.00  0.00    +0.000 A 
ATOM     18  O   UNL     1       1.409  11.657  19.935  0.00  0.00    +0.000 OA
ENDROOT
BRANCH  16  19
ATOM     19  C   UNL     1      -0.970  13.159  20.246  0.00  0.00    +0.000 C 
BRANCH  19  20
ATOM     20  C   UNL     1      -1.684  12.905  21.546  0.00  0.00    +0.000 A 
ATOM     21  C   UNL     1      -1.570  11.835  22.412  0.00  0.00    +0.000 A 
ATOM     22  C   UNL     1      -2.486  11.907  23.499  0.00  0.00    +0.000 A 
ATOM     23  C   UNL     1      -3.261  13.041  23.440  0.00  0.00    +0.000 A 
ATOM     24  S   UNL     1      -2.881  14.010  22.085  0.00  0.00    +0.000 S 
ENDBRANCH  19  20
ENDBRANCH  16  19
TORSDOF 2
ENDMDL
MODEL 8
REMARK VINA RESULT:      -5.9      1.758      2.653
REMARK  Name = 
REMARK  3 active torsions:
REMARK  status: ('A' for Active; 'I' for Inactive)
REMARK    1  A    between atoms: C_1  and  C_2
REMARK    2  A    between atoms: N_16  and  C_17
REMARK    3  A    between atoms: C_17  and  C_18
REMARK                            x       y       z     vdW  Elec       q    Type
REMARK                         _______ _______ _______ _____ _____    ______ ____
ROOT
ATOM      1  C   UNL     1       1.149   9.257  22.357  0.00  0.00    +0.000 C 
ATOM      2  C   UNL     1       0.104  10.309  22.109  0.00  0.00    +0.000 A 
ATOM      3  N   UNL     1      -0.726  10.631  23.056  0.00  0.00    +0.000 NA
ATOM      4  C   UNL     1      -1.711  11.583  22.744  0.00  0.00    +0.000 A 
ATOM      5  C   UNL     1      -2.630  12.000  23.680  0.00  0.00    +0.000 A 
ATOM      6  N   UNL     1      -3.623  12.883  23.432  0.00  0.00    +0.000 NA
ATOM      7  C   UNL     1      -3.690  13.401  22.200  0.00  0.00    +0.000 A 
ATOM      8  N   UNL     1      -4.688  14.277  21.888  0.00  0.00    +0.000 N 
ATOM      9  C   UNL     1      -5.844  14.466  22.754  0.00  0.00    +0.000 C 
ATOM     10  C   UNL     1      -7.080  14.637  21.852  0.00  0.00    +0.000 C 
ATOM     11  O   UNL     1      -6.908  15.713  20.908  0.00  0.00    +0.000 OA
ATOM     12  C   UNL     1      -5.765  15.473  20.066  0.00  0.00    +0.000 C 
ATOM     13  C   UNL     1      -4.481  15.326  20.894  0.00  0.00    +0.000 C 
ATOM     14  N   UNL     1      -2.840  13.057  21.222  0.00  0.00    +0.000 NA
ATOM     15  C   UNL     1      -1.874  12.159  21.496  0.00  0.00    +0.000 A 
ATOM     16  N   UNL     1      -0.977  11.794  20.464  0.00  0.00    +0.000 N 
ATOM     17  C   UNL     1       0.065  10.918  20.708  0.00  0.00    +0.000 A 
ATOM     18  O   UNL     1       0.929  10.588  19.908  0.00  0.00    +0.000 OA
ENDROOT
BRANCH  16  19
ATOM     19  C   UNL     1      -1.169  12.318  19.123  0.00  0.00    +0.000 C 
BRANCH  19  20
ATOM     20  C   UNL     1      -1.973  11.379  18.265  0.00  0.00    +0.000 A 
ATOM     21  C   UNL     1      -1.543  10.325  17.480  0.00  0.00    +0.000 A 
ATOM     22  C   UNL     1      -2.599   9.727  16.737  0.00  0.00    +0.000 A 
ATOM     23  C   UNL     1      -3.809  10.330  16.990  0.00  0.00    +0.000 A 
ATOM     24  S   UNL     1      -3.668  11.606  18.119  0.00  0.00    +0.000 S 
ENDBRANCH  19  20
ENDBRANCH  16  19
TORSDOF 2
ENDMDL
MODEL 9
REMARK VINA RESULT:      -5.8      3.314      4.982
REMARK  Name = 
REMARK  3 active torsions:
REMARK  status: ('A' for Active; 'I' for Inactive)
REMARK    1  A    between atoms: C_1  and  C_2
REMARK    2  A    between atoms: N_16  and  C_17
REMARK    3  A    between atoms: C_17  and  C_18
REMARK                            x       y       z     vdW  Elec       q    Type
REMARK                         _______ _______ _______ _____ _____    ______ ____
ROOT
ATOM      1  C   UNL     1       1.603   9.299  17.944  0.00  0.00    +0.000 C 
ATOM      2  C   UNL     1       0.272   9.940  18.225  0.00  0.00    +0.000 A 
ATOM      3  N   UNL     1      -0.745   9.680  17.459  0.00  0.00    +0.000 NA
ATOM      4  C   UNL     1      -1.946  10.351  17.745  0.00  0.00    +0.000 A 
ATOM      5  C   UNL     1      -3.083  10.138  17.001  0.00  0.00    +0.000 A 
ATOM      6  N   UNL     1      -4.256  10.778  17.202  0.00  0.00    +0.000 NA
ATOM      7  C   UNL     1      -4.312  11.655  18.210  0.00  0.00    +0.000 A 
ATOM      8  N   UNL     1      -5.463  12.349  18.441  0.00  0.00    +0.000 N 
ATOM      9  C   UNL     1      -6.551  12.379  17.472  0.00  0.00    +0.000 C 
ATOM     10  C   UNL     1      -7.139  13.803  17.474  0.00  0.00    +0.000 C 
ATOM     11  O   UNL     1      -7.557  14.206  18.793  0.00  0.00    +0.000 OA
ATOM     12  C   UNL     1      -6.446  14.175  19.710  0.00  0.00    +0.000 C 
ATOM     13  C   UNL     1      -5.826  12.774  19.790  0.00  0.00    +0.000 C 
ATOM     14  N   UNL     1      -3.257  11.930  18.991  0.00  0.00    +0.000 NA
ATOM     15  C   UNL     1      -2.097  11.290  18.751  0.00  0.00    +0.000 A 
ATOM     16  N   UNL     1      -0.981  11.580  19.573  0.00  0.00    +0.000 N 
ATOM     17  C   UNL     1       0.217  10.910  19.405  0.00  0.00    +0.000 A 
ATOM     18  O   UNL     1       1.216  11.039  20.097  0.00  0.00    +0.000 OA
ENDROOT
BRANCH  16  19
ATOM     19  C   UNL     1      -1.082  12.617  20.586  0.00  0.00    +0.000 C 
BRANCH  19  20
ATOM     20  C   UNL     1      -0.325  13.857  20.194  0.00  0.00    +0.000 A 
ATOM     21  C   UNL     1      -0.359  14.564  19.007  0.00  0.00    +0.000 A 
ATOM     22  C   UNL     1       0.576  15.637  18.979  0.00  0.00    +0.000 A 
ATOM     23  C   UNL     1       1.284  15.729  20.155  0.00  0.00    +0.000 A 
ATOM     24  S   UNL     1       0.819  14.531  21.281  0.00  0.00    +0.000 S 
ENDBRANCH  19  20
ENDBRANCH  16  19
TORSDOF 2
ENDMDL
