MODEL 1
REMARK VINA RESULT:      -8.5      0.000      0.000
REMARK  Name = 
REMARK  9 active torsions:
REMARK  status: ('A' for Active; 'I' for Inactive)
REMARK    1  A    between atoms: C_1  and  O_2
REMARK    2  A    between atoms: O_2  and  C_3
REMARK    3  A    between atoms: C_6  and  C_7
REMARK    4  A    between atoms: C_7  and  C_8
REMARK    5  A    between atoms: N_10  and  C_11
REMARK    6  A    between atoms: C_14  and  C_15
REMARK    7  A    between atoms: C_15  and  C_16
REMARK    8  A    between atoms: C_16  and  N_17
REMARK    9  A    between atoms: N_20  and  C_21
REMARK                            x       y       z     vdW  Elec       q    Type
REMARK                         _______ _______ _______ _____ _____    ______ ____
ROOT
ATOM      1  C   UNL     1       1.217   8.915  19.153  0.00  0.00    +0.000 C 
ATOM      2  C   UNL     1       2.262   8.033  18.460  0.00  0.00    +0.000 C 
ATOM      3  C   UNL     1       2.129   6.561  18.832  0.00  0.00    +0.000 C 
ATOM      4  C   UNL     1       2.192   6.375  20.356  0.00  0.00    +0.000 C 
ATOM      5  C   UNL     1       1.060   7.190  21.006  0.00  0.00    +0.000 C 
ATOM      6  C   UNL     1       1.162   8.672  20.664  0.00  0.00    +0.000 C 
ENDROOT
BRANCH   1   9
ATOM      7  C   UNL     1       0.718  11.408  18.919  0.00  0.00    +0.000 C 
ATOM      8  O   UNL     1       1.235  12.514  18.763  0.00  0.00    +0.000 OA
ATOM      9  N   UNL     1       1.524  10.314  18.880  0.00  0.00    +0.000 N 
ATOM     10  H   UNL     1       2.500  10.571  18.786  0.00  0.00    +0.000 HD
BRANCH   7  11
ATOM     11  C   UNL     1      -0.768  11.230  19.172  0.00  0.00    +0.000 C 
BRANCH  11  15
ATOM     12  C   UNL     1      -3.017  13.388  22.304  0.00  0.00    +0.000 C 
ATOM     13  C   UNL     1      -3.329  13.625  20.824  0.00  0.00    +0.000 C 
ATOM     14  C   UNL     1      -2.831  12.481  19.954  0.00  0.00    +0.000 C 
ATOM     15  C   UNL     1      -1.312  12.316  20.112  0.00  0.00    +0.000 C 
ATOM     16  C   UNL     1      -0.995  11.989  21.579  0.00  0.00    +0.000 C 
ATOM     17  C   UNL     1      -1.529  13.072  22.517  0.00  0.00    +0.000 C 
BRANCH  12  19
ATOM     18  C   UNL     1      -4.194  14.282  24.191  0.00  0.00    +0.000 C 
ATOM     19  O   UNL     1      -3.315  14.538  23.104  0.00  0.00    +0.000 OA
ENDBRANCH  12  19
ENDBRANCH  11  15
ENDBRANCH   7  11
ENDBRANCH   1   9
BRANCH   4  20
ATOM     20  C   UNL     1       2.054   4.907  20.790  0.00  0.00    +0.000 C 
BRANCH  20  21
ATOM     21  C   UNL     1       1.354   3.997  19.767  0.00  0.00    +0.000 C 
BRANCH  21  22
ATOM     22  N   UNL     1       2.106   2.755  19.506  0.00  0.00    +0.000 NA
ATOM     23  C   UNL     1       2.216   2.427  18.064  0.00  0.00    +0.000 C 
ATOM     24  C   UNL     1       2.994   3.475  17.249  0.00  0.00    +0.000 C 
ATOM     25  N   UNL     1       4.357   3.612  17.792  0.00  0.00    +0.000 N 
ATOM     26  C   UNL     1       4.446   3.811  19.241  0.00  0.00    +0.000 C 
ATOM     27  C   UNL     1       3.494   2.858  20.022  0.00  0.00    +0.000 C 
BRANCH  25  28
ATOM     28  C   UNL     1       5.276   4.093  16.882  0.00  0.00    +0.000 A 
ATOM     29  N   UNL     1       5.331   3.435  15.692  0.00  0.00    +0.000 NA
ATOM     30  C   UNL     1       6.183   3.834  14.718  0.00  0.00    +0.000 A 
ATOM     31  C   UNL     1       7.024   4.910  14.839  0.00  0.00    +0.000 A 
ATOM     32  C   UNL     1       6.972   5.562  16.046  0.00  0.00    +0.000 A 
ATOM     33  C   UNL     1       6.128   5.162  17.078  0.00  0.00    +0.000 A 
ATOM     34  C   UNL     1       6.289   6.113  18.198  0.00  0.00    +0.000 C 
ATOM     35  C   UNL     1       7.446   6.974  17.695  0.00  0.00    +0.000 C 
ATOM     36  O   UNL     1       7.715   6.680  16.311  0.00  0.00    +0.000 OA
ENDBRANCH  25  28
ENDBRANCH  21  22
ENDBRANCH  20  21
ENDBRANCH   4  20
TORSDOF 8
ENDMDL
MODEL 2
REMARK VINA RESULT:      -8.4      2.739     12.271
REMARK  Name = 
REMARK  9 active torsions:
REMARK  status: ('A' for Active; 'I' for Inactive)
REMARK    1  A    between atoms: C_1  and  O_2
REMARK    2  A    between atoms: O_2  and  C_3
REMARK    3  A    between atoms: C_6  and  C_7
REMARK    4  A    between atoms: C_7  and  C_8
REMARK    5  A    between atoms: N_10  and  C_11
REMARK    6  A    between atoms: C_14  and  C_15
REMARK    7  A    between atoms: C_15  and  C_16
REMARK    8  A    between atoms: C_16  and  N_17
REMARK    9  A    between atoms: N_20  and  C_21
REMARK                            x       y       z     vdW  Elec       q    Type
REMARK                         _______ _______ _______ _____ _____    ______ ____
ROOT
ATOM      1  C   UNL     1       2.325   7.207  19.784  0.00  0.00    +0.000 C 
ATOM      2  C   UNL     1       2.030   7.717  18.369  0.00  0.00    +0.000 C 
ATOM      3  C   UNL     1       1.809   9.224  18.319  0.00  0.00    +0.000 C 
ATOM      4  C   UNL     1       0.693   9.645  19.287  0.00  0.00    +0.000 C 
ATOM      5  C   UNL     1       1.077   9.211  20.713  0.00  0.00    +0.000 C 
ATOM      6  C   UNL     1       1.299   7.706  20.806  0.00  0.00    +0.000 C 
ENDROOT
BRANCH   1   9
ATOM      7  C   UNL     1       3.397   4.897  19.620  0.00  0.00    +0.000 C 
ATOM      8  O   UNL     1       3.186   3.691  19.757  0.00  0.00    +0.000 OA
ATOM      9  N   UNL     1       2.349   5.750  19.765  0.00  0.00    +0.000 N 
ATOM     10  H   UNL     1       1.504   5.262  20.043  0.00  0.00    +0.000 HD
BRANCH   7  11
ATOM     11  C   UNL     1       4.777   5.455  19.319  0.00  0.00    +0.000 C 
BRANCH  11  15
ATOM     12  C   UNL     1       6.812   5.420  15.397  0.00  0.00    +0.000 C 
ATOM     13  C   UNL     1       5.335   5.812  15.501  0.00  0.00    +0.000 C 
ATOM     14  C   UNL     1       4.963   6.235  16.914  0.00  0.00    +0.000 C 
ATOM     15  C   UNL     1       5.233   5.089  17.900  0.00  0.00    +0.000 C 
ATOM     16  C   UNL     1       6.730   4.746  17.869  0.00  0.00    +0.000 C 
ATOM     17  C   UNL     1       7.186   4.374  16.458  0.00  0.00    +0.000 C 
BRANCH  12  19
ATOM     18  C   UNL     1       6.201   3.860  13.684  0.00  0.00    +0.000 C 
ATOM     19  O   UNL     1       7.124   4.848  14.122  0.00  0.00    +0.000 OA
ENDBRANCH  12  19
ENDBRANCH  11  15
ENDBRANCH   7  11
ENDBRANCH   1   9
BRANCH   4  20
ATOM     20  C   UNL     1       0.433  11.160  19.285  0.00  0.00    +0.000 C 
BRANCH  20  21
ATOM     21  C   UNL     1      -0.836  11.595  20.035  0.00  0.00    +0.000 C 
BRANCH  21  22
ATOM     22  N   UNL     1      -0.591  12.721  20.958  0.00  0.00    +0.000 NA
ATOM     23  C   UNL     1      -1.415  13.916  20.657  0.00  0.00    +0.000 C 
ATOM     24  C   UNL     1      -2.928  13.677  20.803  0.00  0.00    +0.000 C 
ATOM     25  N   UNL     1      -3.231  13.247  22.181  0.00  0.00    +0.000 N 
ATOM     26  C   UNL     1      -2.410  12.149  22.697  0.00  0.00    +0.000 C 
ATOM     27  C   UNL     1      -0.902  12.335  22.356  0.00  0.00    +0.000 C 
BRANCH  25  28
ATOM     28  C   UNL     1      -4.529  13.501  22.573  0.00  0.00    +0.000 A 
ATOM     29  N   UNL     1      -5.433  12.521  22.302  0.00  0.00    +0.000 NA
ATOM     30  C   UNL     1      -6.731  12.657  22.660  0.00  0.00    +0.000 A 
ATOM     31  C   UNL     1      -7.227  13.752  23.320  0.00  0.00    +0.000 A 
ATOM     32  C   UNL     1      -6.312  14.742  23.580  0.00  0.00    +0.000 A 
ATOM     33  C   UNL     1      -4.976  14.647  23.202  0.00  0.00    +0.000 A 
ATOM     34  C   UNL     1      -4.273  15.854  23.687  0.00  0.00    +0.000 C 
ATOM     35  C   UNL     1      -5.438  16.680  24.227  0.00  0.00    +0.000 C 
ATOM     36  O   UNL     1      -6.635  15.879  24.269  0.00  0.00    +0.000 OA
ENDBRANCH  25  28
ENDBRANCH  21  22
ENDBRANCH  20  21
ENDBRANCH   4  20
TORSDOF 8
ENDMDL
MODEL 3
REMARK VINA RESULT:      -8.3      2.593     11.660
REMARK  Name = 
REMARK  9 active torsions:
REMARK  status: ('A' for Active; 'I' for Inactive)
REMARK    1  A    between atoms: C_1  and  O_2
REMARK    2  A    between atoms: O_2  and  C_3
REMARK    3  A    between atoms: C_6  and  C_7
REMARK    4  A    between atoms: C_7  and  C_8
REMARK    5  A    between atoms: N_10  and  C_11
REMARK    6  A    between atoms: C_14  and  C_15
REMARK    7  A    between atoms: C_15  and  C_16
REMARK    8  A    between atoms: C_16  and  N_17
REMARK    9  A    between atoms: N_20  and  C_21
REMARK                            x       y       z     vdW  Elec       q    Type
REMARK                         _______ _______ _______ _____ _____    ______ ____
ROOT
ATOM      1  C   UNL     1       2.410   7.025  19.368  0.00  0.00    +0.000 C 
ATOM      2  C   UNL     1       2.348   7.543  17.927  0.00  0.00    +0.000 C 
ATOM      3  C   UNL     1       2.457   9.061  17.841  0.00  0.00    +0.000 C 
ATOM      4  C   UNL     1       1.379   9.736  18.703  0.00  0.00    +0.000 C 
ATOM      5  C   UNL     1       1.543   9.274  20.162  0.00  0.00    +0.000 C 
ATOM      6  C   UNL     1       1.432   7.759  20.291  0.00  0.00    +0.000 C 
ENDROOT
BRANCH   1   9
ATOM      7  C   UNL     1       2.959   4.541  19.568  0.00  0.00    +0.000 C 
ATOM      8  O   UNL     1       2.463   3.416  19.639  0.00  0.00    +0.000 OA
ATOM      9  N   UNL     1       2.126   5.596  19.368  0.00  0.00    +0.000 N 
ATOM     10  H   UNL     1       1.153   5.309  19.368  0.00  0.00    +0.000 HD
BRANCH   7  11
ATOM     11  C   UNL     1       4.450   4.786  19.714  0.00  0.00    +0.000 C 
BRANCH  11  15
ATOM     12  C   UNL     1       7.093   4.775  16.173  0.00  0.00    +0.000 C 
ATOM     13  C   UNL     1       7.169   5.915  17.193  0.00  0.00    +0.000 C 
ATOM     14  C   UNL     1       6.575   5.510  18.533  0.00  0.00    +0.000 C 
ATOM     15  C   UNL     1       5.102   5.107  18.361  0.00  0.00    +0.000 C 
ATOM     16  C   UNL     1       5.022   3.906  17.407  0.00  0.00    +0.000 C 
ATOM     17  C   UNL     1       5.664   4.225  16.057  0.00  0.00    +0.000 C 
BRANCH  12  19
ATOM     18  C   UNL     1       6.728   4.616  13.810  0.00  0.00    +0.000 C 
ATOM     19  O   UNL     1       7.479   5.206  14.862  0.00  0.00    +0.000 OA
ENDBRANCH  12  19
ENDBRANCH  11  15
ENDBRANCH   7  11
ENDBRANCH   1   9
BRANCH   4  20
ATOM     20  C   UNL     1       1.448  11.271  18.661  0.00  0.00    +0.000 C 
BRANCH  20  21
ATOM     21  C   UNL     1       0.364  11.985  19.484  0.00  0.00    +0.000 C 
BRANCH  21  22
ATOM     22  N   UNL     1      -0.458  12.899  18.668  0.00  0.00    +0.000 NA
ATOM     23  C   UNL     1      -1.745  12.303  18.237  0.00  0.00    +0.000 C 
ATOM     24  C   UNL     1      -2.684  11.948  19.402  0.00  0.00    +0.000 C 
ATOM     25  N   UNL     1      -2.981  13.161  20.186  0.00  0.00    +0.000 N 
ATOM     26  C   UNL     1      -1.818  13.956  20.589  0.00  0.00    +0.000 C 
ATOM     27  C   UNL     1      -0.796  14.128  19.428  0.00  0.00    +0.000 C 
BRANCH  25  28
ATOM     28  C   UNL     1      -4.163  13.093  20.896  0.00  0.00    +0.000 A 
ATOM     29  N   UNL     1      -5.298  13.308  20.176  0.00  0.00    +0.000 NA
ATOM     30  C   UNL     1      -6.515  13.246  20.767  0.00  0.00    +0.000 A 
ATOM     31  C   UNL     1      -6.701  12.956  22.094  0.00  0.00    +0.000 A 
ATOM     32  C   UNL     1      -5.551  12.752  22.816  0.00  0.00    +0.000 A 
ATOM     33  C   UNL     1      -4.284  12.835  22.246  0.00  0.00    +0.000 A 
ATOM     34  C   UNL     1      -3.288  12.506  23.289  0.00  0.00    +0.000 C 
ATOM     35  C   UNL     1      -4.177  12.399  24.526  0.00  0.00    +0.000 C 
ATOM     36  O   UNL     1      -5.564  12.411  24.141  0.00  0.00    +0.000 OA
ENDBRANCH  25  28
ENDBRANCH  21  22
ENDBRANCH  20  21
ENDBRANCH   4  20
TORSDOF 8
ENDMDL
MODEL 4
REMARK VINA RESULT:      -8.3      1.761      2.352
REMARK  Name = 
REMARK  9 active torsions:
REMARK  status: ('A' for Active; 'I' for Inactive)
REMARK    1  A    between atoms: C_1  and  O_2
REMARK    2  A    between atoms: O_2  and  C_3
REMARK    3  A    between atoms: C_6  and  C_7
REMARK    4  A    between atoms: C_7  and  C_8
REMARK    5  A    between atoms: N_10  and  C_11
REMARK    6  A    between atoms: C_14  and  C_15
REMARK    7  A    between atoms: C_15  and  C_16
REMARK    8  A    between atoms: C_16  and  N_17
REMARK    9  A    between atoms: N_20  and  C_21
REMARK                            x       y       z     vdW  Elec       q    Type
REMARK                         _______ _______ _______ _____ _____    ______ ____
ROOT
ATOM      1  C   UNL     1       1.323   8.686  18.929  0.00  0.00    +0.000 C 
ATOM      2  C   UNL     1       2.425   7.899  18.212  0.00  0.00    +0.000 C 
ATOM      3  C   UNL     1       2.447   6.425  18.603  0.00  0.00    +0.000 C 
ATOM      4  C   UNL     1       2.574   6.266  20.126  0.00  0.00    +0.000 C 
ATOM      5  C   UNL     1       1.389   6.978  20.803  0.00  0.00    +0.000 C 
ATOM      6  C   UNL     1       1.338   8.459  20.443  0.00  0.00    +0.000 C 
ENDROOT
BRANCH   1   9
ATOM      7  C   UNL     1       0.888  11.187  19.193  0.00  0.00    +0.000 C 
ATOM      8  O   UNL     1       1.277  12.305  18.854  0.00  0.00    +0.000 OA
ATOM      9  N   UNL     1       1.486  10.103  18.631  0.00  0.00    +0.000 N 
ATOM     10  H   UNL     1       2.254  10.372  18.026  0.00  0.00    +0.000 HD
BRANCH   7  11
ATOM     11  C   UNL     1      -0.211  10.983  20.221  0.00  0.00    +0.000 C 
BRANCH  11  15
ATOM     12  C   UNL     1      -3.646  11.466  17.484  0.00  0.00    +0.000 C 
ATOM     13  C   UNL     1      -3.669  12.103  18.876  0.00  0.00    +0.000 C 
ATOM     14  C   UNL     1      -2.269  12.250  19.451  0.00  0.00    +0.000 C 
ATOM     15  C   UNL     1      -1.591  10.875  19.554  0.00  0.00    +0.000 C 
ATOM     16  C   UNL     1      -1.482  10.264  18.149  0.00  0.00    +0.000 C 
ATOM     17  C   UNL     1      -2.855  10.150  17.486  0.00  0.00    +0.000 C 
BRANCH  12  19
ATOM     18  C   UNL     1      -5.927  10.994  18.050  0.00  0.00    +0.000 C 
ATOM     19  O   UNL     1      -4.965  11.157  17.016  0.00  0.00    +0.000 OA
ENDBRANCH  12  19
ENDBRANCH  11  15
ENDBRANCH   7  11
ENDBRANCH   1   9
BRANCH   4  20
ATOM     20  C   UNL     1       2.591   4.798  20.578  0.00  0.00    +0.000 C 
BRANCH  20  21
ATOM     21  C   UNL     1       1.566   3.895  19.873  0.00  0.00    +0.000 C 
BRANCH  21  22
ATOM     22  N   UNL     1       2.162   2.638  19.381  0.00  0.00    +0.000 NA
ATOM     23  C   UNL     1       2.176   2.533  17.902  0.00  0.00    +0.000 C 
ATOM     24  C   UNL     1       3.032   3.609  17.214  0.00  0.00    +0.000 C 
ATOM     25  N   UNL     1       4.424   3.516  17.691  0.00  0.00    +0.000 N 
ATOM     26  C   UNL     1       4.593   3.472  19.146  0.00  0.00    +0.000 C 
ATOM     27  C   UNL     1       3.572   2.512  19.826  0.00  0.00    +0.000 C 
BRANCH  25  28
ATOM     28  C   UNL     1       5.353   4.036  16.814  0.00  0.00    +0.000 A 
ATOM     29  N   UNL     1       5.476   3.383  15.626  0.00  0.00    +0.000 NA
ATOM     30  C   UNL     1       6.343   3.819  14.682  0.00  0.00    +0.000 A 
ATOM     31  C   UNL     1       7.136   4.928  14.833  0.00  0.00    +0.000 A 
ATOM     32  C   UNL     1       7.016   5.574  16.038  0.00  0.00    +0.000 A 
ATOM     33  C   UNL     1       6.154   5.138  17.040  0.00  0.00    +0.000 A 
ATOM     34  C   UNL     1       6.237   6.093  18.166  0.00  0.00    +0.000 C 
ATOM     35  C   UNL     1       7.374   7.001  17.704  0.00  0.00    +0.000 C 
ATOM     36  O   UNL     1       7.702   6.721  16.330  0.00  0.00    +0.000 OA
ENDBRANCH  25  28
ENDBRANCH  21  22
ENDBRANCH  20  21
ENDBRANCH   4  20
TORSDOF 8
ENDMDL
MODEL 5
REMARK VINA RESULT:      -8.1      3.308      9.842
REMARK  Name = 
REMARK  9 active torsions:
REMARK  status: ('A' for Active; 'I' for Inactive)
REMARK    1  A    between atoms: C_1  and  O_2
REMARK    2  A    between atoms: O_2  and  C_3
REMARK    3  A    between atoms: C_6  and  C_7
REMARK    4  A    between atoms: C_7  and  C_8
REMARK    5  A    between atoms: N_10  and  C_11
REMARK    6  A    between atoms: C_14  and  C_15
REMARK    7  A    between atoms: C_15  and  C_16
REMARK    8  A    between atoms: C_16  and  N_17
REMARK    9  A    between atoms: N_20  and  C_21
REMARK                            x       y       z     vdW  Elec       q    Type
REMARK                         _______ _______ _______ _____ _____    ______ ____
ROOT
ATOM      1  C   UNL     1       3.381   7.033  17.891  0.00  0.00    +0.000 C 
ATOM      2  C   UNL     1       3.303   6.749  19.395  0.00  0.00    +0.000 C 
ATOM      3  C   UNL     1       1.972   7.172  20.006  0.00  0.00    +0.000 C 
ATOM      4  C   UNL     1       1.687   8.655  19.723  0.00  0.00    +0.000 C 
ATOM      5  C   UNL     1       1.666   8.878  18.200  0.00  0.00    +0.000 C 
ATOM      6  C   UNL     1       2.985   8.474  17.551  0.00  0.00    +0.000 C 
ENDROOT
BRANCH   1   9
ATOM      7  C   UNL     1       5.233   5.683  16.769  0.00  0.00    +0.000 C 
ATOM      8  O   UNL     1       6.398   5.731  16.374  0.00  0.00    +0.000 OA
ATOM      9  N   UNL     1       4.736   6.762  17.429  0.00  0.00    +0.000 N 
ATOM     10  H   UNL     1       5.403   7.525  17.453  0.00  0.00    +0.000 HD
BRANCH   7  11
ATOM     11  C   UNL     1       4.339   4.479  16.528  0.00  0.00    +0.000 C 
BRANCH  11  15
ATOM     12  C   UNL     1       1.881   2.420  19.569  0.00  0.00    +0.000 C 
ATOM     13  C   UNL     1       1.235   3.397  18.582  0.00  0.00    +0.000 C 
ATOM     14  C   UNL     1       2.103   3.609  17.351  0.00  0.00    +0.000 C 
ATOM     15  C   UNL     1       3.476   4.165  17.759  0.00  0.00    +0.000 C 
ATOM     16  C   UNL     1       4.172   3.151  18.680  0.00  0.00    +0.000 C 
ATOM     17  C   UNL     1       3.318   2.842  19.910  0.00  0.00    +0.000 C 
BRANCH  12  19
ATOM     18  C   UNL     1       1.943   2.673  21.951  0.00  0.00    +0.000 C 
ATOM     19  O   UNL     1       1.162   2.358  20.806  0.00  0.00    +0.000 OA
ENDBRANCH  12  19
ENDBRANCH  11  15
ENDBRANCH   7  11
ENDBRANCH   1   9
BRANCH   4  20
ATOM     20  C   UNL     1       0.350   9.134  20.310  0.00  0.00    +0.000 C 
BRANCH  20  21
ATOM     21  C   UNL     1      -0.380  10.191  19.466  0.00  0.00    +0.000 C 
BRANCH  21  22
ATOM     22  N   UNL     1      -0.838  11.341  20.270  0.00  0.00    +0.000 NA
ATOM     23  C   UNL     1       0.256  12.008  21.016  0.00  0.00    +0.000 C 
ATOM     24  C   UNL     1       1.332  12.631  20.111  0.00  0.00    +0.000 C 
ATOM     25  N   UNL     1       0.713  13.628  19.219  0.00  0.00    +0.000 N 
ATOM     26  C   UNL     1      -0.477  13.176  18.493  0.00  0.00    +0.000 C 
ATOM     27  C   UNL     1      -1.453  12.378  19.406  0.00  0.00    +0.000 C 
BRANCH  25  28
ATOM     28  C   UNL     1       1.590  14.588  18.758  0.00  0.00    +0.000 A 
ATOM     29  N   UNL     1       2.837  14.146  18.441  0.00  0.00    +0.000 NA
ATOM     30  C   UNL     1       3.773  14.999  17.960  0.00  0.00    +0.000 A 
ATOM     31  C   UNL     1       3.545  16.334  17.744  0.00  0.00    +0.000 A 
ATOM     32  C   UNL     1       2.288  16.775  18.078  0.00  0.00    +0.000 A 
ATOM     33  C   UNL     1       1.312  15.931  18.599  0.00  0.00    +0.000 A 
ATOM     34  C   UNL     1       0.075  16.720  18.786  0.00  0.00    +0.000 C 
ATOM     35  C   UNL     1       0.566  18.127  18.453  0.00  0.00    +0.000 C 
ATOM     36  O   UNL     1       1.887  18.068  17.883  0.00  0.00    +0.000 OA
ENDBRANCH  25  28
ENDBRANCH  21  22
ENDBRANCH  20  21
ENDBRANCH   4  20
TORSDOF 8
ENDMDL
MODEL 6
REMARK VINA RESULT:      -8.0      5.451      7.915
REMARK  Name = 
REMARK  9 active torsions:
REMARK  status: ('A' for Active; 'I' for Inactive)
REMARK    1  A    between atoms: C_1  and  O_2
REMARK    2  A    between atoms: O_2  and  C_3
REMARK    3  A    between atoms: C_6  and  C_7
REMARK    4  A    between atoms: C_7  and  C_8
REMARK    5  A    between atoms: N_10  and  C_11
REMARK    6  A    between atoms: C_14  and  C_15
REMARK    7  A    between atoms: C_15  and  C_16
REMARK    8  A    between atoms: C_16  and  N_17
REMARK    9  A    between atoms: N_20  and  C_21
REMARK                            x       y       z     vdW  Elec       q    Type
REMARK                         _______ _______ _______ _____ _____    ______ ____
ROOT
ATOM      1  C   UNL     1       9.304  12.748  19.204  0.00  0.00    +0.000 C 
ATOM      2  C   UNL     1       9.082  12.213  17.784  0.00  0.00    +0.000 C 
ATOM      3  C   UNL     1       8.417  10.842  17.769  0.00  0.00    +0.000 C 
ATOM      4  C   UNL     1       9.222   9.835  18.605  0.00  0.00    +0.000 C 
ATOM      5  C   UNL     1       9.329  10.356  20.049  0.00  0.00    +0.000 C 
ATOM      6  C   UNL     1       9.998  11.724  20.108  0.00  0.00    +0.000 C 
ENDROOT
BRANCH   1   9
ATOM      7  C   UNL     1      10.089  15.063  19.937  0.00  0.00    +0.000 C 
ATOM      8  O   UNL     1      10.939  15.933  19.742  0.00  0.00    +0.000 OA
ATOM      9  N   UNL     1      10.094  13.970  19.129  0.00  0.00    +0.000 N 
ATOM     10  H   UNL     1      10.875  13.988  18.482  0.00  0.00    +0.000 HD
BRANCH   7  11
ATOM     11  C   UNL     1       9.061  15.162  21.051  0.00  0.00    +0.000 C 
BRANCH  11  15
ATOM     12  C   UNL     1       5.351  16.293  18.933  0.00  0.00    +0.000 C 
ATOM     13  C   UNL     1       6.654  17.057  18.677  0.00  0.00    +0.000 C 
ATOM     14  C   UNL     1       7.872  16.245  19.090  0.00  0.00    +0.000 C 
ATOM     15  C   UNL     1       7.796  15.898  20.585  0.00  0.00    +0.000 C 
ATOM     16  C   UNL     1       6.538  15.056  20.839  0.00  0.00    +0.000 C 
ATOM     17  C   UNL     1       5.277  15.790  20.383  0.00  0.00    +0.000 C 
BRANCH  12  19
ATOM     18  C   UNL     1       3.282  16.601  17.765  0.00  0.00    +0.000 C 
ATOM     19  O   UNL     1       4.198  17.117  18.720  0.00  0.00    +0.000 OA
ENDBRANCH  12  19
ENDBRANCH  11  15
ENDBRANCH   7  11
ENDBRANCH   1   9
BRANCH   4  20
ATOM     20  C   UNL     1       8.590   8.434  18.632  0.00  0.00    +0.000 C 
BRANCH  20  21
ATOM     21  C   UNL     1       7.486   8.206  17.588  0.00  0.00    +0.000 C 
BRANCH  21  22
ATOM     22  N   UNL     1       7.484   6.830  17.055  0.00  0.00    +0.000 NA
ATOM     23  C   UNL     1       7.447   5.791  18.112  0.00  0.00    +0.000 C 
ATOM     24  C   UNL     1       6.170   5.827  18.969  0.00  0.00    +0.000 C 
ATOM     25  N   UNL     1       4.988   5.645  18.107  0.00  0.00    +0.000 N 
ATOM     26  C   UNL     1       4.927   6.509  16.925  0.00  0.00    +0.000 C 
ATOM     27  C   UNL     1       6.299   6.598  16.193  0.00  0.00    +0.000 C 
BRANCH  25  28
ATOM     28  C   UNL     1       3.883   5.149  18.768  0.00  0.00    +0.000 A 
ATOM     29  N   UNL     1       3.221   6.035  19.560  0.00  0.00    +0.000 NA
ATOM     30  C   UNL     1       2.112   5.662  20.240  0.00  0.00    +0.000 A 
ATOM     31  C   UNL     1       1.571   4.403  20.180  0.00  0.00    +0.000 A 
ATOM     32  C   UNL     1       2.251   3.511  19.388  0.00  0.00    +0.000 A 
ATOM     33  C   UNL     1       3.409   3.854  18.697  0.00  0.00    +0.000 A 
ATOM     34  C   UNL     1       3.840   2.679  17.909  0.00  0.00    +0.000 C 
ATOM     35  C   UNL     1       2.857   1.617  18.397  0.00  0.00    +0.000 C 
ATOM     36  O   UNL     1       1.819   2.229  19.186  0.00  0.00    +0.000 OA
ENDBRANCH  25  28
ENDBRANCH  21  22
ENDBRANCH  20  21
ENDBRANCH   4  20
TORSDOF 8
ENDMDL
MODEL 7
REMARK VINA RESULT:      -8.0      1.166      1.385
REMARK  Name = 
REMARK  9 active torsions:
REMARK  status: ('A' for Active; 'I' for Inactive)
REMARK    1  A    between atoms: C_1  and  O_2
REMARK    2  A    between atoms: O_2  and  C_3
REMARK    3  A    between atoms: C_6  and  C_7
REMARK    4  A    between atoms: C_7  and  C_8
REMARK    5  A    between atoms: N_10  and  C_11
REMARK    6  A    between atoms: C_14  and  C_15
REMARK    7  A    between atoms: C_15  and  C_16
REMARK    8  A    between atoms: C_16  and  N_17
REMARK    9  A    between atoms: N_20  and  C_21
REMARK                            x       y       z     vdW  Elec       q    Type
REMARK                         _______ _______ _______ _____ _____    ______ ____
ROOT
ATOM      1  C   UNL     1       1.675   8.637  18.753  0.00  0.00    +0.000 C 
ATOM      2  C   UNL     1       2.510   7.536  18.091  0.00  0.00    +0.000 C 
ATOM      3  C   UNL     1       2.141   6.141  18.582  0.00  0.00    +0.000 C 
ATOM      4  C   UNL     1       2.251   6.054  20.112  0.00  0.00    +0.000 C 
ATOM      5  C   UNL     1       1.316   7.102  20.741  0.00  0.00    +0.000 C 
ATOM      6  C   UNL     1       1.658   8.514  20.280  0.00  0.00    +0.000 C 
ENDROOT
BRANCH   1   9
ATOM      7  C   UNL     1       1.624  11.162  18.384  0.00  0.00    +0.000 C 
ATOM      8  O   UNL     1       2.319  12.141  18.110  0.00  0.00    +0.000 OA
ATOM      9  N   UNL     1       2.208   9.935  18.359  0.00  0.00    +0.000 N 
ATOM     10  H   UNL     1       3.203   9.998  18.171  0.00  0.00    +0.000 HD
BRANCH   7  11
ATOM     11  C   UNL     1       0.159  11.283  18.764  0.00  0.00    +0.000 C 
BRANCH  11  15
ATOM     12  C   UNL     1      -1.715  14.784  20.701  0.00  0.00    +0.000 C 
ATOM     13  C   UNL     1      -0.646  14.975  19.621  0.00  0.00    +0.000 C 
ATOM     14  C   UNL     1      -0.492  13.734  18.757  0.00  0.00    +0.000 C 
ATOM     15  C   UNL     1      -0.098  12.528  19.624  0.00  0.00    +0.000 C 
ATOM     16  C   UNL     1      -1.207  12.272  20.655  0.00  0.00    +0.000 C 
ATOM     17  C   UNL     1      -1.460  13.508  21.518  0.00  0.00    +0.000 C 
BRANCH  12  19
ATOM     18  C   UNL     1      -1.736  17.158  21.023  0.00  0.00    +0.000 C 
ATOM     19  O   UNL     1      -1.737  15.874  21.631  0.00  0.00    +0.000 OA
ENDBRANCH  12  19
ENDBRANCH  11  15
ENDBRANCH   7  11
ENDBRANCH   1   9
BRANCH   4  20
ATOM     20  C   UNL     1       1.881   4.668  20.665  0.00  0.00    +0.000 C 
BRANCH  20  21
ATOM     21  C   UNL     1       1.284   3.701  19.630  0.00  0.00    +0.000 C 
BRANCH  21  22
ATOM     22  N   UNL     1       2.124   2.507  19.419  0.00  0.00    +0.000 NA
ATOM     23  C   UNL     1       2.314   2.167  17.989  0.00  0.00    +0.000 C 
ATOM     24  C   UNL     1       3.055   3.251  17.188  0.00  0.00    +0.000 C 
ATOM     25  N   UNL     1       4.384   3.485  17.782  0.00  0.00    +0.000 N 
ATOM     26  C   UNL     1       4.400   3.709  19.230  0.00  0.00    +0.000 C 
ATOM     27  C   UNL     1       3.480   2.708  19.988  0.00  0.00    +0.000 C 
BRANCH  25  28
ATOM     28  C   UNL     1       5.306   4.012  16.901  0.00  0.00    +0.000 A 
ATOM     29  N   UNL     1       5.385   3.397  15.690  0.00  0.00    +0.000 NA
ATOM     30  C   UNL     1       6.242   3.843  14.741  0.00  0.00    +0.000 A 
ATOM     31  C   UNL     1       7.065   4.926  14.910  0.00  0.00    +0.000 A 
ATOM     32  C   UNL     1       6.988   5.534  16.139  0.00  0.00    +0.000 A 
ATOM     33  C   UNL     1       6.138   5.085  17.145  0.00  0.00    +0.000 A 
ATOM     34  C   UNL     1       6.271   5.999  18.300  0.00  0.00    +0.000 C 
ATOM     35  C   UNL     1       7.420   6.894  17.842  0.00  0.00    +0.000 C 
ATOM     36  O   UNL     1       7.710   6.653  16.452  0.00  0.00    +0.000 OA
ENDBRANCH  25  28
ENDBRANCH  21  22
ENDBRANCH  20  21
ENDBRANCH   4  20
TORSDOF 8
ENDMDL
MODEL 8
REMARK VINA RESULT:      -8.0      2.952     11.791
REMARK  Name = 
REMARK  9 active torsions:
REMARK  status: ('A' for Active; 'I' for Inactive)
REMARK    1  A    between atoms: C_1  and  O_2
REMARK    2  A    between atoms: O_2  and  C_3
REMARK    3  A    between atoms: C_6  and  C_7
REMARK    4  A    between atoms: C_7  and  C_8
REMARK    5  A    between atoms: N_10  and  C_11
REMARK    6  A    between atoms: C_14  and  C_15
REMARK    7  A    between atoms: C_15  and  C_16
REMARK    8  A    between atoms: C_16  and  N_17
REMARK    9  A    between atoms: N_20  and  C_21
REMARK                            x       y       z     vdW  Elec       q    Type
REMARK                         _______ _______ _______ _____ _____    ______ ____
ROOT
ATOM      1  C   UNL     1       2.527   6.131  19.389  0.00  0.00    +0.000 C 
ATOM      2  C   UNL     1       2.252   6.713  17.998  0.00  0.00    +0.000 C 
ATOM      3  C   UNL     1       2.220   8.237  17.992  0.00  0.00    +0.000 C 
ATOM      4  C   UNL     1       1.197   8.765  19.010  0.00  0.00    +0.000 C 
ATOM      5  C   UNL     1       1.571   8.247  20.410  0.00  0.00    +0.000 C 
ATOM      6  C   UNL     1       1.606   6.724  20.459  0.00  0.00    +0.000 C 
ENDROOT
BRANCH   1   9
ATOM      7  C   UNL     1       3.300   3.699  19.429  0.00  0.00    +0.000 C 
ATOM      8  O   UNL     1       2.909   2.532  19.475  0.00  0.00    +0.000 OA
ATOM      9  N   UNL     1       2.368   4.683  19.335  0.00  0.00    +0.000 N 
ATOM     10  H   UNL     1       1.425   4.311  19.380  0.00  0.00    +0.000 HD
BRANCH   7  11
ATOM     11  C   UNL     1       4.771   4.069  19.496  0.00  0.00    +0.000 C 
BRANCH  11  15
ATOM     12  C   UNL     1       6.841   4.605  15.629  0.00  0.00    +0.000 C 
ATOM     13  C   UNL     1       7.258   5.428  16.852  0.00  0.00    +0.000 C 
ATOM     14  C   UNL     1       6.799   4.779  18.149  0.00  0.00    +0.000 C 
ATOM     15  C   UNL     1       5.270   4.634  18.158  0.00  0.00    +0.000 C 
ATOM     16  C   UNL     1       4.847   3.736  16.985  0.00  0.00    +0.000 C 
ATOM     17  C   UNL     1       5.336   4.299  15.651  0.00  0.00    +0.000 C 
BRANCH  12  19
ATOM     18  C   UNL     1       6.845   4.535  13.234  0.00  0.00    +0.000 C 
ATOM     19  O   UNL     1       7.106   5.299  14.404  0.00  0.00    +0.000 OA
ENDBRANCH  12  19
ENDBRANCH  11  15
ENDBRANCH   7  11
ENDBRANCH   1   9
BRANCH   4  20
ATOM     20  C   UNL     1       1.129  10.300  19.054  0.00  0.00    +0.000 C 
BRANCH  20  21
ATOM     21  C   UNL     1      -0.117  10.869  19.750  0.00  0.00    +0.000 C 
BRANCH  21  22
ATOM     22  N   UNL     1      -0.449  12.232  19.293  0.00  0.00    +0.000 NA
ATOM     23  C   UNL     1      -1.592  12.273  18.350  0.00  0.00    +0.000 C 
ATOM     24  C   UNL     1      -2.917  11.785  18.961  0.00  0.00    +0.000 C 
ATOM     25  N   UNL     1      -3.259  12.615  20.130  0.00  0.00    +0.000 N 
ATOM     26  C   UNL     1      -2.189  12.796  21.114  0.00  0.00    +0.000 C 
ATOM     27  C   UNL     1      -0.818  13.098  20.440  0.00  0.00    +0.000 C 
BRANCH  25  28
ATOM     28  C   UNL     1      -4.606  12.631  20.431  0.00  0.00    +0.000 A 
ATOM     29  N   UNL     1      -4.917  12.662  21.755  0.00  0.00    +0.000 NA
ATOM     30  C   UNL     1      -6.207  12.699  22.163  0.00  0.00    +0.000 A 
ATOM     31  C   UNL     1      -7.275  12.723  21.305  0.00  0.00    +0.000 A 
ATOM     32  C   UNL     1      -6.955  12.678  19.970  0.00  0.00    +0.000 A 
ATOM     33  C   UNL     1      -5.641  12.613  19.517  0.00  0.00    +0.000 A 
ATOM     34  C   UNL     1      -5.662  12.637  18.038  0.00  0.00    +0.000 C 
ATOM     35  C   UNL     1      -7.162  12.558  17.761  0.00  0.00    +0.000 C 
ATOM     36  O   UNL     1      -7.901  12.738  18.984  0.00  0.00    +0.000 OA
ENDBRANCH  25  28
ENDBRANCH  21  22
ENDBRANCH  20  21
ENDBRANCH   4  20
TORSDOF 8
ENDMDL
MODEL 9
REMARK VINA RESULT:      -7.9      2.491     11.039
REMARK  Name = 
REMARK  9 active torsions:
REMARK  status: ('A' for Active; 'I' for Inactive)
REMARK    1  A    between atoms: C_1  and  O_2
REMARK    2  A    between atoms: O_2  and  C_3
REMARK    3  A    between atoms: C_6  and  C_7
REMARK    4  A    between atoms: C_7  and  C_8
REMARK    5  A    between atoms: N_10  and  C_11
REMARK    6  A    between atoms: C_14  and  C_15
REMARK    7  A    between atoms: C_15  and  C_16
REMARK    8  A    between atoms: C_16  and  N_17
REMARK    9  A    between atoms: N_20  and  C_21
REMARK                            x       y       z     vdW  Elec       q    Type
REMARK                         _______ _______ _______ _____ _____    ______ ____
ROOT
ATOM      1  C   UNL     1       2.354   5.816  19.687  0.00  0.00    +0.000 C 
ATOM      2  C   UNL     1       2.199   6.661  18.417  0.00  0.00    +0.000 C 
ATOM      3  C   UNL     1       2.266   8.159  18.694  0.00  0.00    +0.000 C 
ATOM      4  C   UNL     1       1.220   8.567  19.744  0.00  0.00    +0.000 C 
ATOM      5  C   UNL     1       1.477   7.776  21.039  0.00  0.00    +0.000 C 
ATOM      6  C   UNL     1       1.411   6.271  20.805  0.00  0.00    +0.000 C 
ENDROOT
BRANCH   1   9
ATOM      7  C   UNL     1       2.960   3.362  19.338  0.00  0.00    +0.000 C 
ATOM      8  O   UNL     1       2.491   2.241  19.140  0.00  0.00    +0.000 OA
ATOM      9  N   UNL     1       2.106   4.419  19.356  0.00  0.00    +0.000 N 
ATOM     10  H   UNL     1       1.141   4.121  19.263  0.00  0.00    +0.000 HD
BRANCH   7  11
ATOM     11  C   UNL     1       4.441   3.596  19.580  0.00  0.00    +0.000 C 
BRANCH  11  15
ATOM     12  C   UNL     1       5.597   5.607  15.819  0.00  0.00    +0.000 C 
ATOM     13  C   UNL     1       5.003   4.196  15.793  0.00  0.00    +0.000 C 
ATOM     14  C   UNL     1       4.236   3.884  17.069  0.00  0.00    +0.000 C 
ATOM     15  C   UNL     1       5.165   3.999  18.287  0.00  0.00    +0.000 C 
ATOM     16  C   UNL     1       5.698   5.437  18.375  0.00  0.00    +0.000 C 
ATOM     17  C   UNL     1       6.425   5.838  17.092  0.00  0.00    +0.000 C 
BRANCH  12  19
ATOM     18  C   UNL     1       7.081   4.666  14.190  0.00  0.00    +0.000 C 
ATOM     19  O   UNL     1       6.470   5.840  14.708  0.00  0.00    +0.000 OA
ENDBRANCH  12  19
ENDBRANCH  11  15
ENDBRANCH   7  11
ENDBRANCH   1   9
BRANCH   4  20
ATOM     20  C   UNL     1       1.248  10.068  20.070  0.00  0.00    +0.000 C 
BRANCH  20  21
ATOM     21  C   UNL     1       1.099  10.994  18.852  0.00  0.00    +0.000 C 
BRANCH  21  22
ATOM     22  N   UNL     1       0.664  12.354  19.223  0.00  0.00    +0.000 NA
ATOM     23  C   UNL     1      -0.219  12.984  18.212  0.00  0.00    +0.000 C 
ATOM     24  C   UNL     1      -1.551  12.243  18.005  0.00  0.00    +0.000 C 
ATOM     25  N   UNL     1      -2.288  12.183  19.280  0.00  0.00    +0.000 N 
ATOM     26  C   UNL     1      -1.521  11.703  20.433  0.00  0.00    +0.000 C 
ATOM     27  C   UNL     1      -0.100  12.335  20.495  0.00  0.00    +0.000 C 
BRANCH  25  28
ATOM     28  C   UNL     1      -3.651  12.030  19.132  0.00  0.00    +0.000 A 
ATOM     29  N   UNL     1      -4.058  11.437  17.977  0.00  0.00    +0.000 NA
ATOM     30  C   UNL     1      -5.372  11.219  17.736  0.00  0.00    +0.000 A 
ATOM     31  C   UNL     1      -6.372  11.553  18.614  0.00  0.00    +0.000 A 
ATOM     32  C   UNL     1      -5.954  12.163  19.772  0.00  0.00    +0.000 A 
ATOM     33  C   UNL     1      -4.614  12.425  20.039  0.00  0.00    +0.000 A 
ATOM     34  C   UNL     1      -4.524  13.030  21.385  0.00  0.00    +0.000 C 
ATOM     35  C   UNL     1      -6.001  13.207  21.732  0.00  0.00    +0.000 C 
ATOM     36  O   UNL     1      -6.821  12.519  20.769  0.00  0.00    +0.000 OA
ENDBRANCH  25  28
ENDBRANCH  21  22
ENDBRANCH  20  21
ENDBRANCH   4  20
TORSDOF 8
ENDMDL
