MODEL 1
REMARK VINA RESULT:      -6.4      0.000      0.000
REMARK  Name = 
REMARK  6 active torsions:
REMARK  status: ('A' for Active; 'I' for Inactive)
REMARK    1  A    between atoms: C_1  and  N_2
REMARK    2  A    between atoms: N_2  and  C_3
REMARK    3  A    between atoms: N_2  and  C_4
REMARK    4  A    between atoms: N_7  and  C_8
REMARK    5  A    between atoms: C_13  and  S_14
REMARK    6  A    between atoms: S_14  and  N_15
REMARK                            x       y       z     vdW  Elec       q    Type
REMARK                         _______ _______ _______ _____ _____    ______ ____
ROOT
ATOM      1  C   UNL     1       3.643   5.524  19.049  0.00  0.00    +0.000 A 
ATOM      2  C   UNL     1       5.032   5.724  19.138  0.00  0.00    +0.000 A 
ATOM      3  C   UNL     1       5.863   4.621  19.177  0.00  0.00    +0.000 A 
ATOM      4  N   UNL     1       5.399   3.363  19.151  0.00  0.00    +0.000 NA
ATOM      5  C   UNL     1       4.063   3.179  19.071  0.00  0.00    +0.000 A 
ATOM      6  C   UNL     1       3.144   4.217  19.028  0.00  0.00    +0.000 A 
ENDROOT
BRANCH   1  10
ATOM      7  C   UNL     1       1.278   9.118  18.996  0.00  0.00    +0.000 A 
ATOM      8  C   UNL     1       1.385   8.311  20.126  0.00  0.00    +0.000 A 
ATOM      9  C   UNL     1       2.200   7.185  20.141  0.00  0.00    +0.000 A 
ATOM     10  N   UNL     1       2.828   6.744  19.031  0.00  0.00    +0.000 N 
ATOM     11  C   UNL     1       2.728   7.494  17.902  0.00  0.00    +0.000 A 
ATOM     12  C   UNL     1       1.981   8.676  17.876  0.00  0.00    +0.000 A 
BRANCH   7  14
ATOM     13  C   UNL     1      -0.753  10.328  18.290  0.00  0.00    +0.000 C 
ATOM     14  N   UNL     1       0.524  10.282  19.008  0.00  0.00    +0.000 N 
ATOM     15  C   UNL     1       0.755  11.335  19.997  0.00  0.00    +0.000 C 
ENDBRANCH   7  14
ENDBRANCH   1  10
BRANCH   6  16
ATOM     16  S   UNL     1       1.491   3.735  18.717  0.00  0.00    +0.000 S 
ATOM     17  O   UNL     1       0.727   3.967  19.916  0.00  0.00    +0.000 OA
ATOM     18  O   UNL     1       1.077   4.228  17.430  0.00  0.00    +0.000 OA
BRANCH  16  19
ATOM     19  N   UNL     1       1.620   2.066  18.545  0.00  0.00    +0.000 NA
ATOM     20  H   UNL     1       1.873   1.629  19.438  0.00  0.00    +0.000 HD
ATOM     21  H   UNL     1       0.725   1.682  18.217  0.00  0.00    +0.000 HD
ENDBRANCH  16  19
ENDBRANCH   6  16
TORSDOF 4
ENDMDL
MODEL 2
REMARK VINA RESULT:      -6.4      0.396      1.144
REMARK  Name = 
REMARK  6 active torsions:
REMARK  status: ('A' for Active; 'I' for Inactive)
REMARK    1  A    between atoms: C_1  and  N_2
REMARK    2  A    between atoms: N_2  and  C_3
REMARK    3  A    between atoms: N_2  and  C_4
REMARK    4  A    between atoms: N_7  and  C_8
REMARK    5  A    between atoms: C_13  and  S_14
REMARK    6  A    between atoms: S_14  and  N_15
REMARK                            x       y       z     vdW  Elec       q    Type
REMARK                         _______ _______ _______ _____ _____    ______ ____
ROOT
ATOM      1  C   UNL     1       3.661   5.494  19.051  0.00  0.00    +0.000 A 
ATOM      2  C   UNL     1       5.053   5.662  19.144  0.00  0.00    +0.000 A 
ATOM      3  C   UNL     1       5.859   4.540  19.187  0.00  0.00    +0.000 A 
ATOM      4  N   UNL     1       5.366   3.294  19.159  0.00  0.00    +0.000 NA
ATOM      5  C   UNL     1       4.026   3.140  19.075  0.00  0.00    +0.000 A 
ATOM      6  C   UNL     1       3.131   4.199  19.029  0.00  0.00    +0.000 A 
ENDROOT
BRANCH   1  10
ATOM      7  C   UNL     1       1.326   9.108  18.988  0.00  0.00    +0.000 A 
ATOM      8  C   UNL     1       2.046   8.665  17.881  0.00  0.00    +0.000 A 
ATOM      9  C   UNL     1       2.748   7.466  17.903  0.00  0.00    +0.000 A 
ATOM     10  N   UNL     1       2.873   6.733  19.030  0.00  0.00    +0.000 N 
ATOM     11  C   UNL     1       2.201   7.146  20.136  0.00  0.00    +0.000 A 
ATOM     12  C   UNL     1       1.421   8.306  20.124  0.00  0.00    +0.000 A 
BRANCH   7  14
ATOM     13  C   UNL     1      -0.825  10.245  19.401  0.00  0.00    +0.000 C 
ATOM     14  N   UNL     1       0.566  10.267  18.938  0.00  0.00    +0.000 N 
ATOM     15  C   UNL     1       1.185  11.585  18.795  0.00  0.00    +0.000 C 
ENDBRANCH   7  14
ENDBRANCH   1  10
BRANCH   6  16
ATOM     16  S   UNL     1       1.469   3.756  18.712  0.00  0.00    +0.000 S 
ATOM     17  O   UNL     1       0.708   3.995  19.912  0.00  0.00    +0.000 OA
ATOM     18  O   UNL     1       1.067   4.267  17.428  0.00  0.00    +0.000 OA
BRANCH  16  19
ATOM     19  N   UNL     1       1.562   2.086  18.527  0.00  0.00    +0.000 NA
ATOM     20  H   UNL     1       2.264   1.691  19.161  0.00  0.00    +0.000 HD
ATOM     21  H   UNL     1       0.646   1.665  18.724  0.00  0.00    +0.000 HD
ENDBRANCH  16  19
ENDBRANCH   6  16
TORSDOF 4
ENDMDL
MODEL 3
REMARK VINA RESULT:      -6.2      1.463      1.464
REMARK  Name = 
REMARK  6 active torsions:
REMARK  status: ('A' for Active; 'I' for Inactive)
REMARK    1  A    between atoms: C_1  and  N_2
REMARK    2  A    between atoms: N_2  and  C_3
REMARK    3  A    between atoms: N_2  and  C_4
REMARK    4  A    between atoms: N_7  and  C_8
REMARK    5  A    between atoms: C_13  and  S_14
REMARK    6  A    between atoms: S_14  and  N_15
REMARK                            x       y       z     vdW  Elec       q    Type
REMARK                         _______ _______ _______ _____ _____    ______ ____
ROOT
ATOM      1  C   UNL     1       3.852   5.845  17.739  0.00  0.00    +0.000 A 
ATOM      2  C   UNL     1       5.069   6.318  17.218  0.00  0.00    +0.000 A 
ATOM      3  C   UNL     1       5.939   5.417  16.635  0.00  0.00    +0.000 A 
ATOM      4  N   UNL     1       5.679   4.104  16.560  0.00  0.00    +0.000 NA
ATOM      5  C   UNL     1       4.509   3.656  17.068  0.00  0.00    +0.000 A 
ATOM      6  C   UNL     1       3.570   4.477  17.675  0.00  0.00    +0.000 A 
ENDROOT
BRANCH   1  10
ATOM      7  C   UNL     1       1.354   8.842  19.556  0.00  0.00    +0.000 A 
ATOM      8  C   UNL     1       1.791   7.714  20.247  0.00  0.00    +0.000 A 
ATOM      9  C   UNL     1       2.644   6.787  19.661  0.00  0.00    +0.000 A 
ATOM     10  N   UNL     1       2.992   6.860  18.358  0.00  0.00    +0.000 N 
ATOM     11  C   UNL     1       2.565   7.936  17.645  0.00  0.00    +0.000 A 
ATOM     12  C   UNL     1       1.771   8.929  18.228  0.00  0.00    +0.000 A 
BRANCH   7  14
ATOM     13  C   UNL     1      -0.654  10.275  19.502  0.00  0.00    +0.000 C 
ATOM     14  N   UNL     1       0.564   9.803  20.168  0.00  0.00    +0.000 N 
ATOM     15  C   UNL     1       0.683  10.098  21.595  0.00  0.00    +0.000 C 
ENDBRANCH   7  14
ENDBRANCH   1  10
BRANCH   6  16
ATOM     16  S   UNL     1       2.049   3.704  18.067  0.00  0.00    +0.000 S 
ATOM     17  O   UNL     1       1.966   3.588  19.500  0.00  0.00    +0.000 OA
ATOM     18  O   UNL     1       0.995   4.282  17.276  0.00  0.00    +0.000 OA
BRANCH  16  19
ATOM     19  N   UNL     1       2.264   2.145  17.469  0.00  0.00    +0.000 NA
ATOM     20  H   UNL     1       1.750   1.466  18.041  0.00  0.00    +0.000 HD
ATOM     21  H   UNL     1       1.931   2.098  16.499  0.00  0.00    +0.000 HD
ENDBRANCH  16  19
ENDBRANCH   6  16
TORSDOF 4
ENDMDL
MODEL 4
REMARK VINA RESULT:      -6.2      1.463      1.782
REMARK  Name = 
REMARK  6 active torsions:
REMARK  status: ('A' for Active; 'I' for Inactive)
REMARK    1  A    between atoms: C_1  and  N_2
REMARK    2  A    between atoms: N_2  and  C_3
REMARK    3  A    between atoms: N_2  and  C_4
REMARK    4  A    between atoms: N_7  and  C_8
REMARK    5  A    between atoms: C_13  and  S_14
REMARK    6  A    between atoms: S_14  and  N_15
REMARK                            x       y       z     vdW  Elec       q    Type
REMARK                         _______ _______ _______ _____ _____    ______ ____
ROOT
ATOM      1  C   UNL     1       3.857   5.847  17.743  0.00  0.00    +0.000 A 
ATOM      2  C   UNL     1       5.076   6.310  17.218  0.00  0.00    +0.000 A 
ATOM      3  C   UNL     1       5.934   5.402  16.627  0.00  0.00    +0.000 A 
ATOM      4  N   UNL     1       5.661   4.092  16.548  0.00  0.00    +0.000 NA
ATOM      5  C   UNL     1       4.489   3.654  17.060  0.00  0.00    +0.000 A 
ATOM      6  C   UNL     1       3.561   4.481  17.675  0.00  0.00    +0.000 A 
ENDROOT
BRANCH   1  10
ATOM      7  C   UNL     1       1.347   8.820  19.582  0.00  0.00    +0.000 A 
ATOM      8  C   UNL     1       1.750   8.901  18.251  0.00  0.00    +0.000 A 
ATOM      9  C   UNL     1       2.513   7.902  17.660  0.00  0.00    +0.000 A 
ATOM     10  N   UNL     1       3.009   6.867  18.371  0.00  0.00    +0.000 N 
ATOM     11  C   UNL     1       2.656   6.766  19.679  0.00  0.00    +0.000 A 
ATOM     12  C   UNL     1       1.823   7.713  20.284  0.00  0.00    +0.000 A 
BRANCH   7  14
ATOM     13  C   UNL     1      -0.565  10.363  19.356  0.00  0.00    +0.000 C 
ATOM     14  N   UNL     1       0.523   9.781  20.148  0.00  0.00    +0.000 N 
ATOM     15  C   UNL     1       0.452   9.975  21.596  0.00  0.00    +0.000 C 
ENDBRANCH   7  14
ENDBRANCH   1  10
BRANCH   6  16
ATOM     16  S   UNL     1       2.035   3.721  18.071  0.00  0.00    +0.000 S 
ATOM     17  O   UNL     1       1.951   3.613  19.506  0.00  0.00    +0.000 OA
ATOM     18  O   UNL     1       0.985   4.302  17.278  0.00  0.00    +0.000 OA
BRANCH  16  19
ATOM     19  N   UNL     1       2.238   2.158  17.482  0.00  0.00    +0.000 NA
ATOM     20  H   UNL     1       3.132   2.072  16.986  0.00  0.00    +0.000 HD
ATOM     21  H   UNL     1       2.213   1.490  18.262  0.00  0.00    +0.000 HD
ENDBRANCH  16  19
ENDBRANCH   6  16
TORSDOF 4
ENDMDL
MODEL 5
REMARK VINA RESULT:      -6.1      2.265      3.199
REMARK  Name = 
REMARK  6 active torsions:
REMARK  status: ('A' for Active; 'I' for Inactive)
REMARK    1  A    between atoms: C_1  and  N_2
REMARK    2  A    between atoms: N_2  and  C_3
REMARK    3  A    between atoms: N_2  and  C_4
REMARK    4  A    between atoms: N_7  and  C_8
REMARK    5  A    between atoms: C_13  and  S_14
REMARK    6  A    between atoms: S_14  and  N_15
REMARK                            x       y       z     vdW  Elec       q    Type
REMARK                         _______ _______ _______ _____ _____    ______ ____
ROOT
ATOM      1  C   UNL     1       2.714   4.663  18.630  0.00  0.00    +0.000 A 
ATOM      2  C   UNL     1       1.675   3.716  18.644  0.00  0.00    +0.000 A 
ATOM      3  C   UNL     1       1.955   2.415  18.274  0.00  0.00    +0.000 A 
ATOM      4  N   UNL     1       3.176   2.019  17.886  0.00  0.00    +0.000 NA
ATOM      5  C   UNL     1       4.168   2.936  17.870  0.00  0.00    +0.000 A 
ATOM      6  C   UNL     1       3.992   4.266  18.220  0.00  0.00    +0.000 A 
ENDROOT
BRANCH   1  10
ATOM      7  C   UNL     1       1.567   8.652  19.765  0.00  0.00    +0.000 A 
ATOM      8  C   UNL     1       2.019   8.341  18.485  0.00  0.00    +0.000 A 
ATOM      9  C   UNL     1       2.330   7.036  18.121  0.00  0.00    +0.000 A 
ATOM     10  N   UNL     1       2.334   6.027  19.017  0.00  0.00    +0.000 N 
ATOM     11  C   UNL     1       1.919   6.298  20.283  0.00  0.00    +0.000 A 
ATOM     12  C   UNL     1       1.522   7.585  20.660  0.00  0.00    +0.000 A 
BRANCH   7  14
ATOM     13  C   UNL     1       0.908  10.918  19.044  0.00  0.00    +0.000 C 
ATOM     14  N   UNL     1       1.186   9.943  20.103  0.00  0.00    +0.000 N 
ATOM     15  C   UNL     1       0.693  10.272  21.439  0.00  0.00    +0.000 C 
ENDBRANCH   7  14
ENDBRANCH   1  10
BRANCH   6  16
ATOM     16  S   UNL     1       5.461   5.211  18.320  0.00  0.00    +0.000 S 
ATOM     17  O   UNL     1       5.461   6.152  17.229  0.00  0.00    +0.000 OA
ATOM     18  O   UNL     1       5.689   5.609  19.684  0.00  0.00    +0.000 OA
BRANCH  16  19
ATOM     19  N   UNL     1       6.653   4.074  17.974  0.00  0.00    +0.000 NA
ATOM     20  H   UNL     1       6.843   3.488  18.794  0.00  0.00    +0.000 HD
ATOM     21  H   UNL     1       6.349   3.482  17.192  0.00  0.00    +0.000 HD
ENDBRANCH  16  19
ENDBRANCH   6  16
TORSDOF 4
ENDMDL
MODEL 6
REMARK VINA RESULT:      -6.0      2.278      3.006
REMARK  Name = 
REMARK  6 active torsions:
REMARK  status: ('A' for Active; 'I' for Inactive)
REMARK    1  A    between atoms: C_1  and  N_2
REMARK    2  A    between atoms: N_2  and  C_3
REMARK    3  A    between atoms: N_2  and  C_4
REMARK    4  A    between atoms: N_7  and  C_8
REMARK    5  A    between atoms: C_13  and  S_14
REMARK    6  A    between atoms: S_14  and  N_15
REMARK                            x       y       z     vdW  Elec       q    Type
REMARK                         _______ _______ _______ _____ _____    ______ ____
ROOT
ATOM      1  C   UNL     1       2.686   4.757  18.478  0.00  0.00    +0.000 A 
ATOM      2  C   UNL     1       1.625   3.835  18.437  0.00  0.00    +0.000 A 
ATOM      3  C   UNL     1       1.899   2.517  18.125  0.00  0.00    +0.000 A 
ATOM      4  N   UNL     1       3.134   2.082  17.843  0.00  0.00    +0.000 NA
ATOM      5  C   UNL     1       4.149   2.974  17.879  0.00  0.00    +0.000 A 
ATOM      6  C   UNL     1       3.980   4.318  18.179  0.00  0.00    +0.000 A 
ENDROOT
BRANCH   1  10
ATOM      7  C   UNL     1       1.620   8.819  19.414  0.00  0.00    +0.000 A 
ATOM      8  C   UNL     1       1.674   7.820  20.382  0.00  0.00    +0.000 A 
ATOM      9  C   UNL     1       2.077   6.527  20.070  0.00  0.00    +0.000 A 
ATOM     10  N   UNL     1       2.312   6.139  18.799  0.00  0.00    +0.000 N 
ATOM     11  C   UNL     1       2.247   7.083  17.823  0.00  0.00    +0.000 A 
ATOM     12  C   UNL     1       1.924   8.412  18.115  0.00  0.00    +0.000 A 
BRANCH   7  14
ATOM     13  C   UNL     1       1.422  11.184  18.735  0.00  0.00    +0.000 C 
ATOM     14  N   UNL     1       1.291  10.126  19.742  0.00  0.00    +0.000 N 
ATOM     15  C   UNL     1       0.477  10.440  20.916  0.00  0.00    +0.000 C 
ENDBRANCH   7  14
ENDBRANCH   1  10
BRANCH   6  16
ATOM     16  S   UNL     1       5.462   5.230  18.367  0.00  0.00    +0.000 S 
ATOM     17  O   UNL     1       5.501   6.234  17.334  0.00  0.00    +0.000 OA
ATOM     18  O   UNL     1       5.665   5.543  19.757  0.00  0.00    +0.000 OA
BRANCH  16  19
ATOM     19  N   UNL     1       6.644   4.096  17.980  0.00  0.00    +0.000 NA
ATOM     20  H   UNL     1       7.558   4.549  17.874  0.00  0.00    +0.000 HD
ATOM     21  H   UNL     1       6.697   3.385  18.720  0.00  0.00    +0.000 HD
ENDBRANCH  16  19
ENDBRANCH   6  16
TORSDOF 4
ENDMDL
MODEL 7
REMARK VINA RESULT:      -5.8      1.642      1.893
REMARK  Name = 
REMARK  6 active torsions:
REMARK  status: ('A' for Active; 'I' for Inactive)
REMARK    1  A    between atoms: C_1  and  N_2
REMARK    2  A    between atoms: N_2  and  C_3
REMARK    3  A    between atoms: N_2  and  C_4
REMARK    4  A    between atoms: N_7  and  C_8
REMARK    5  A    between atoms: C_13  and  S_14
REMARK    6  A    between atoms: S_14  and  N_15
REMARK                            x       y       z     vdW  Elec       q    Type
REMARK                         _______ _______ _______ _____ _____    ______ ____
ROOT
ATOM      1  C   UNL     1       3.981   5.814  17.655  0.00  0.00    +0.000 A 
ATOM      2  C   UNL     1       5.216   6.324  17.219  0.00  0.00    +0.000 A 
ATOM      3  C   UNL     1       6.113   5.467  16.610  0.00  0.00    +0.000 A 
ATOM      4  N   UNL     1       5.862   4.163  16.432  0.00  0.00    +0.000 NA
ATOM      5  C   UNL     1       4.674   3.679  16.859  0.00  0.00    +0.000 A 
ATOM      6  C   UNL     1       3.708   4.453  17.483  0.00  0.00    +0.000 A 
ENDROOT
BRANCH   1  10
ATOM      7  C   UNL     1       1.397   8.672  19.570  0.00  0.00    +0.000 A 
ATOM      8  C   UNL     1       1.909   7.563  20.239  0.00  0.00    +0.000 A 
ATOM      9  C   UNL     1       2.788   6.683  19.619  0.00  0.00    +0.000 A 
ATOM     10  N   UNL     1       3.092   6.781  18.308  0.00  0.00    +0.000 N 
ATOM     11  C   UNL     1       2.592   7.840  17.617  0.00  0.00    +0.000 A 
ATOM     12  C   UNL     1       1.769   8.789  18.232  0.00  0.00    +0.000 A 
BRANCH   7  14
ATOM     13  C   UNL     1       0.775   9.860  21.642  0.00  0.00    +0.000 C 
ATOM     14  N   UNL     1       0.580   9.590  20.214  0.00  0.00    +0.000 N 
ATOM     15  C   UNL     1      -0.216  10.564  19.468  0.00  0.00    +0.000 C 
ENDBRANCH   7  14
ENDBRANCH   1  10
BRANCH   6  16
ATOM     16  S   UNL     1       2.176   3.652  17.757  0.00  0.00    +0.000 S 
ATOM     17  O   UNL     1       1.126   4.538  17.320  0.00  0.00    +0.000 OA
ATOM     18  O   UNL     1       2.261   2.282  17.322  0.00  0.00    +0.000 OA
BRANCH  16  19
ATOM     19  N   UNL     1       2.087   3.591  19.436  0.00  0.00    +0.000 NA
ATOM     20  H   UNL     1       1.303   3.002  19.735  0.00  0.00    +0.000 HD
ATOM     21  H   UNL     1       2.964   3.214  19.815  0.00  0.00    +0.000 HD
ENDBRANCH  16  19
ENDBRANCH   6  16
TORSDOF 4
ENDMDL
MODEL 8
REMARK VINA RESULT:      -5.8      0.842      1.659
REMARK  Name = 
REMARK  6 active torsions:
REMARK  status: ('A' for Active; 'I' for Inactive)
REMARK    1  A    between atoms: C_1  and  N_2
REMARK    2  A    between atoms: N_2  and  C_3
REMARK    3  A    between atoms: N_2  and  C_4
REMARK    4  A    between atoms: N_7  and  C_8
REMARK    5  A    between atoms: C_13  and  S_14
REMARK    6  A    between atoms: S_14  and  N_15
REMARK                            x       y       z     vdW  Elec       q    Type
REMARK                         _______ _______ _______ _____ _____    ______ ____
ROOT
ATOM      1  C   UNL     1       3.715   5.553  19.158  0.00  0.00    +0.000 A 
ATOM      2  C   UNL     1       5.099   5.800  19.124  0.00  0.00    +0.000 A 
ATOM      3  C   UNL     1       5.968   4.725  19.135  0.00  0.00    +0.000 A 
ATOM      4  N   UNL     1       5.546   3.454  19.194  0.00  0.00    +0.000 NA
ATOM      5  C   UNL     1       4.215   3.225  19.232  0.00  0.00    +0.000 A 
ATOM      6  C   UNL     1       3.261   4.232  19.228  0.00  0.00    +0.000 A 
ENDROOT
BRANCH   1  10
ATOM      7  C   UNL     1       1.180   9.030  19.172  0.00  0.00    +0.000 A 
ATOM      8  C   UNL     1       1.854   8.602  18.031  0.00  0.00    +0.000 A 
ATOM      9  C   UNL     1       2.623   7.444  18.032  0.00  0.00    +0.000 A 
ATOM     10  N   UNL     1       2.859   6.746  19.162  0.00  0.00    +0.000 N 
ATOM     11  C   UNL     1       2.235   7.147  20.301  0.00  0.00    +0.000 A 
ATOM     12  C   UNL     1       1.391   8.262  20.316  0.00  0.00    +0.000 A 
BRANCH   7  14
ATOM     13  C   UNL     1       0.772  11.374  19.829  0.00  0.00    +0.000 C 
ATOM     14  N   UNL     1       0.354  10.144  19.147  0.00  0.00    +0.000 N 
ATOM     15  C   UNL     1      -0.731  10.273  18.175  0.00  0.00    +0.000 C 
ENDBRANCH   7  14
ENDBRANCH   1  10
BRANCH   6  16
ATOM     16  S   UNL     1       1.605   3.687  19.073  0.00  0.00    +0.000 S 
ATOM     17  O   UNL     1       1.617   2.249  18.984  0.00  0.00    +0.000 OA
ATOM     18  O   UNL     1       0.773   4.396  20.009  0.00  0.00    +0.000 OA
BRANCH  16  19
ATOM     19  N   UNL     1       1.169   4.259  17.552  0.00  0.00    +0.000 NA
ATOM     20  H   UNL     1       1.889   4.027  16.859  0.00  0.00    +0.000 HD
ATOM     21  H   UNL     1       0.274   3.843  17.269  0.00  0.00    +0.000 HD
ENDBRANCH  16  19
ENDBRANCH   6  16
TORSDOF 4
ENDMDL
MODEL 9
REMARK VINA RESULT:      -5.8      0.829      1.289
REMARK  Name = 
REMARK  6 active torsions:
REMARK  status: ('A' for Active; 'I' for Inactive)
REMARK    1  A    between atoms: C_1  and  N_2
REMARK    2  A    between atoms: N_2  and  C_3
REMARK    3  A    between atoms: N_2  and  C_4
REMARK    4  A    between atoms: N_7  and  C_8
REMARK    5  A    between atoms: C_13  and  S_14
REMARK    6  A    between atoms: S_14  and  N_15
REMARK                            x       y       z     vdW  Elec       q    Type
REMARK                         _______ _______ _______ _____ _____    ______ ____
ROOT
ATOM      1  C   UNL     1       3.717   5.541  19.040  0.00  0.00    +0.000 A 
ATOM      2  C   UNL     1       5.095   5.799  19.148  0.00  0.00    +0.000 A 
ATOM      3  C   UNL     1       5.975   4.734  19.139  0.00  0.00    +0.000 A 
ATOM      4  N   UNL     1       5.569   3.460  19.049  0.00  0.00    +0.000 NA
ATOM      5  C   UNL     1       4.243   3.219  18.952  0.00  0.00    +0.000 A 
ATOM      6  C   UNL     1       3.278   4.216  18.953  0.00  0.00    +0.000 A 
ENDROOT
BRANCH   1  10
ATOM      7  C   UNL     1       1.192   9.024  19.143  0.00  0.00    +0.000 A 
ATOM      8  C   UNL     1       1.395   8.216  20.259  0.00  0.00    +0.000 A 
ATOM      9  C   UNL     1       2.260   7.128  20.221  0.00  0.00    +0.000 A 
ATOM     10  N   UNL     1       2.847   6.723  19.075  0.00  0.00    +0.000 N 
ATOM     11  C   UNL     1       2.654   7.475  17.960  0.00  0.00    +0.000 A 
ATOM     12  C   UNL     1       1.854   8.622  17.983  0.00  0.00    +0.000 A 
BRANCH   7  14
ATOM     13  C   UNL     1       0.825  11.314  19.985  0.00  0.00    +0.000 C 
ATOM     14  N   UNL     1       0.387  10.152  19.205  0.00  0.00    +0.000 N 
ATOM     15  C   UNL     1      -0.690  10.379  18.243  0.00  0.00    +0.000 C 
ENDBRANCH   7  14
ENDBRANCH   1  10
BRANCH   6  16
ATOM     16  S   UNL     1       1.650   3.676  18.609  0.00  0.00    +0.000 S 
ATOM     17  O   UNL     1       1.134   4.478  17.529  0.00  0.00    +0.000 OA
ATOM     18  O   UNL     1       1.611   2.237  18.589  0.00  0.00    +0.000 OA
BRANCH  16  19
ATOM     19  N   UNL     1       0.809   4.134  19.992  0.00  0.00    +0.000 NA
ATOM     20  H   UNL     1       0.991   3.477  20.760  0.00  0.00    +0.000 HD
ATOM     21  H   UNL     1       1.097   5.079  20.275  0.00  0.00    +0.000 HD
ENDBRANCH  16  19
ENDBRANCH   6  16
TORSDOF 4
ENDMDL
