MODEL 1
REMARK VINA RESULT:      -5.1      0.000      0.000
REMARK  Name = 
REMARK  5 active torsions:
REMARK  status: ('A' for Active; 'I' for Inactive)
REMARK    1  A    between atoms: C_1  and  C_2
REMARK    2  A    between atoms: C_6  and  S_7
REMARK    3  A    between atoms: S_7  and  C_8
REMARK    4  A    between atoms: C_8  and  C_9
REMARK    5  A    between atoms: C_9  and  O_11
REMARK                            x       y       z     vdW  Elec       q    Type
REMARK                         _______ _______ _______ _____ _____    ______ ____
ROOT
ATOM      1  C   UNL     1       6.088   4.067  14.310  0.00  0.00    +0.000 C 
ATOM      2  C   UNL     1       6.321   4.860  15.544  0.00  0.00    +0.000 A 
ATOM      3  N   UNL     1       7.367   5.777  15.533  0.00  0.00    +0.000 NA
ATOM      4  N   UNL     1       7.485   6.411  16.685  0.00  0.00    +0.000 NA
ATOM      5  S   UNL     1       6.356   5.922  17.813  0.00  0.00    +0.000 S 
ATOM      6  C   UNL     1       5.613   4.807  16.738  0.00  0.00    +0.000 A 
ENDROOT
BRANCH   6   7
ATOM      7  S   UNL     1       4.258   3.772  17.152  0.00  0.00    +0.000 S 
BRANCH   7   8
ATOM      8  C   UNL     1       4.406   3.675  18.966  0.00  0.00    +0.000 C 
BRANCH   8   9
ATOM      9  C   UNL     1       4.459   2.249  19.469  0.00  0.00    +0.000 C 
ATOM     10  O   UNL     1       4.950   1.937  20.544  0.00  0.00    +0.000 OA
BRANCH   9  11
ATOM     11  O   UNL     1       3.996   1.319  18.599  0.00  0.00    +0.000 OA
ATOM     12  H   UNL     1       3.367   0.700  19.024  0.00  0.00    +0.000 HD
ENDBRANCH   9  11
ENDBRANCH   8   9
ENDBRANCH   7   8
ENDBRANCH   6   7
TORSDOF 4
ENDMDL
MODEL 2
REMARK VINA RESULT:      -5.1      4.189      5.160
REMARK  Name = 
REMARK  5 active torsions:
REMARK  status: ('A' for Active; 'I' for Inactive)
REMARK    1  A    between atoms: C_1  and  C_2
REMARK    2  A    between atoms: C_6  and  S_7
REMARK    3  A    between atoms: S_7  and  C_8
REMARK    4  A    between atoms: C_8  and  C_9
REMARK    5  A    between atoms: C_9  and  O_11
REMARK                            x       y       z     vdW  Elec       q    Type
REMARK                         _______ _______ _______ _____ _____    ______ ____
ROOT
ATOM      1  C   UNL     1       2.241   5.881  18.047  0.00  0.00    +0.000 C 
ATOM      2  C   UNL     1       2.393   4.405  18.082  0.00  0.00    +0.000 A 
ATOM      3  N   UNL     1       1.240   3.634  17.968  0.00  0.00    +0.000 NA
ATOM      4  N   UNL     1       1.498   2.340  18.024  0.00  0.00    +0.000 NA
ATOM      5  S   UNL     1       3.122   2.011  18.223  0.00  0.00    +0.000 S 
ATOM      6  C   UNL     1       3.566   3.671  18.214  0.00  0.00    +0.000 A 
ENDROOT
BRANCH   6   7
ATOM      7  S   UNL     1       5.204   4.268  18.409  0.00  0.00    +0.000 S 
BRANCH   7   8
ATOM      8  C   UNL     1       5.778   4.344  16.681  0.00  0.00    +0.000 C 
BRANCH   8   9
ATOM      9  C   UNL     1       7.208   4.826  16.564  0.00  0.00    +0.000 C 
ATOM     10  O   UNL     1       7.550   5.728  15.814  0.00  0.00    +0.000 OA
BRANCH   9  11
ATOM     11  O   UNL     1       8.107   4.125  17.294  0.00  0.00    +0.000 OA
ATOM     12  H   UNL     1       7.674   3.540  17.949  0.00  0.00    +0.000 HD
ENDBRANCH   9  11
ENDBRANCH   8   9
ENDBRANCH   7   8
ENDBRANCH   6   7
TORSDOF 4
ENDMDL
MODEL 3
REMARK VINA RESULT:      -4.9      0.972      1.227
REMARK  Name = 
REMARK  5 active torsions:
REMARK  status: ('A' for Active; 'I' for Inactive)
REMARK    1  A    between atoms: C_1  and  C_2
REMARK    2  A    between atoms: C_6  and  S_7
REMARK    3  A    between atoms: S_7  and  C_8
REMARK    4  A    between atoms: C_8  and  C_9
REMARK    5  A    between atoms: C_9  and  O_11
REMARK                            x       y       z     vdW  Elec       q    Type
REMARK                         _______ _______ _______ _____ _____    ______ ____
ROOT
ATOM      1  C   UNL     1       5.747   4.175  14.352  0.00  0.00    +0.000 C 
ATOM      2  C   UNL     1       6.107   4.986  15.543  0.00  0.00    +0.000 A 
ATOM      3  N   UNL     1       7.318   5.670  15.515  0.00  0.00    +0.000 NA
ATOM      4  N   UNL     1       7.535   6.345  16.629  0.00  0.00    +0.000 NA
ATOM      5  S   UNL     1       6.302   6.173  17.741  0.00  0.00    +0.000 S 
ATOM      6  C   UNL     1       5.373   5.160  16.710  0.00  0.00    +0.000 A 
ENDROOT
BRANCH   6   7
ATOM      7  S   UNL     1       3.826   4.451  17.136  0.00  0.00    +0.000 S 
BRANCH   7   8
ATOM      8  C   UNL     1       4.310   3.240  18.409  0.00  0.00    +0.000 C 
BRANCH   8   9
ATOM      9  C   UNL     1       3.514   1.957  18.322  0.00  0.00    +0.000 C 
ATOM     10  O   UNL     1       2.294   1.930  18.254  0.00  0.00    +0.000 OA
BRANCH   9  11
ATOM     11  O   UNL     1       4.249   0.823  18.411  0.00  0.00    +0.000 OA
ATOM     12  H   UNL     1       4.964   0.899  19.075  0.00  0.00    +0.000 HD
ENDBRANCH   9  11
ENDBRANCH   8   9
ENDBRANCH   7   8
ENDBRANCH   6   7
TORSDOF 4
ENDMDL
MODEL 4
REMARK VINA RESULT:      -4.9      3.980      4.909
REMARK  Name = 
REMARK  5 active torsions:
REMARK  status: ('A' for Active; 'I' for Inactive)
REMARK    1  A    between atoms: C_1  and  C_2
REMARK    2  A    between atoms: C_6  and  S_7
REMARK    3  A    between atoms: S_7  and  C_8
REMARK    4  A    between atoms: C_8  and  C_9
REMARK    5  A    between atoms: C_9  and  O_11
REMARK                            x       y       z     vdW  Elec       q    Type
REMARK                         _______ _______ _______ _____ _____    ______ ____
ROOT
ATOM      1  C   UNL     1       3.647   1.335  18.378  0.00  0.00    +0.000 C 
ATOM      2  C   UNL     1       3.023   2.672  18.203  0.00  0.00    +0.000 A 
ATOM      3  N   UNL     1       1.656   2.718  17.948  0.00  0.00    +0.000 NA
ATOM      4  N   UNL     1       1.219   3.955  17.800  0.00  0.00    +0.000 NA
ATOM      5  S   UNL     1       2.429   5.093  17.954  0.00  0.00    +0.000 S 
ATOM      6  C   UNL     1       3.641   3.916  18.267  0.00  0.00    +0.000 A 
ENDROOT
BRANCH   6   7
ATOM      7  S   UNL     1       5.336   4.274  18.540  0.00  0.00    +0.000 S 
BRANCH   7   8
ATOM      8  C   UNL     1       5.832   4.970  16.930  0.00  0.00    +0.000 C 
BRANCH   8   9
ATOM      9  C   UNL     1       7.261   4.634  16.567  0.00  0.00    +0.000 C 
ATOM     10  O   UNL     1       8.088   4.257  17.386  0.00  0.00    +0.000 OA
BRANCH   9  11
ATOM     11  O   UNL     1       7.591   4.862  15.274  0.00  0.00    +0.000 OA
ATOM     12  H   UNL     1       7.037   4.342  14.656  0.00  0.00    +0.000 HD
ENDBRANCH   9  11
ENDBRANCH   8   9
ENDBRANCH   7   8
ENDBRANCH   6   7
TORSDOF 4
ENDMDL
MODEL 5
REMARK VINA RESULT:      -4.9      1.262      1.837
REMARK  Name = 
REMARK  5 active torsions:
REMARK  status: ('A' for Active; 'I' for Inactive)
REMARK    1  A    between atoms: C_1  and  C_2
REMARK    2  A    between atoms: C_6  and  S_7
REMARK    3  A    between atoms: S_7  and  C_8
REMARK    4  A    between atoms: C_8  and  C_9
REMARK    5  A    between atoms: C_9  and  O_11
REMARK                            x       y       z     vdW  Elec       q    Type
REMARK                         _______ _______ _______ _____ _____    ______ ____
ROOT
ATOM      1  C   UNL     1       4.167   7.121  17.461  0.00  0.00    +0.000 C 
ATOM      2  C   UNL     1       5.281   6.288  16.940  0.00  0.00    +0.000 A 
ATOM      3  N   UNL     1       6.450   6.939  16.559  0.00  0.00    +0.000 NA
ATOM      4  N   UNL     1       7.361   6.100  16.102  0.00  0.00    +0.000 NA
ATOM      5  S   UNL     1       6.843   4.514  16.109  0.00  0.00    +0.000 S 
ATOM      6  C   UNL     1       5.312   4.907  16.782  0.00  0.00    +0.000 A 
ENDROOT
BRANCH   6   7
ATOM      7  S   UNL     1       4.040   3.747  17.120  0.00  0.00    +0.000 S 
BRANCH   7   8
ATOM      8  C   UNL     1       4.087   3.666  18.940  0.00  0.00    +0.000 C 
BRANCH   8   9
ATOM      9  C   UNL     1       4.348   2.267  19.453  0.00  0.00    +0.000 C 
ATOM     10  O   UNL     1       4.908   2.038  20.515  0.00  0.00    +0.000 OA
BRANCH   9  11
ATOM     11  O   UNL     1       3.991   1.272  18.606  0.00  0.00    +0.000 OA
ATOM     12  H   UNL     1       4.127   0.387  19.001  0.00  0.00    +0.000 HD
ENDBRANCH   9  11
ENDBRANCH   8   9
ENDBRANCH   7   8
ENDBRANCH   6   7
TORSDOF 4
ENDMDL
MODEL 6
REMARK VINA RESULT:      -4.9      2.187      2.234
REMARK  Name = 
REMARK  5 active torsions:
REMARK  status: ('A' for Active; 'I' for Inactive)
REMARK    1  A    between atoms: C_1  and  C_2
REMARK    2  A    between atoms: C_6  and  S_7
REMARK    3  A    between atoms: S_7  and  C_8
REMARK    4  A    between atoms: C_8  and  C_9
REMARK    5  A    between atoms: C_9  and  O_11
REMARK                            x       y       z     vdW  Elec       q    Type
REMARK                         _______ _______ _______ _____ _____    ______ ____
ROOT
ATOM      1  C   UNL     1       6.066   3.924  14.150  0.00  0.00    +0.000 C 
ATOM      2  C   UNL     1       6.331   4.795  15.323  0.00  0.00    +0.000 A 
ATOM      3  N   UNL     1       7.391   5.693  15.234  0.00  0.00    +0.000 NA
ATOM      4  N   UNL     1       7.537   6.402  16.339  0.00  0.00    +0.000 NA
ATOM      5  S   UNL     1       6.419   6.008  17.514  0.00  0.00    +0.000 S 
ATOM      6  C   UNL     1       5.642   4.834  16.530  0.00  0.00    +0.000 A 
ENDROOT
BRANCH   6   7
ATOM      7  S   UNL     1       4.278   3.852  17.034  0.00  0.00    +0.000 S 
BRANCH   7   8
ATOM      8  C   UNL     1       3.178   5.099  17.779  0.00  0.00    +0.000 C 
BRANCH   8   9
ATOM      9  C   UNL     1       1.872   4.508  18.261  0.00  0.00    +0.000 C 
ATOM     10  O   UNL     1       1.586   4.394  19.444  0.00  0.00    +0.000 OA
BRANCH   9  11
ATOM     11  O   UNL     1       1.066   4.030  17.283  0.00  0.00    +0.000 OA
ATOM     12  H   UNL     1       0.679   3.162  17.518  0.00  0.00    +0.000 HD
ENDBRANCH   9  11
ENDBRANCH   8   9
ENDBRANCH   7   8
ENDBRANCH   6   7
TORSDOF 4
ENDMDL
MODEL 7
REMARK VINA RESULT:      -4.9      1.584      2.207
REMARK  Name = 
REMARK  5 active torsions:
REMARK  status: ('A' for Active; 'I' for Inactive)
REMARK    1  A    between atoms: C_1  and  C_2
REMARK    2  A    between atoms: C_6  and  S_7
REMARK    3  A    between atoms: S_7  and  C_8
REMARK    4  A    between atoms: C_8  and  C_9
REMARK    5  A    between atoms: C_9  and  O_11
REMARK                            x       y       z     vdW  Elec       q    Type
REMARK                         _______ _______ _______ _____ _____    ______ ____
ROOT
ATOM      1  C   UNL     1       7.159   6.835  17.741  0.00  0.00    +0.000 C 
ATOM      2  C   UNL     1       6.759   5.931  16.633  0.00  0.00    +0.000 A 
ATOM      3  N   UNL     1       7.602   5.852  15.529  0.00  0.00    +0.000 NA
ATOM      4  N   UNL     1       7.138   5.029  14.606  0.00  0.00    +0.000 NA
ATOM      5  S   UNL     1       5.680   4.337  15.030  0.00  0.00    +0.000 S 
ATOM      6  C   UNL     1       5.626   5.131  16.552  0.00  0.00    +0.000 A 
ENDROOT
BRANCH   6   7
ATOM      7  S   UNL     1       4.322   4.974  17.715  0.00  0.00    +0.000 S 
BRANCH   7   8
ATOM      8  C   UNL     1       4.005   3.180  17.677  0.00  0.00    +0.000 C 
BRANCH   8   9
ATOM      9  C   UNL     1       3.898   2.579  19.061  0.00  0.00    +0.000 C 
ATOM     10  O   UNL     1       2.834   2.430  19.644  0.00  0.00    +0.000 OA
BRANCH   9  11
ATOM     11  O   UNL     1       5.082   2.292  19.653  0.00  0.00    +0.000 OA
ATOM     12  H   UNL     1       4.965   1.970  20.570  0.00  0.00    +0.000 HD
ENDBRANCH   9  11
ENDBRANCH   8   9
ENDBRANCH   7   8
ENDBRANCH   6   7
TORSDOF 4
ENDMDL
MODEL 8
REMARK VINA RESULT:      -4.8      4.134      5.168
REMARK  Name = 
REMARK  5 active torsions:
REMARK  status: ('A' for Active; 'I' for Inactive)
REMARK    1  A    between atoms: C_1  and  C_2
REMARK    2  A    between atoms: C_6  and  S_7
REMARK    3  A    between atoms: S_7  and  C_8
REMARK    4  A    between atoms: C_8  and  C_9
REMARK    5  A    between atoms: C_9  and  O_11
REMARK                            x       y       z     vdW  Elec       q    Type
REMARK                         _______ _______ _______ _____ _____    ______ ____
ROOT
ATOM      1  C   UNL     1       2.503   5.938  18.895  0.00  0.00    +0.000 C 
ATOM      2  C   UNL     1       2.564   4.496  18.543  0.00  0.00    +0.000 A 
ATOM      3  N   UNL     1       1.359   3.816  18.397  0.00  0.00    +0.000 NA
ATOM      4  N   UNL     1       1.539   2.543  18.097  0.00  0.00    +0.000 NA
ATOM      5  S   UNL     1       3.151   2.124  17.989  0.00  0.00    +0.000 S 
ATOM      6  C   UNL     1       3.695   3.717  18.332  0.00  0.00    +0.000 A 
ENDROOT
BRANCH   6   7
ATOM      7  S   UNL     1       5.379   4.195  18.446  0.00  0.00    +0.000 S 
BRANCH   7   8
ATOM      8  C   UNL     1       5.715   4.778  16.753  0.00  0.00    +0.000 C 
BRANCH   8   9
ATOM      9  C   UNL     1       7.188   4.744  16.408  0.00  0.00    +0.000 C 
ATOM     10  O   UNL     1       8.033   4.243  17.135  0.00  0.00    +0.000 OA
BRANCH   9  11
ATOM     11  O   UNL     1       7.521   5.389  15.264  0.00  0.00    +0.000 OA
ATOM     12  H   UNL     1       7.008   6.214  15.145  0.00  0.00    +0.000 HD
ENDBRANCH   9  11
ENDBRANCH   8   9
ENDBRANCH   7   8
ENDBRANCH   6   7
TORSDOF 4
ENDMDL
MODEL 9
REMARK VINA RESULT:      -4.8      2.076      2.278
REMARK  Name = 
REMARK  5 active torsions:
REMARK  status: ('A' for Active; 'I' for Inactive)
REMARK    1  A    between atoms: C_1  and  C_2
REMARK    2  A    between atoms: C_6  and  S_7
REMARK    3  A    between atoms: S_7  and  C_8
REMARK    4  A    between atoms: C_8  and  C_9
REMARK    5  A    between atoms: C_9  and  O_11
REMARK                            x       y       z     vdW  Elec       q    Type
REMARK                         _______ _______ _______ _____ _____    ______ ____
ROOT
ATOM      1  C   UNL     1       6.150   4.000  14.866  0.00  0.00    +0.000 C 
ATOM      2  C   UNL     1       6.477   4.332  16.276  0.00  0.00    +0.000 A 
ATOM      3  N   UNL     1       7.816   4.301  16.652  0.00  0.00    +0.000 NA
ATOM      4  N   UNL     1       7.982   4.600  17.927  0.00  0.00    +0.000 NA
ATOM      5  S   UNL     1       6.543   4.917  18.711  0.00  0.00    +0.000 S 
ATOM      6  C   UNL     1       5.599   4.680  17.296  0.00  0.00    +0.000 A 
ENDROOT
BRANCH   6   7
ATOM      7  S   UNL     1       3.850   4.802  17.229  0.00  0.00    +0.000 S 
BRANCH   7   8
ATOM      8  C   UNL     1       3.347   3.074  17.518  0.00  0.00    +0.000 C 
BRANCH   8   9
ATOM      9  C   UNL     1       1.920   2.958  18.007  0.00  0.00    +0.000 C 
ATOM     10  O   UNL     1       1.542   2.074  18.761  0.00  0.00    +0.000 OA
BRANCH   9  11
ATOM     11  O   UNL     1       1.061   3.863  17.480  0.00  0.00    +0.000 OA
ATOM     12  H   UNL     1       1.080   3.861  16.501  0.00  0.00    +0.000 HD
ENDBRANCH   9  11
ENDBRANCH   8   9
ENDBRANCH   7   8
ENDBRANCH   6   7
TORSDOF 4
ENDMDL
