MODEL 1
REMARK VINA RESULT:      -6.9      0.000      0.000
REMARK  Name = 
REMARK  4 active torsions:
REMARK  status: ('A' for Active; 'I' for Inactive)
REMARK    1  A    between atoms: N_1  and  C_2
REMARK    2  A    between atoms: C_2  and  C_3
REMARK    3  A    between atoms: C_9  and  O_10
REMARK    4  A    between atoms: O_10  and  C_11
REMARK                            x       y       z     vdW  Elec       q    Type
REMARK                         _______ _______ _______ _____ _____    ______ ____
ROOT
ATOM      1  C   UNL     1       3.111   3.731  19.591  0.00  0.00    +0.000 A 
ATOM      2  C   UNL     1       2.061   3.934  20.511  0.00  0.00    +0.000 A 
ATOM      3 CL   UNL     1       1.360   2.630  21.410  0.00  0.00    +0.000 Cl
ATOM      4  C   UNL     1       1.541   5.210  20.751  0.00  0.00    +0.000 A 
ATOM      5  C   UNL     1       2.097   6.318  20.129  0.00  0.00    +0.000 A 
ATOM      6  C   UNL     1       3.151   6.146  19.239  0.00  0.00    +0.000 A 
ATOM      7  C   UNL     1       3.617   4.862  18.916  0.00  0.00    +0.000 A 
ENDROOT
BRANCH   1   8
ATOM      8  C   UNL     1       3.699   2.356  19.382  0.00  0.00    +0.000 C 
BRANCH   8   9
ATOM      9  N   UNL     1       5.041   2.251  19.958  0.00  0.00    +0.000 NA
ATOM     10  H   UNL     1       5.211   1.280  20.217  0.00  0.00    +0.000 HD
ATOM     11  H   UNL     1       5.070   2.777  20.830  0.00  0.00    +0.000 HD
ENDBRANCH   8   9
ENDBRANCH   1   8
BRANCH   7  12
ATOM     12  O   UNL     1       4.607   4.672  17.959  0.00  0.00    +0.000 OA
BRANCH  12  13
ATOM     13  C   UNL     1       5.720   5.493  17.992  0.00  0.00    +0.000 A 
ATOM     14  C   UNL     1       6.693   5.208  18.952  0.00  0.00    +0.000 A 
ATOM     15  C   UNL     1       7.816   6.033  19.075  0.00  0.00    +0.000 A 
ATOM     16  C   UNL     1       7.966   7.141  18.239  0.00  0.00    +0.000 A 
ATOM     17  C   UNL     1       7.015   7.404  17.254  0.00  0.00    +0.000 A 
ATOM     18  C   UNL     1       5.908   6.564  17.112  0.00  0.00    +0.000 A 
ENDBRANCH  12  13
ENDBRANCH   7  12
TORSDOF 4
ENDMDL
MODEL 2
REMARK VINA RESULT:      -6.8      0.102      1.211
REMARK  Name = 
REMARK  4 active torsions:
REMARK  status: ('A' for Active; 'I' for Inactive)
REMARK    1  A    between atoms: N_1  and  C_2
REMARK    2  A    between atoms: C_2  and  C_3
REMARK    3  A    between atoms: C_9  and  O_10
REMARK    4  A    between atoms: O_10  and  C_11
REMARK                            x       y       z     vdW  Elec       q    Type
REMARK                         _______ _______ _______ _____ _____    ______ ____
ROOT
ATOM      1  C   UNL     1       3.094   3.709  19.628  0.00  0.00    +0.000 A 
ATOM      2  C   UNL     1       2.023   3.876  20.530  0.00  0.00    +0.000 A 
ATOM      3 CL   UNL     1       1.333   2.543  21.396  0.00  0.00    +0.000 Cl
ATOM      4  C   UNL     1       1.471   5.136  20.780  0.00  0.00    +0.000 A 
ATOM      5  C   UNL     1       2.015   6.266  20.185  0.00  0.00    +0.000 A 
ATOM      6  C   UNL     1       3.089   6.130  19.313  0.00  0.00    +0.000 A 
ATOM      7  C   UNL     1       3.589   4.861  18.980  0.00  0.00    +0.000 A 
ENDROOT
BRANCH   1   8
ATOM      8  C   UNL     1       3.715   2.350  19.409  0.00  0.00    +0.000 C 
BRANCH   8   9
ATOM      9  N   UNL     1       5.062   2.276  19.979  0.00  0.00    +0.000 NA
ATOM     10  H   UNL     1       5.717   2.706  19.328  0.00  0.00    +0.000 HD
ATOM     11  H   UNL     1       5.341   1.298  20.044  0.00  0.00    +0.000 HD
ENDBRANCH   8   9
ENDBRANCH   1   8
BRANCH   7  12
ATOM     12  O   UNL     1       4.600   4.707  18.039  0.00  0.00    +0.000 OA
BRANCH  12  13
ATOM     13  C   UNL     1       5.721   5.512  18.141  0.00  0.00    +0.000 A 
ATOM     14  C   UNL     1       5.838   6.558  17.223  0.00  0.00    +0.000 A 
ATOM     15  C   UNL     1       6.973   7.375  17.235  0.00  0.00    +0.000 A 
ATOM     16  C   UNL     1       7.990   7.146  18.164  0.00  0.00    +0.000 A 
ATOM     17  C   UNL     1       7.857   6.128  19.106  0.00  0.00    +0.000 A 
ATOM     18  C   UNL     1       6.710   5.330  19.113  0.00  0.00    +0.000 A 
ENDBRANCH  12  13
ENDBRANCH   7  12
TORSDOF 4
ENDMDL
MODEL 3
REMARK VINA RESULT:      -6.7      1.304      1.455
REMARK  Name = 
REMARK  4 active torsions:
REMARK  status: ('A' for Active; 'I' for Inactive)
REMARK    1  A    between atoms: N_1  and  C_2
REMARK    2  A    between atoms: C_2  and  C_3
REMARK    3  A    between atoms: C_9  and  O_10
REMARK    4  A    between atoms: O_10  and  C_11
REMARK                            x       y       z     vdW  Elec       q    Type
REMARK                         _______ _______ _______ _____ _____    ______ ____
ROOT
ATOM      1  C   UNL     1       3.052   3.005  18.840  0.00  0.00    +0.000 A 
ATOM      2  C   UNL     1       1.693   3.159  19.185  0.00  0.00    +0.000 A 
ATOM      3 CL   UNL     1       0.468   2.081  18.604  0.00  0.00    +0.000 Cl
ATOM      4  C   UNL     1       1.269   4.191  20.028  0.00  0.00    +0.000 A 
ATOM      5  C   UNL     1       2.196   5.053  20.597  0.00  0.00    +0.000 A 
ATOM      6  C   UNL     1       3.545   4.903  20.294  0.00  0.00    +0.000 A 
ATOM      7  C   UNL     1       3.971   3.933  19.374  0.00  0.00    +0.000 A 
ENDROOT
BRANCH   1   8
ATOM      8  C   UNL     1       3.502   1.854  17.972  0.00  0.00    +0.000 C 
BRANCH   8   9
ATOM      9  N   UNL     1       4.300   0.888  18.730  0.00  0.00    +0.000 NA
ATOM     10  H   UNL     1       4.582   0.134  18.105  0.00  0.00    +0.000 HD
ATOM     11  H   UNL     1       3.711   0.453  19.438  0.00  0.00    +0.000 HD
ENDBRANCH   8   9
ENDBRANCH   1   8
BRANCH   7  12
ATOM     12  O   UNL     1       5.305   3.835  18.993  0.00  0.00    +0.000 OA
BRANCH  12  13
ATOM     13  C   UNL     1       5.909   4.941  18.422  0.00  0.00    +0.000 A 
ATOM     14  C   UNL     1       7.123   5.358  18.971  0.00  0.00    +0.000 A 
ATOM     15  C   UNL     1       7.758   6.502  18.477  0.00  0.00    +0.000 A 
ATOM     16  C   UNL     1       7.180   7.227  17.433  0.00  0.00    +0.000 A 
ATOM     17  C   UNL     1       5.988   6.790  16.857  0.00  0.00    +0.000 A 
ATOM     18  C   UNL     1       5.368   5.631  17.331  0.00  0.00    +0.000 A 
ENDBRANCH  12  13
ENDBRANCH   7  12
TORSDOF 4
ENDMDL
MODEL 4
REMARK VINA RESULT:      -6.6      1.298      1.811
REMARK  Name = 
REMARK  4 active torsions:
REMARK  status: ('A' for Active; 'I' for Inactive)
REMARK    1  A    between atoms: N_1  and  C_2
REMARK    2  A    between atoms: C_2  and  C_3
REMARK    3  A    between atoms: C_9  and  O_10
REMARK    4  A    between atoms: O_10  and  C_11
REMARK                            x       y       z     vdW  Elec       q    Type
REMARK                         _______ _______ _______ _____ _____    ______ ____
ROOT
ATOM      1  C   UNL     1       3.030   2.980  18.854  0.00  0.00    +0.000 A 
ATOM      2  C   UNL     1       1.676   3.158  19.206  0.00  0.00    +0.000 A 
ATOM      3 CL   UNL     1       0.432   2.089  18.649  0.00  0.00    +0.000 Cl
ATOM      4  C   UNL     1       1.272   4.207  20.038  0.00  0.00    +0.000 A 
ATOM      5  C   UNL     1       2.216   5.064  20.588  0.00  0.00    +0.000 A 
ATOM      6  C   UNL     1       3.560   4.891  20.278  0.00  0.00    +0.000 A 
ATOM      7  C   UNL     1       3.967   3.902  19.368  0.00  0.00    +0.000 A 
ENDROOT
BRANCH   1   8
ATOM      8  C   UNL     1       3.459   1.811  17.999  0.00  0.00    +0.000 C 
BRANCH   8   9
ATOM      9  N   UNL     1       4.319   0.888  18.741  0.00  0.00    +0.000 NA
ATOM     10  H   UNL     1       4.874   0.351  18.076  0.00  0.00    +0.000 HD
ATOM     11  H   UNL     1       3.737   0.207  19.226  0.00  0.00    +0.000 HD
ENDBRANCH   8   9
ENDBRANCH   1   8
BRANCH   7  12
ATOM     12  O   UNL     1       5.295   3.780  18.980  0.00  0.00    +0.000 OA
BRANCH  12  13
ATOM     13  C   UNL     1       5.955   4.909  18.527  0.00  0.00    +0.000 A 
ATOM     14  C   UNL     1       5.402   5.571  17.429  0.00  0.00    +0.000 A 
ATOM     15  C   UNL     1       6.048   6.686  16.886  0.00  0.00    +0.000 A 
ATOM     16  C   UNL     1       7.247   7.139  17.441  0.00  0.00    +0.000 A 
ATOM     17  C   UNL     1       7.779   6.504  18.562  0.00  0.00    +0.000 A 
ATOM     18  C   UNL     1       7.119   5.407  19.122  0.00  0.00    +0.000 A 
ENDBRANCH  12  13
ENDBRANCH   7  12
TORSDOF 4
ENDMDL
MODEL 5
REMARK VINA RESULT:      -6.6      2.798      5.546
REMARK  Name = 
REMARK  4 active torsions:
REMARK  status: ('A' for Active; 'I' for Inactive)
REMARK    1  A    between atoms: N_1  and  C_2
REMARK    2  A    between atoms: C_2  and  C_3
REMARK    3  A    between atoms: C_9  and  O_10
REMARK    4  A    between atoms: O_10  and  C_11
REMARK                            x       y       z     vdW  Elec       q    Type
REMARK                         _______ _______ _______ _____ _____    ______ ____
ROOT
ATOM      1  C   UNL     1       6.297   5.371  18.317  0.00  0.00    +0.000 A 
ATOM      2  C   UNL     1       6.608   6.151  17.184  0.00  0.00    +0.000 A 
ATOM      3 CL   UNL     1       7.692   7.500  17.264  0.00  0.00    +0.000 Cl
ATOM      4  C   UNL     1       6.061   5.862  15.929  0.00  0.00    +0.000 A 
ATOM      5  C   UNL     1       5.244   4.753  15.763  0.00  0.00    +0.000 A 
ATOM      6  C   UNL     1       4.945   3.953  16.860  0.00  0.00    +0.000 A 
ATOM      7  C   UNL     1       5.409   4.288  18.142  0.00  0.00    +0.000 A 
ENDROOT
BRANCH   1   8
ATOM      8  C   UNL     1       6.937   5.662  19.654  0.00  0.00    +0.000 C 
BRANCH   8   9
ATOM      9  N   UNL     1       8.332   5.221  19.690  0.00  0.00    +0.000 NA
ATOM     10  H   UNL     1       8.448   4.562  20.459  0.00  0.00    +0.000 HD
ATOM     11  H   UNL     1       8.926   6.017  19.919  0.00  0.00    +0.000 HD
ENDBRANCH   8   9
ENDBRANCH   1   8
BRANCH   7  12
ATOM     12  O   UNL     1       5.041   3.549  19.260  0.00  0.00    +0.000 OA
BRANCH  12  13
ATOM     13  C   UNL     1       3.713   3.558  19.647  0.00  0.00    +0.000 A 
ATOM     14  C   UNL     1       3.183   4.778  20.074  0.00  0.00    +0.000 A 
ATOM     15  C   UNL     1       1.863   4.845  20.531  0.00  0.00    +0.000 A 
ATOM     16  C   UNL     1       1.073   3.694  20.561  0.00  0.00    +0.000 A 
ATOM     17  C   UNL     1       1.588   2.484  20.097  0.00  0.00    +0.000 A 
ATOM     18  C   UNL     1       2.897   2.422  19.614  0.00  0.00    +0.000 A 
ENDBRANCH  12  13
ENDBRANCH   7  12
TORSDOF 4
ENDMDL
MODEL 6
REMARK VINA RESULT:      -6.6      2.796      5.494
REMARK  Name = 
REMARK  4 active torsions:
REMARK  status: ('A' for Active; 'I' for Inactive)
REMARK    1  A    between atoms: N_1  and  C_2
REMARK    2  A    between atoms: C_2  and  C_3
REMARK    3  A    between atoms: C_9  and  O_10
REMARK    4  A    between atoms: O_10  and  C_11
REMARK                            x       y       z     vdW  Elec       q    Type
REMARK                         _______ _______ _______ _____ _____    ______ ____
ROOT
ATOM      1  C   UNL     1       6.270   5.365  18.298  0.00  0.00    +0.000 A 
ATOM      2  C   UNL     1       6.585   6.137  17.161  0.00  0.00    +0.000 A 
ATOM      3 CL   UNL     1       7.661   7.493  17.238  0.00  0.00    +0.000 Cl
ATOM      4  C   UNL     1       6.048   5.836  15.905  0.00  0.00    +0.000 A 
ATOM      5  C   UNL     1       5.237   4.721  15.742  0.00  0.00    +0.000 A 
ATOM      6  C   UNL     1       4.935   3.928  16.843  0.00  0.00    +0.000 A 
ATOM      7  C   UNL     1       5.389   4.276  18.126  0.00  0.00    +0.000 A 
ENDROOT
BRANCH   1   8
ATOM      8  C   UNL     1       6.899   5.669  19.637  0.00  0.00    +0.000 C 
BRANCH   8   9
ATOM      9  N   UNL     1       8.286   5.205  19.698  0.00  0.00    +0.000 NA
ATOM     10  H   UNL     1       8.365   4.504  20.433  0.00  0.00    +0.000 HD
ATOM     11  H   UNL     1       8.883   5.978  19.990  0.00  0.00    +0.000 HD
ENDBRANCH   8   9
ENDBRANCH   1   8
BRANCH   7  12
ATOM     12  O   UNL     1       5.017   3.543  19.247  0.00  0.00    +0.000 OA
BRANCH  12  13
ATOM     13  C   UNL     1       3.707   3.630  19.685  0.00  0.00    +0.000 A 
ATOM     14  C   UNL     1       2.966   2.448  19.713  0.00  0.00    +0.000 A 
ATOM     15  C   UNL     1       1.620   2.475  20.092  0.00  0.00    +0.000 A 
ATOM     16  C   UNL     1       1.016   3.684  20.443  0.00  0.00    +0.000 A 
ATOM     17  C   UNL     1       1.765   4.859  20.454  0.00  0.00    +0.000 A 
ATOM     18  C   UNL     1       3.117   4.828  20.103  0.00  0.00    +0.000 A 
ENDBRANCH  12  13
ENDBRANCH   7  12
TORSDOF 4
ENDMDL
MODEL 7
REMARK VINA RESULT:      -6.5      1.154      1.656
REMARK  Name = 
REMARK  4 active torsions:
REMARK  status: ('A' for Active; 'I' for Inactive)
REMARK    1  A    between atoms: N_1  and  C_2
REMARK    2  A    between atoms: C_2  and  C_3
REMARK    3  A    between atoms: C_9  and  O_10
REMARK    4  A    between atoms: O_10  and  C_11
REMARK                            x       y       z     vdW  Elec       q    Type
REMARK                         _______ _______ _______ _____ _____    ______ ____
ROOT
ATOM      1  C   UNL     1       2.594   3.926  18.355  0.00  0.00    +0.000 A 
ATOM      2  C   UNL     1       1.543   3.803  19.288  0.00  0.00    +0.000 A 
ATOM      3 CL   UNL     1       0.546   2.388  19.371  0.00  0.00    +0.000 Cl
ATOM      4  C   UNL     1       1.261   4.822  20.204  0.00  0.00    +0.000 A 
ATOM      5  C   UNL     1       2.059   5.956  20.254  0.00  0.00    +0.000 A 
ATOM      6  C   UNL     1       3.118   6.087  19.363  0.00  0.00    +0.000 A 
ATOM      7  C   UNL     1       3.351   5.117  18.376  0.00  0.00    +0.000 A 
ENDROOT
BRANCH   1   8
ATOM      8  C   UNL     1       2.921   2.796  17.408  0.00  0.00    +0.000 C 
BRANCH   8   9
ATOM      9  N   UNL     1       4.121   2.072  17.828  0.00  0.00    +0.000 NA
ATOM     10  H   UNL     1       4.924   2.694  17.749  0.00  0.00    +0.000 HD
ATOM     11  H   UNL     1       4.297   1.311  17.172  0.00  0.00    +0.000 HD
ENDBRANCH   8   9
ENDBRANCH   1   8
BRANCH   7  12
ATOM     12  O   UNL     1       4.348   5.281  17.422  0.00  0.00    +0.000 OA
BRANCH  12  13
ATOM     13  C   UNL     1       5.567   5.796  17.827  0.00  0.00    +0.000 A 
ATOM     14  C   UNL     1       6.016   6.951  17.184  0.00  0.00    +0.000 A 
ATOM     15  C   UNL     1       7.265   7.491  17.507  0.00  0.00    +0.000 A 
ATOM     16  C   UNL     1       8.064   6.876  18.472  0.00  0.00    +0.000 A 
ATOM     17  C   UNL     1       7.602   5.746  19.143  0.00  0.00    +0.000 A 
ATOM     18  C   UNL     1       6.342   5.223  18.841  0.00  0.00    +0.000 A 
ENDBRANCH  12  13
ENDBRANCH   7  12
TORSDOF 4
ENDMDL
MODEL 8
REMARK VINA RESULT:      -6.5      1.635      2.111
REMARK  Name = 
REMARK  4 active torsions:
REMARK  status: ('A' for Active; 'I' for Inactive)
REMARK    1  A    between atoms: N_1  and  C_2
REMARK    2  A    between atoms: C_2  and  C_3
REMARK    3  A    between atoms: C_9  and  O_10
REMARK    4  A    between atoms: O_10  and  C_11
REMARK                            x       y       z     vdW  Elec       q    Type
REMARK                         _______ _______ _______ _____ _____    ______ ____
ROOT
ATOM      1  C   UNL     1       3.497   3.480  19.682  0.00  0.00    +0.000 A 
ATOM      2  C   UNL     1       2.252   3.934  20.164  0.00  0.00    +0.000 A 
ATOM      3 CL   UNL     1       1.057   2.849  20.794  0.00  0.00    +0.000 Cl
ATOM      4  C   UNL     1       1.926   5.294  20.168  0.00  0.00    +0.000 A 
ATOM      5  C   UNL     1       2.856   6.236  19.751  0.00  0.00    +0.000 A 
ATOM      6  C   UNL     1       4.100   5.814  19.296  0.00  0.00    +0.000 A 
ATOM      7  C   UNL     1       4.404   4.447  19.197  0.00  0.00    +0.000 A 
ENDROOT
BRANCH   1   8
ATOM      8  C   UNL     1       3.857   2.014  19.734  0.00  0.00    +0.000 C 
BRANCH   8   9
ATOM      9  N   UNL     1       5.154   1.800  20.378  0.00  0.00    +0.000 NA
ATOM     10  H   UNL     1       5.803   2.515  20.052  0.00  0.00    +0.000 HD
ATOM     11  H   UNL     1       5.541   0.913  20.060  0.00  0.00    +0.000 HD
ENDBRANCH   8   9
ENDBRANCH   1   8
BRANCH   7  12
ATOM     12  O   UNL     1       5.608   4.011  18.658  0.00  0.00    +0.000 OA
BRANCH  12  13
ATOM     13  C   UNL     1       5.858   4.258  17.320  0.00  0.00    +0.000 A 
ATOM     14  C   UNL     1       7.118   4.763  16.991  0.00  0.00    +0.000 A 
ATOM     15  C   UNL     1       7.416   5.087  15.663  0.00  0.00    +0.000 A 
ATOM     16  C   UNL     1       6.455   4.906  14.666  0.00  0.00    +0.000 A 
ATOM     17  C   UNL     1       5.211   4.365  14.987  0.00  0.00    +0.000 A 
ATOM     18  C   UNL     1       4.924   4.014  16.308  0.00  0.00    +0.000 A 
ENDBRANCH  12  13
ENDBRANCH   7  12
TORSDOF 4
ENDMDL
MODEL 9
REMARK VINA RESULT:      -6.5      1.624      2.174
REMARK  Name = 
REMARK  4 active torsions:
REMARK  status: ('A' for Active; 'I' for Inactive)
REMARK    1  A    between atoms: N_1  and  C_2
REMARK    2  A    between atoms: C_2  and  C_3
REMARK    3  A    between atoms: C_9  and  O_10
REMARK    4  A    between atoms: O_10  and  C_11
REMARK                            x       y       z     vdW  Elec       q    Type
REMARK                         _______ _______ _______ _____ _____    ______ ____
ROOT
ATOM      1  C   UNL     1       2.616   3.389  19.131  0.00  0.00    +0.000 A 
ATOM      2  C   UNL     1       2.052   3.857  20.336  0.00  0.00    +0.000 A 
ATOM      3 CL   UNL     1       1.504   2.778  21.576  0.00  0.00    +0.000 Cl
ATOM      4  C   UNL     1       1.917   5.225  20.594  0.00  0.00    +0.000 A 
ATOM      5  C   UNL     1       2.400   6.157  19.685  0.00  0.00    +0.000 A 
ATOM      6  C   UNL     1       2.986   5.720  18.503  0.00  0.00    +0.000 A 
ATOM      7  C   UNL     1       3.039   4.352  18.190  0.00  0.00    +0.000 A 
ENDROOT
BRANCH   1   8
ATOM      8  C   UNL     1       2.805   1.910  18.890  0.00  0.00    +0.000 C 
BRANCH   8   9
ATOM      9  N   UNL     1       4.217   1.531  18.946  0.00  0.00    +0.000 NA
ATOM     10  H   UNL     1       4.718   2.023  18.207  0.00  0.00    +0.000 HD
ATOM     11  H   UNL     1       4.305   0.540  18.724  0.00  0.00    +0.000 HD
ENDBRANCH   8   9
ENDBRANCH   1   8
BRANCH   7  12
ATOM     12  O   UNL     1       3.538   3.909  16.970  0.00  0.00    +0.000 OA
BRANCH  12  13
ATOM     13  C   UNL     1       4.831   4.256  16.624  0.00  0.00    +0.000 A 
ATOM     14  C   UNL     1       5.085   4.496  15.272  0.00  0.00    +0.000 A 
ATOM     15  C   UNL     1       6.383   4.797  14.846  0.00  0.00    +0.000 A 
ATOM     16  C   UNL     1       7.426   4.859  15.773  0.00  0.00    +0.000 A 
ATOM     17  C   UNL     1       7.167   4.659  17.128  0.00  0.00    +0.000 A 
ATOM     18  C   UNL     1       5.866   4.387  17.556  0.00  0.00    +0.000 A 
ENDBRANCH  12  13
ENDBRANCH   7  12
TORSDOF 4
ENDMDL
