MODEL 1
REMARK VINA RESULT:      -7.2      0.000      0.000
REMARK  Name = 
REMARK  11 active torsions:
REMARK  status: ('A' for Active; 'I' for Inactive)
REMARK    1  A    between atoms: C_1  and  C_2
REMARK    2  A    between atoms: C_2  and  O_3
REMARK    3  A    between atoms: O_3  and  C_4
REMARK    4  A    between atoms: C_7  and  S_8
REMARK    5  A    between atoms: S_8  and  N_11
REMARK    6  A    between atoms: N_11  and  C_20
REMARK    7  A    between atoms: C_12  and  C_14
REMARK    8  A    between atoms: C_25  and  C_26
REMARK    9  A    between atoms: C_27  and  C_28
REMARK   10  A    between atoms: C_28  and  O_30
REMARK   11  A    between atoms: O_30  and  C_31
REMARK                            x       y       z     vdW  Elec       q    Type
REMARK                         _______ _______ _______ _____ _____    ______ ____
ROOT
ATOM      1  N   UNL     1       0.106  11.550  20.992  0.00  0.00    +0.000 N 
ATOM      2  C   UNL     1       1.091  12.580  20.856  0.00  0.00    +0.000 C 
ATOM      3  O   UNL     1       2.282  12.356  21.047  0.00  0.00    +0.000 OA
ENDROOT
BRANCH   1   4
ATOM      4  C   UNL     1      -1.252  11.773  20.629  0.00  0.00    +0.000 A 
ATOM      5  C   UNL     1      -2.086  12.514  21.480  0.00  0.00    +0.000 A 
ATOM      6  C   UNL     1      -3.374  12.895  21.078  0.00  0.00    +0.000 A 
ATOM      7  C   UNL     1      -3.785  12.443  19.826  0.00  0.00    +0.000 A 
ATOM      8  O   UNL     1      -4.976  12.697  19.230  0.00  0.00    +0.000 OA
ATOM      9  C   UNL     1      -4.982  12.063  18.013  0.00  0.00    +0.000 A 
ATOM     10  C   UNL     1      -6.244  12.235  17.261  0.00  0.00    +0.000 C 
ATOM     11  C   UNL     1      -3.777  11.405  17.809  0.00  0.00    +0.000 A 
ATOM     12  C   UNL     1      -3.008  11.662  18.990  0.00  0.00    +0.000 A 
ATOM     13  C   UNL     1      -1.713  11.314  19.402  0.00  0.00    +0.000 A 
BRANCH  11  14
ATOM     14  C   UNL     1      -3.255  10.601  16.710  0.00  0.00    +0.000 C 
ATOM     15  O   UNL     1      -2.873   9.447  16.895  0.00  0.00    +0.000 OA
BRANCH  14  16
ATOM     16  O   UNL     1      -3.198  11.197  15.486  0.00  0.00    +0.000 OA
ATOM     17  C   UNL     1      -3.527  10.251  14.458  0.00  0.00    +0.000 C 
ENDBRANCH  14  16
ENDBRANCH  11  14
ENDBRANCH   1   4
BRANCH   2  18
ATOM     18  C   UNL     1       0.753  13.984  20.384  0.00  0.00    +0.000 A 
ATOM     19  C   UNL     1       0.531  14.386  19.069  0.00  0.00    +0.000 A 
ATOM     20  C   UNL     1       0.393  15.728  18.767  0.00  0.00    +0.000 A 
ATOM     21  N   UNL     1       0.368  16.695  19.700  0.00  0.00    +0.000 NA
ATOM     22  C   UNL     1       0.466  16.295  20.982  0.00  0.00    +0.000 A 
ATOM     23  C   UNL     1       0.664  14.976  21.366  0.00  0.00    +0.000 A 
ENDBRANCH   2  18
BRANCH   1  24
ATOM     24  S   UNL     1       0.468   9.941  21.446  0.00  0.00    +0.000 S 
ATOM     25  O   UNL     1      -0.790   9.248  21.674  0.00  0.00    +0.000 OA
ATOM     26  O   UNL     1       1.486   9.955  22.477  0.00  0.00    +0.000 OA
BRANCH  24  30
ATOM     27  C   UNL     1       2.729   7.739  18.094  0.00  0.00    +0.000 A 
ATOM     28  C   UNL     1       2.089   8.945  17.791  0.00  0.00    +0.000 A 
ATOM     29  C   UNL     1       1.351   9.638  18.767  0.00  0.00    +0.000 A 
ATOM     30  C   UNL     1       1.216   9.091  20.043  0.00  0.00    +0.000 A 
ATOM     31  C   UNL     1       1.758   7.819  20.304  0.00  0.00    +0.000 A 
ATOM     32  C   UNL     1       2.511   7.146  19.334  0.00  0.00    +0.000 A 
BRANCH  27  33
ATOM     33  O   UNL     1       3.554   7.236  17.122  0.00  0.00    +0.000 OA
BRANCH  33  35
ATOM     34  C   UNL     1       5.767   6.438  16.596  0.00  0.00    +0.000 C 
ATOM     35  C   UNL     1       4.612   6.393  17.598  0.00  0.00    +0.000 C 
ENDBRANCH  33  35
ENDBRANCH  27  33
ENDBRANCH  24  30
ENDBRANCH   1  24
TORSDOF 8
ENDMDL
MODEL 2
REMARK VINA RESULT:      -6.9      1.458      3.136
REMARK  Name = 
REMARK  11 active torsions:
REMARK  status: ('A' for Active; 'I' for Inactive)
REMARK    1  A    between atoms: C_1  and  C_2
REMARK    2  A    between atoms: C_2  and  O_3
REMARK    3  A    between atoms: O_3  and  C_4
REMARK    4  A    between atoms: C_7  and  S_8
REMARK    5  A    between atoms: S_8  and  N_11
REMARK    6  A    between atoms: N_11  and  C_20
REMARK    7  A    between atoms: C_12  and  C_14
REMARK    8  A    between atoms: C_25  and  C_26
REMARK    9  A    between atoms: C_27  and  C_28
REMARK   10  A    between atoms: C_28  and  O_30
REMARK   11  A    between atoms: O_30  and  C_31
REMARK                            x       y       z     vdW  Elec       q    Type
REMARK                         _______ _______ _______ _____ _____    ______ ____
ROOT
ATOM      1  N   UNL     1       0.152  11.675  20.784  0.00  0.00    +0.000 N 
ATOM      2  C   UNL     1       1.168  12.684  20.761  0.00  0.00    +0.000 C 
ATOM      3  O   UNL     1       2.322  12.437  21.095  0.00  0.00    +0.000 OA
ENDROOT
BRANCH   1   4
ATOM      4  C   UNL     1      -1.148  11.921  20.259  0.00  0.00    +0.000 A 
ATOM      5  C   UNL     1      -1.414  11.653  18.908  0.00  0.00    +0.000 A 
ATOM      6  C   UNL     1      -2.719  11.724  18.401  0.00  0.00    +0.000 A 
ATOM      7  C   UNL     1      -3.705  12.132  19.297  0.00  0.00    +0.000 A 
ATOM      8  O   UNL     1      -5.029  12.260  19.033  0.00  0.00    +0.000 OA
ATOM      9  C   UNL     1      -5.647  12.690  20.179  0.00  0.00    +0.000 A 
ATOM     10  C   UNL     1      -7.103  12.900  20.026  0.00  0.00    +0.000 C 
ATOM     11  C   UNL     1      -4.719  12.828  21.203  0.00  0.00    +0.000 A 
ATOM     12  C   UNL     1      -3.464  12.460  20.618  0.00  0.00    +0.000 A 
ATOM     13  C   UNL     1      -2.155  12.358  21.111  0.00  0.00    +0.000 A 
BRANCH  11  14
ATOM     14  C   UNL     1      -4.828  13.237  22.598  0.00  0.00    +0.000 C 
ATOM     15  O   UNL     1      -4.687  14.414  22.926  0.00  0.00    +0.000 OA
BRANCH  14  16
ATOM     16  O   UNL     1      -5.075  12.254  23.509  0.00  0.00    +0.000 OA
ATOM     17  C   UNL     1      -4.352  12.509  24.722  0.00  0.00    +0.000 C 
ENDBRANCH  14  16
ENDBRANCH  11  14
ENDBRANCH   1   4
BRANCH   2  18
ATOM     18  C   UNL     1       0.918  14.090  20.242  0.00  0.00    +0.000 A 
ATOM     19  C   UNL     1       1.054  14.524  18.926  0.00  0.00    +0.000 A 
ATOM     20  C   UNL     1       0.951  15.870  18.625  0.00  0.00    +0.000 A 
ATOM     21  N   UNL     1       0.630  16.806  19.533  0.00  0.00    +0.000 NA
ATOM     22  C   UNL     1       0.383  16.371  20.783  0.00  0.00    +0.000 A 
ATOM     23  C   UNL     1       0.519  15.047  21.180  0.00  0.00    +0.000 A 
ENDBRANCH   2  18
BRANCH   1  24
ATOM     24  S   UNL     1       0.423  10.064  21.290  0.00  0.00    +0.000 S 
ATOM     25  O   UNL     1      -0.873   9.426  21.464  0.00  0.00    +0.000 OA
ATOM     26  O   UNL     1       1.385  10.060  22.374  0.00  0.00    +0.000 OA
BRANCH  24  30
ATOM     27  C   UNL     1       2.769   7.705  18.107  0.00  0.00    +0.000 A 
ATOM     28  C   UNL     1       2.177   8.918  17.742  0.00  0.00    +0.000 A 
ATOM     29  C   UNL     1       1.417   9.659  18.663  0.00  0.00    +0.000 A 
ATOM     30  C   UNL     1       1.209   9.153  19.946  0.00  0.00    +0.000 A 
ATOM     31  C   UNL     1       1.702   7.875  20.268  0.00  0.00    +0.000 A 
ATOM     32  C   UNL     1       2.479   7.154  19.352  0.00  0.00    +0.000 A 
BRANCH  27  33
ATOM     33  O   UNL     1       3.622   7.152  17.189  0.00  0.00    +0.000 OA
BRANCH  33  35
ATOM     34  C   UNL     1       5.967   6.638  16.970  0.00  0.00    +0.000 C 
ATOM     35  C   UNL     1       4.677   6.353  17.740  0.00  0.00    +0.000 C 
ENDBRANCH  33  35
ENDBRANCH  27  33
ENDBRANCH  24  30
ENDBRANCH   1  24
TORSDOF 8
ENDMDL
MODEL 3
REMARK VINA RESULT:      -6.8      1.439      2.904
REMARK  Name = 
REMARK  11 active torsions:
REMARK  status: ('A' for Active; 'I' for Inactive)
REMARK    1  A    between atoms: C_1  and  C_2
REMARK    2  A    between atoms: C_2  and  O_3
REMARK    3  A    between atoms: O_3  and  C_4
REMARK    4  A    between atoms: C_7  and  S_8
REMARK    5  A    between atoms: S_8  and  N_11
REMARK    6  A    between atoms: N_11  and  C_20
REMARK    7  A    between atoms: C_12  and  C_14
REMARK    8  A    between atoms: C_25  and  C_26
REMARK    9  A    between atoms: C_27  and  C_28
REMARK   10  A    between atoms: C_28  and  O_30
REMARK   11  A    between atoms: O_30  and  C_31
REMARK                            x       y       z     vdW  Elec       q    Type
REMARK                         _______ _______ _______ _____ _____    ______ ____
ROOT
ATOM      1  N   UNL     1       0.072  11.409  20.509  0.00  0.00    +0.000 N 
ATOM      2  C   UNL     1       1.068  12.431  20.632  0.00  0.00    +0.000 C 
ATOM      3  O   UNL     1       2.097  12.246  21.274  0.00  0.00    +0.000 OA
ENDROOT
BRANCH   1   4
ATOM      4  C   UNL     1      -1.050  11.570  19.647  0.00  0.00    +0.000 A 
ATOM      5  C   UNL     1      -0.946  11.202  18.296  0.00  0.00    +0.000 A 
ATOM      6  C   UNL     1      -2.073  11.189  17.463  0.00  0.00    +0.000 A 
ATOM      7  C   UNL     1      -3.268  11.617  18.038  0.00  0.00    +0.000 A 
ATOM      8  O   UNL     1      -4.478  11.675  17.430  0.00  0.00    +0.000 OA
ATOM      9  C   UNL     1      -5.384  12.157  18.341  0.00  0.00    +0.000 A 
ATOM     10  C   UNL     1      -6.752  12.300  17.799  0.00  0.00    +0.000 C 
ATOM     11  C   UNL     1      -4.760  12.399  19.557  0.00  0.00    +0.000 A 
ATOM     12  C   UNL     1      -3.388  12.041  19.349  0.00  0.00    +0.000 A 
ATOM     13  C   UNL     1      -2.253  12.023  20.172  0.00  0.00    +0.000 A 
BRANCH  11  14
ATOM     14  C   UNL     1      -5.240  12.895  20.842  0.00  0.00    +0.000 C 
ATOM     15  O   UNL     1      -5.024  14.053  21.194  0.00  0.00    +0.000 OA
BRANCH  14  16
ATOM     16  O   UNL     1      -5.917  12.011  21.628  0.00  0.00    +0.000 OA
ATOM     17  C   UNL     1      -7.310  12.353  21.672  0.00  0.00    +0.000 C 
ENDBRANCH  14  16
ENDBRANCH  11  14
ENDBRANCH   1   4
BRANCH   2  18
ATOM     18  C   UNL     1       0.970  13.766  19.913  0.00  0.00    +0.000 A 
ATOM     19  C   UNL     1       1.615  14.120  18.730  0.00  0.00    +0.000 A 
ATOM     20  C   UNL     1       1.563  15.424  18.276  0.00  0.00    +0.000 A 
ATOM     21  N   UNL     1       0.835  16.385  18.870  0.00  0.00    +0.000 NA
ATOM     22  C   UNL     1       0.118  16.014  19.948  0.00  0.00    +0.000 A 
ATOM     23  C   UNL     1       0.159  14.741  20.501  0.00  0.00    +0.000 A 
ENDBRANCH   2  18
BRANCH   1  24
ATOM     24  S   UNL     1       0.192   9.870  21.243  0.00  0.00    +0.000 S 
ATOM     25  O   UNL     1      -1.117   9.238  21.174  0.00  0.00    +0.000 OA
ATOM     26  O   UNL     1       0.867  10.001  22.518  0.00  0.00    +0.000 OA
BRANCH  24  30
ATOM     27  C   UNL     1       2.610   7.176  18.397  0.00  0.00    +0.000 A 
ATOM     28  C   UNL     1       2.508   6.809  19.743  0.00  0.00    +0.000 A 
ATOM     29  C   UNL     1       1.815   7.616  20.662  0.00  0.00    +0.000 A 
ATOM     30  C   UNL     1       1.263   8.824  20.237  0.00  0.00    +0.000 A 
ATOM     31  C   UNL     1       1.476   9.246  18.912  0.00  0.00    +0.000 A 
ATOM     32  C   UNL     1       2.147   8.426  17.996  0.00  0.00    +0.000 A 
BRANCH  27  33
ATOM     33  O   UNL     1       3.159   6.242  17.559  0.00  0.00    +0.000 OA
BRANCH  33  35
ATOM     34  C   UNL     1       1.838   4.225  17.593  0.00  0.00    +0.000 C 
ATOM     35  C   UNL     1       3.135   4.895  18.050  0.00  0.00    +0.000 C 
ENDBRANCH  33  35
ENDBRANCH  27  33
ENDBRANCH  24  30
ENDBRANCH   1  24
TORSDOF 8
ENDMDL
MODEL 4
REMARK VINA RESULT:      -6.8      1.274      2.730
REMARK  Name = 
REMARK  11 active torsions:
REMARK  status: ('A' for Active; 'I' for Inactive)
REMARK    1  A    between atoms: C_1  and  C_2
REMARK    2  A    between atoms: C_2  and  O_3
REMARK    3  A    between atoms: O_3  and  C_4
REMARK    4  A    between atoms: C_7  and  S_8
REMARK    5  A    between atoms: S_8  and  N_11
REMARK    6  A    between atoms: N_11  and  C_20
REMARK    7  A    between atoms: C_12  and  C_14
REMARK    8  A    between atoms: C_25  and  C_26
REMARK    9  A    between atoms: C_27  and  C_28
REMARK   10  A    between atoms: C_28  and  O_30
REMARK   11  A    between atoms: O_30  and  C_31
REMARK                            x       y       z     vdW  Elec       q    Type
REMARK                         _______ _______ _______ _____ _____    ______ ____
ROOT
ATOM      1  N   UNL     1       0.225  11.355  20.463  0.00  0.00    +0.000 N 
ATOM      2  C   UNL     1       1.160  12.429  20.621  0.00  0.00    +0.000 C 
ATOM      3  O   UNL     1       2.220  12.271  21.217  0.00  0.00    +0.000 OA
ENDROOT
BRANCH   1   4
ATOM      4  C   UNL     1      -0.933  11.498  19.648  0.00  0.00    +0.000 A 
ATOM      5  C   UNL     1      -0.902  11.063  18.314  0.00  0.00    +0.000 A 
ATOM      6  C   UNL     1      -2.068  11.033  17.536  0.00  0.00    +0.000 A 
ATOM      7  C   UNL     1      -3.225  11.512  18.146  0.00  0.00    +0.000 A 
ATOM      8  O   UNL     1      -4.462  11.566  17.594  0.00  0.00    +0.000 OA
ATOM      9  C   UNL     1      -5.314  12.110  18.522  0.00  0.00    +0.000 A 
ATOM     10  C   UNL     1      -6.704  12.254  18.039  0.00  0.00    +0.000 C 
ATOM     11  C   UNL     1      -4.628  12.396  19.694  0.00  0.00    +0.000 A 
ATOM     12  C   UNL     1      -3.275  12.001  19.439  0.00  0.00    +0.000 A 
ATOM     13  C   UNL     1      -2.101  11.999  20.207  0.00  0.00    +0.000 A 
BRANCH  11  14
ATOM     14  C   UNL     1      -5.036  12.964  20.974  0.00  0.00    +0.000 C 
ATOM     15  O   UNL     1      -4.786  14.134  21.257  0.00  0.00    +0.000 OA
BRANCH  14  16
ATOM     16  O   UNL     1      -5.686  12.132  21.835  0.00  0.00    +0.000 OA
ATOM     17  C   UNL     1      -6.942  12.706  22.228  0.00  0.00    +0.000 C 
ENDBRANCH  14  16
ENDBRANCH  11  14
ENDBRANCH   1   4
BRANCH   2  18
ATOM     18  C   UNL     1       0.955  13.797  19.993  0.00  0.00    +0.000 A 
ATOM     19  C   UNL     1       1.442  14.225  18.761  0.00  0.00    +0.000 A 
ATOM     20  C   UNL     1       1.316  15.551  18.388  0.00  0.00    +0.000 A 
ATOM     21  N   UNL     1       0.654  16.463  19.119  0.00  0.00    +0.000 NA
ATOM     22  C   UNL     1       0.081  16.022  20.254  0.00  0.00    +0.000 A 
ATOM     23  C   UNL     1       0.208  14.723  20.728  0.00  0.00    +0.000 A 
ENDBRANCH   2  18
BRANCH   1  24
ATOM     24  S   UNL     1       0.466   9.784  21.092  0.00  0.00    +0.000 S 
ATOM     25  O   UNL     1      -0.836   9.145  21.209  0.00  0.00    +0.000 OA
ATOM     26  O   UNL     1       1.342   9.860  22.244  0.00  0.00    +0.000 OA
BRANCH  24  30
ATOM     27  C   UNL     1       3.055   7.233  18.265  0.00  0.00    +0.000 A 
ATOM     28  C   UNL     1       2.532   8.440  17.790  0.00  0.00    +0.000 A 
ATOM     29  C   UNL     1       1.703   9.238  18.598  0.00  0.00    +0.000 A 
ATOM     30  C   UNL     1       1.357   8.796  19.874  0.00  0.00    +0.000 A 
ATOM     31  C   UNL     1       1.785   7.525  20.299  0.00  0.00    +0.000 A 
ATOM     32  C   UNL     1       2.630   6.746  19.498  0.00  0.00    +0.000 A 
BRANCH  27  33
ATOM     33  O   UNL     1       3.980   6.621  17.461  0.00  0.00    +0.000 OA
BRANCH  33  35
ATOM     34  C   UNL     1       5.050   4.487  17.792  0.00  0.00    +0.000 C 
ATOM     35  C   UNL     1       3.799   5.209  17.290  0.00  0.00    +0.000 C 
ENDBRANCH  33  35
ENDBRANCH  27  33
ENDBRANCH  24  30
ENDBRANCH   1  24
TORSDOF 8
ENDMDL
MODEL 5
REMARK VINA RESULT:      -6.7      1.277      2.741
REMARK  Name = 
REMARK  11 active torsions:
REMARK  status: ('A' for Active; 'I' for Inactive)
REMARK    1  A    between atoms: C_1  and  C_2
REMARK    2  A    between atoms: C_2  and  O_3
REMARK    3  A    between atoms: O_3  and  C_4
REMARK    4  A    between atoms: C_7  and  S_8
REMARK    5  A    between atoms: S_8  and  N_11
REMARK    6  A    between atoms: N_11  and  C_20
REMARK    7  A    between atoms: C_12  and  C_14
REMARK    8  A    between atoms: C_25  and  C_26
REMARK    9  A    between atoms: C_27  and  C_28
REMARK   10  A    between atoms: C_28  and  O_30
REMARK   11  A    between atoms: O_30  and  C_31
REMARK                            x       y       z     vdW  Elec       q    Type
REMARK                         _______ _______ _______ _____ _____    ______ ____
ROOT
ATOM      1  N   UNL     1       0.152  11.493  20.487  0.00  0.00    +0.000 N 
ATOM      2  C   UNL     1       1.065  12.580  20.675  0.00  0.00    +0.000 C 
ATOM      3  O   UNL     1       2.118  12.432  21.286  0.00  0.00    +0.000 OA
ENDROOT
BRANCH   1   4
ATOM      4  C   UNL     1      -0.996  11.626  19.656  0.00  0.00    +0.000 A 
ATOM      5  C   UNL     1      -0.932  11.222  18.314  0.00  0.00    +0.000 A 
ATOM      6  C   UNL     1      -2.084  11.181  17.516  0.00  0.00    +0.000 A 
ATOM      7  C   UNL     1      -3.263  11.621  18.116  0.00  0.00    +0.000 A 
ATOM      8  O   UNL     1      -4.491  11.659  17.543  0.00  0.00    +0.000 OA
ATOM      9  C   UNL     1      -5.371  12.162  18.468  0.00  0.00    +0.000 A 
ATOM     10  C   UNL     1      -6.756  12.285  17.964  0.00  0.00    +0.000 C 
ATOM     11  C   UNL     1      -4.711  12.439  19.658  0.00  0.00    +0.000 A 
ATOM     12  C   UNL     1      -3.345  12.081  19.417  0.00  0.00    +0.000 A 
ATOM     13  C   UNL     1      -2.185  12.089  20.205  0.00  0.00    +0.000 A 
BRANCH  11  14
ATOM     14  C   UNL     1      -5.153  12.969  20.942  0.00  0.00    +0.000 C 
ATOM     15  O   UNL     1      -5.442  12.218  21.872  0.00  0.00    +0.000 OA
BRANCH  14  16
ATOM     16  O   UNL     1      -5.245  14.324  21.049  0.00  0.00    +0.000 OA
ATOM     17  C   UNL     1      -4.173  14.832  21.857  0.00  0.00    +0.000 C 
ENDBRANCH  14  16
ENDBRANCH  11  14
ENDBRANCH   1   4
BRANCH   2  18
ATOM     18  C   UNL     1       0.846  13.953  20.061  0.00  0.00    +0.000 A 
ATOM     19  C   UNL     1      -0.146  14.867  20.408  0.00  0.00    +0.000 A 
ATOM     20  C   UNL     1      -0.329  16.012  19.654  0.00  0.00    +0.000 A 
ATOM     21  N   UNL     1       0.470  16.356  18.630  0.00  0.00    +0.000 NA
ATOM     22  C   UNL     1       1.501  15.531  18.369  0.00  0.00    +0.000 A 
ATOM     23  C   UNL     1       1.721  14.335  19.040  0.00  0.00    +0.000 A 
ENDBRANCH   2  18
BRANCH   1  24
ATOM     24  S   UNL     1       0.410   9.918  21.100  0.00  0.00    +0.000 S 
ATOM     25  O   UNL     1      -0.888   9.273  21.237  0.00  0.00    +0.000 OA
ATOM     26  O   UNL     1       1.308   9.989  22.235  0.00  0.00    +0.000 OA
BRANCH  24  30
ATOM     27  C   UNL     1       2.957   7.407  18.200  0.00  0.00    +0.000 A 
ATOM     28  C   UNL     1       2.393   8.600  17.737  0.00  0.00    +0.000 A 
ATOM     29  C   UNL     1       1.574   9.385  18.568  0.00  0.00    +0.000 A 
ATOM     30  C   UNL     1       1.281   8.943  19.858  0.00  0.00    +0.000 A 
ATOM     31  C   UNL     1       1.749   7.683  20.274  0.00  0.00    +0.000 A 
ATOM     32  C   UNL     1       2.584   6.918  19.449  0.00  0.00    +0.000 A 
BRANCH  27  33
ATOM     33  O   UNL     1       3.868   6.810  17.369  0.00  0.00    +0.000 OA
BRANCH  33  35
ATOM     34  C   UNL     1       5.323   4.941  17.814  0.00  0.00    +0.000 C 
ATOM     35  C   UNL     1       3.907   5.379  17.436  0.00  0.00    +0.000 C 
ENDBRANCH  33  35
ENDBRANCH  27  33
ENDBRANCH  24  30
ENDBRANCH   1  24
TORSDOF 8
ENDMDL
MODEL 6
REMARK VINA RESULT:      -6.7      0.755      1.230
REMARK  Name = 
REMARK  11 active torsions:
REMARK  status: ('A' for Active; 'I' for Inactive)
REMARK    1  A    between atoms: C_1  and  C_2
REMARK    2  A    between atoms: C_2  and  O_3
REMARK    3  A    between atoms: O_3  and  C_4
REMARK    4  A    between atoms: C_7  and  S_8
REMARK    5  A    between atoms: S_8  and  N_11
REMARK    6  A    between atoms: N_11  and  C_20
REMARK    7  A    between atoms: C_12  and  C_14
REMARK    8  A    between atoms: C_25  and  C_26
REMARK    9  A    between atoms: C_27  and  C_28
REMARK   10  A    between atoms: C_28  and  O_30
REMARK   11  A    between atoms: O_30  and  C_31
REMARK                            x       y       z     vdW  Elec       q    Type
REMARK                         _______ _______ _______ _____ _____    ______ ____
ROOT
ATOM      1  N   UNL     1      -0.132  11.640  21.265  0.00  0.00    +0.000 N 
ATOM      2  C   UNL     1       0.823  12.676  21.007  0.00  0.00    +0.000 C 
ATOM      3  O   UNL     1       2.029  12.452  21.025  0.00  0.00    +0.000 OA
ENDROOT
BRANCH   1   4
ATOM      4  C   UNL     1      -1.528  11.863  21.100  0.00  0.00    +0.000 A 
ATOM      5  C   UNL     1      -2.272  12.416  22.154  0.00  0.00    +0.000 A 
ATOM      6  C   UNL     1      -3.606  12.805  21.970  0.00  0.00    +0.000 A 
ATOM      7  C   UNL     1      -4.152  12.552  20.714  0.00  0.00    +0.000 A 
ATOM      8  O   UNL     1      -5.410  12.851  20.308  0.00  0.00    +0.000 OA
ATOM      9  C   UNL     1      -5.545  12.431  19.009  0.00  0.00    +0.000 A 
ATOM     10  C   UNL     1      -6.890  12.673  18.444  0.00  0.00    +0.000 C 
ATOM     11  C   UNL     1      -4.358  11.867  18.561  0.00  0.00    +0.000 A 
ATOM     12  C   UNL     1      -3.462  11.955  19.675  0.00  0.00    +0.000 A 
ATOM     13  C   UNL     1      -2.120  11.597  19.873  0.00  0.00    +0.000 A 
BRANCH  11  14
ATOM     14  C   UNL     1      -3.952  11.281  17.289  0.00  0.00    +0.000 C 
ATOM     15  O   UNL     1      -4.346  11.748  16.222  0.00  0.00    +0.000 OA
BRANCH  14  16
ATOM     16  O   UNL     1      -3.135  10.192  17.348  0.00  0.00    +0.000 OA
ATOM     17  C   UNL     1      -2.716   9.814  16.028  0.00  0.00    +0.000 C 
ENDBRANCH  14  16
ENDBRANCH  11  14
ENDBRANCH   1   4
BRANCH   2  18
ATOM     18  C   UNL     1       0.420  14.085  20.609  0.00  0.00    +0.000 A 
ATOM     19  C   UNL     1       0.149  15.145  21.471  0.00  0.00    +0.000 A 
ATOM     20  C   UNL     1      -0.366  16.329  20.975  0.00  0.00    +0.000 A 
ATOM     21  N   UNL     1      -0.545  16.563  19.664  0.00  0.00    +0.000 NA
ATOM     22  C   UNL     1      -0.173  15.581  18.822  0.00  0.00    +0.000 A 
ATOM     23  C   UNL     1       0.298  14.343  19.240  0.00  0.00    +0.000 A 
ENDBRANCH   2  18
BRANCH   1  24
ATOM     24  S   UNL     1       0.293  10.026  21.639  0.00  0.00    +0.000 S 
ATOM     25  O   UNL     1      -0.936   9.285  21.880  0.00  0.00    +0.000 OA
ATOM     26  O   UNL     1       1.346  10.029  22.635  0.00  0.00    +0.000 OA
BRANCH  24  30
ATOM     27  C   UNL     1       2.506   8.048  18.119  0.00  0.00    +0.000 A 
ATOM     28  C   UNL     1       1.779   9.219  17.881  0.00  0.00    +0.000 A 
ATOM     29  C   UNL     1       1.052   9.842  18.912  0.00  0.00    +0.000 A 
ATOM     30  C   UNL     1       1.017   9.257  20.177  0.00  0.00    +0.000 A 
ATOM     31  C   UNL     1       1.648   8.016  20.377  0.00  0.00    +0.000 A 
ATOM     32  C   UNL     1       2.389   7.413  19.352  0.00  0.00    +0.000 A 
BRANCH  27  33
ATOM     33  O   UNL     1       3.308   7.621  17.094  0.00  0.00    +0.000 OA
BRANCH  33  35
ATOM     34  C   UNL     1       5.143   6.288  16.276  0.00  0.00    +0.000 C 
ATOM     35  C   UNL     1       4.105   6.465  17.385  0.00  0.00    +0.000 C 
ENDBRANCH  33  35
ENDBRANCH  27  33
ENDBRANCH  24  30
ENDBRANCH   1  24
TORSDOF 8
ENDMDL
MODEL 7
REMARK VINA RESULT:      -6.6      4.715      8.756
REMARK  Name = 
REMARK  11 active torsions:
REMARK  status: ('A' for Active; 'I' for Inactive)
REMARK    1  A    between atoms: C_1  and  C_2
REMARK    2  A    between atoms: C_2  and  O_3
REMARK    3  A    between atoms: O_3  and  C_4
REMARK    4  A    between atoms: C_7  and  S_8
REMARK    5  A    between atoms: S_8  and  N_11
REMARK    6  A    between atoms: N_11  and  C_20
REMARK    7  A    between atoms: C_12  and  C_14
REMARK    8  A    between atoms: C_25  and  C_26
REMARK    9  A    between atoms: C_27  and  C_28
REMARK   10  A    between atoms: C_28  and  O_30
REMARK   11  A    between atoms: O_30  and  C_31
REMARK                            x       y       z     vdW  Elec       q    Type
REMARK                         _______ _______ _______ _____ _____    ______ ____
ROOT
ATOM      1  N   UNL     1       4.981   5.127  18.389  0.00  0.00    +0.000 N 
ATOM      2  C   UNL     1       4.515   3.968  19.088  0.00  0.00    +0.000 C 
ATOM      3  O   UNL     1       5.266   3.034  19.350  0.00  0.00    +0.000 OA
ENDROOT
BRANCH   1   4
ATOM      4  C   UNL     1       4.149   6.270  18.215  0.00  0.00    +0.000 A 
ATOM      5  C   UNL     1       4.080   6.894  16.960  0.00  0.00    +0.000 A 
ATOM      6  C   UNL     1       3.150   7.912  16.710  0.00  0.00    +0.000 A 
ATOM      7  C   UNL     1       2.356   8.297  17.788  0.00  0.00    +0.000 A 
ATOM      8  O   UNL     1       1.387   9.245  17.776  0.00  0.00    +0.000 OA
ATOM      9  C   UNL     1       0.855   9.320  19.038  0.00  0.00    +0.000 A 
ATOM     10  C   UNL     1      -0.204  10.343  19.177  0.00  0.00    +0.000 C 
ATOM     11  C   UNL     1       1.473   8.400  19.875  0.00  0.00    +0.000 A 
ATOM     12  C   UNL     1       2.442   7.741  19.051  0.00  0.00    +0.000 A 
ATOM     13  C   UNL     1       3.363   6.707  19.273  0.00  0.00    +0.000 A 
BRANCH  11  14
ATOM     14  C   UNL     1       1.296   8.057  21.281  0.00  0.00    +0.000 C 
ATOM     15  O   UNL     1       0.903   6.941  21.616  0.00  0.00    +0.000 OA
BRANCH  14  16
ATOM     16  O   UNL     1       1.570   9.033  22.191  0.00  0.00    +0.000 OA
ATOM     17  C   UNL     1       0.364   9.453  22.848  0.00  0.00    +0.000 C 
ENDBRANCH  14  16
ENDBRANCH  11  14
ENDBRANCH   1   4
BRANCH   2  18
ATOM     18  C   UNL     1       3.101   3.848  19.632  0.00  0.00    +0.000 A 
ATOM     19  C   UNL     1       2.713   3.955  20.965  0.00  0.00    +0.000 A 
ATOM     20  C   UNL     1       1.414   3.662  21.336  0.00  0.00    +0.000 A 
ATOM     21  N   UNL     1       0.446   3.359  20.454  0.00  0.00    +0.000 NA
ATOM     22  C   UNL     1       0.793   3.372  19.153  0.00  0.00    +0.000 A 
ATOM     23  C   UNL     1       2.087   3.599  18.702  0.00  0.00    +0.000 A 
ENDBRANCH   2  18
BRANCH   1  24
ATOM     24  S   UNL     1       6.586   5.322  17.834  0.00  0.00    +0.000 S 
ATOM     25  O   UNL     1       7.437   4.429  18.605  0.00  0.00    +0.000 OA
ATOM     26  O   UNL     1       6.896   6.736  17.759  0.00  0.00    +0.000 OA
BRANCH  24  30
ATOM     27  C   UNL     1       6.728   4.152  13.382  0.00  0.00    +0.000 A 
ATOM     28  C   UNL     1       6.055   3.312  14.276  0.00  0.00    +0.000 A 
ATOM     29  C   UNL     1       6.015   3.601  15.651  0.00  0.00    +0.000 A 
ATOM     30  C   UNL     1       6.697   4.716  16.139  0.00  0.00    +0.000 A 
ATOM     31  C   UNL     1       7.474   5.486  15.254  0.00  0.00    +0.000 A 
ATOM     32  C   UNL     1       7.490   5.205  13.881  0.00  0.00    +0.000 A 
BRANCH  27  33
ATOM     33  O   UNL     1       6.564   3.869  12.052  0.00  0.00    +0.000 OA
BRANCH  33  35
ATOM     34  C   UNL     1       4.336   3.286  11.340  0.00  0.00    +0.000 C 
ATOM     35  C   UNL     1       5.706   2.757  11.767  0.00  0.00    +0.000 C 
ENDBRANCH  33  35
ENDBRANCH  27  33
ENDBRANCH  24  30
ENDBRANCH   1  24
TORSDOF 8
ENDMDL
MODEL 8
REMARK VINA RESULT:      -6.6      3.136      5.781
REMARK  Name = 
REMARK  11 active torsions:
REMARK  status: ('A' for Active; 'I' for Inactive)
REMARK    1  A    between atoms: C_1  and  C_2
REMARK    2  A    between atoms: C_2  and  O_3
REMARK    3  A    between atoms: O_3  and  C_4
REMARK    4  A    between atoms: C_7  and  S_8
REMARK    5  A    between atoms: S_8  and  N_11
REMARK    6  A    between atoms: N_11  and  C_20
REMARK    7  A    between atoms: C_12  and  C_14
REMARK    8  A    between atoms: C_25  and  C_26
REMARK    9  A    between atoms: C_27  and  C_28
REMARK   10  A    between atoms: C_28  and  O_30
REMARK   11  A    between atoms: O_30  and  C_31
REMARK                            x       y       z     vdW  Elec       q    Type
REMARK                         _______ _______ _______ _____ _____    ______ ____
ROOT
ATOM      1  N   UNL     1      -0.160  13.484  20.101  0.00  0.00    +0.000 N 
ATOM      2  C   UNL     1       0.573  12.736  21.078  0.00  0.00    +0.000 C 
ATOM      3  O   UNL     1       1.473  13.251  21.734  0.00  0.00    +0.000 OA
ENDROOT
BRANCH   1   4
ATOM      4  C   UNL     1      -1.297  12.931  19.447  0.00  0.00    +0.000 A 
ATOM      5  C   UNL     1      -1.137  12.260  18.225  0.00  0.00    +0.000 A 
ATOM      6  C   UNL     1      -2.202  11.561  17.640  0.00  0.00    +0.000 A 
ATOM      7  C   UNL     1      -3.422  11.628  18.309  0.00  0.00    +0.000 A 
ATOM      8  O   UNL     1      -4.577  11.024  17.938  0.00  0.00    +0.000 OA
ATOM      9  C   UNL     1      -5.539  11.349  18.861  0.00  0.00    +0.000 A 
ATOM     10  C   UNL     1      -6.868  10.774  18.562  0.00  0.00    +0.000 C 
ATOM     11  C   UNL     1      -4.999  12.159  19.851  0.00  0.00    +0.000 A 
ATOM     12  C   UNL     1      -3.625  12.329  19.483  0.00  0.00    +0.000 A 
ATOM     13  C   UNL     1      -2.539  13.001  20.064  0.00  0.00    +0.000 A 
BRANCH  11  14
ATOM     14  C   UNL     1      -5.557  12.774  21.049  0.00  0.00    +0.000 C 
ATOM     15  O   UNL     1      -5.373  12.279  22.160  0.00  0.00    +0.000 OA
BRANCH  14  16
ATOM     16  O   UNL     1      -6.299  13.903  20.872  0.00  0.00    +0.000 OA
ATOM     17  C   UNL     1      -5.611  15.039  21.415  0.00  0.00    +0.000 C 
ENDBRANCH  14  16
ENDBRANCH  11  14
ENDBRANCH   1   4
BRANCH   2  18
ATOM     18  C   UNL     1       0.236  11.298  21.435  0.00  0.00    +0.000 A 
ATOM     19  C   UNL     1      -0.559  10.872  22.496  0.00  0.00    +0.000 A 
ATOM     20  C   UNL     1      -0.647   9.526  22.800  0.00  0.00    +0.000 A 
ATOM     21  N   UNL     1      -0.070   8.564  22.061  0.00  0.00    +0.000 NA
ATOM     22  C   UNL     1       0.603   8.969  20.967  0.00  0.00    +0.000 A 
ATOM     23  C   UNL     1       0.786  10.302  20.624  0.00  0.00    +0.000 A 
ENDBRANCH   2  18
BRANCH   1  24
ATOM     24  S   UNL     1       0.145  15.126  19.734  0.00  0.00    +0.000 S 
ATOM     25  O   UNL     1      -0.149  15.912  20.922  0.00  0.00    +0.000 OA
ATOM     26  O   UNL     1      -0.484  15.457  18.471  0.00  0.00    +0.000 OA
BRANCH  24  30
ATOM     27  C   UNL     1       4.704  15.269  19.100  0.00  0.00    +0.000 A 
ATOM     28  C   UNL     1       4.126  16.152  20.019  0.00  0.00    +0.000 A 
ATOM     29  C   UNL     1       2.735  16.177  20.222  0.00  0.00    +0.000 A 
ATOM     30  C   UNL     1       1.915  15.345  19.461  0.00  0.00    +0.000 A 
ATOM     31  C   UNL     1       2.490  14.550  18.453  0.00  0.00    +0.000 A 
ATOM     32  C   UNL     1       3.879  14.513  18.273  0.00  0.00    +0.000 A 
BRANCH  27  33
ATOM     33  O   UNL     1       6.072  15.211  19.103  0.00  0.00    +0.000 OA
BRANCH  33  35
ATOM     34  C   UNL     1       8.074  15.435  17.778  0.00  0.00    +0.000 C 
ATOM     35  C   UNL     1       6.668  14.838  17.853  0.00  0.00    +0.000 C 
ENDBRANCH  33  35
ENDBRANCH  27  33
ENDBRANCH  24  30
ENDBRANCH   1  24
TORSDOF 8
ENDMDL
MODEL 9
REMARK VINA RESULT:      -6.6      1.198      2.819
REMARK  Name = 
REMARK  11 active torsions:
REMARK  status: ('A' for Active; 'I' for Inactive)
REMARK    1  A    between atoms: C_1  and  C_2
REMARK    2  A    between atoms: C_2  and  O_3
REMARK    3  A    between atoms: O_3  and  C_4
REMARK    4  A    between atoms: C_7  and  S_8
REMARK    5  A    between atoms: S_8  and  N_11
REMARK    6  A    between atoms: N_11  and  C_20
REMARK    7  A    between atoms: C_12  and  C_14
REMARK    8  A    between atoms: C_25  and  C_26
REMARK    9  A    between atoms: C_27  and  C_28
REMARK   10  A    between atoms: C_28  and  O_30
REMARK   11  A    between atoms: O_30  and  C_31
REMARK                            x       y       z     vdW  Elec       q    Type
REMARK                         _______ _______ _______ _____ _____    ______ ____
ROOT
ATOM      1  N   UNL     1       0.028  11.484  20.511  0.00  0.00    +0.000 N 
ATOM      2  C   UNL     1       1.000  12.526  20.666  0.00  0.00    +0.000 C 
ATOM      3  O   UNL     1       2.039  12.343  21.291  0.00  0.00    +0.000 OA
ENDROOT
BRANCH   1   4
ATOM      4  C   UNL     1      -1.105  11.649  19.666  0.00  0.00    +0.000 A 
ATOM      5  C   UNL     1      -1.005  11.338  18.301  0.00  0.00    +0.000 A 
ATOM      6  C   UNL     1      -2.139  11.327  17.477  0.00  0.00    +0.000 A 
ATOM      7  C   UNL     1      -3.339  11.700  18.079  0.00  0.00    +0.000 A 
ATOM      8  O   UNL     1      -4.556  11.751  17.484  0.00  0.00    +0.000 OA
ATOM      9  C   UNL     1      -5.465  12.173  18.421  0.00  0.00    +0.000 A 
ATOM     10  C   UNL     1      -6.842  12.300  17.896  0.00  0.00    +0.000 C 
ATOM     11  C   UNL     1      -4.836  12.382  19.641  0.00  0.00    +0.000 A 
ATOM     12  C   UNL     1      -3.458  12.069  19.407  0.00  0.00    +0.000 A 
ATOM     13  C   UNL     1      -2.314  12.049  20.219  0.00  0.00    +0.000 A 
BRANCH  11  14
ATOM     14  C   UNL     1      -5.316  12.815  20.948  0.00  0.00    +0.000 C 
ATOM     15  O   UNL     1      -5.943  12.049  21.678  0.00  0.00    +0.000 OA
BRANCH  14  16
ATOM     16  O   UNL     1      -5.051  14.102  21.305  0.00  0.00    +0.000 OA
ATOM     17  C   UNL     1      -5.217  14.270  22.721  0.00  0.00    +0.000 C 
ENDBRANCH  14  16
ENDBRANCH  11  14
ENDBRANCH   1   4
BRANCH   2  18
ATOM     18  C   UNL     1       0.860  13.884  20.000  0.00  0.00    +0.000 A 
ATOM     19  C   UNL     1       1.449  14.285  18.803  0.00  0.00    +0.000 A 
ATOM     20  C   UNL     1       1.369  15.605  18.399  0.00  0.00    +0.000 A 
ATOM     21  N   UNL     1       0.662  16.537  19.060  0.00  0.00    +0.000 NA
ATOM     22  C   UNL     1      -0.004  16.123  20.154  0.00  0.00    +0.000 A 
ATOM     23  C   UNL     1       0.070  14.831  20.658  0.00  0.00    +0.000 A 
ENDBRANCH   2  18
BRANCH   1  24
ATOM     24  S   UNL     1       0.195   9.921  21.184  0.00  0.00    +0.000 S 
ATOM     25  O   UNL     1      -1.095   9.255  21.091  0.00  0.00    +0.000 OA
ATOM     26  O   UNL     1       0.870  10.021  22.462  0.00  0.00    +0.000 OA
BRANCH  24  30
ATOM     27  C   UNL     1       2.692   7.436  18.218  0.00  0.00    +0.000 A 
ATOM     28  C   UNL     1       2.541   6.966  19.526  0.00  0.00    +0.000 A 
ATOM     29  C   UNL     1       1.822   7.704  20.483  0.00  0.00    +0.000 A 
ATOM     30  C   UNL     1       1.293   8.947  20.135  0.00  0.00    +0.000 A 
ATOM     31  C   UNL     1       1.555   9.470  18.856  0.00  0.00    +0.000 A 
ATOM     32  C   UNL     1       2.251   8.718  17.901  0.00  0.00    +0.000 A 
BRANCH  27  33
ATOM     33  O   UNL     1       3.263   6.565  17.328  0.00  0.00    +0.000 OA
BRANCH  33  35
ATOM     34  C   UNL     1       5.251   5.523  16.449  0.00  0.00    +0.000 C 
ATOM     35  C   UNL     1       4.654   6.789  17.065  0.00  0.00    +0.000 C 
ENDBRANCH  33  35
ENDBRANCH  27  33
ENDBRANCH  24  30
ENDBRANCH   1  24
TORSDOF 8
ENDMDL
