MODEL 1
REMARK VINA RESULT:      -8.7      0.000      0.000
REMARK  Name = 
REMARK  11 active torsions:
REMARK  status: ('A' for Active; 'I' for Inactive)
REMARK    1  A    between atoms: C_1  and  C_2
REMARK    2  A    between atoms: C_2  and  C_3
REMARK    3  A    between atoms: C_2  and  C_4
REMARK    4  A    between atoms: C_9  and  C_10
REMARK    5  A    between atoms: C_13  and  N_14
REMARK    6  A    between atoms: N_14  and  C_15
REMARK    7  A    between atoms: N_14  and  C_16
REMARK    8  A    between atoms: C_17  and  N_18
REMARK    9  A    between atoms: N_18  and  C_19
REMARK   10  A    between atoms: C_19  and  C_20
REMARK   11  A    between atoms: C_23  and  C_24
REMARK                            x       y       z     vdW  Elec       q    Type
REMARK                         _______ _______ _______ _____ _____    ______ ____
ROOT
ATOM      1  C   UNL     1       4.516   4.304  17.450  0.00  0.00    +0.000 A 
ATOM      2  N   UNL     1       4.134   3.037  17.612  0.00  0.00    +0.000 NA
ATOM      3  C   UNL     1       3.302   2.801  18.654  0.00  0.00    +0.000 A 
ATOM      4  C   UNL     1       2.785   3.730  19.566  0.00  0.00    +0.000 A 
ATOM      5  C   UNL     1       3.297   5.019  19.302  0.00  0.00    +0.000 A 
ATOM      6  N   UNL     1       4.156   5.278  18.283  0.00  0.00    +0.000 NA
ENDROOT
BRANCH   1  12
ATOM      7  C   UNL     1       6.603   5.488  16.482  0.00  0.00    +0.000 A 
ATOM      8  C   UNL     1       7.455   5.643  15.360  0.00  0.00    +0.000 A 
ATOM      9  C   UNL     1       7.235   4.959  14.167  0.00  0.00    +0.000 A 
ATOM     10  C   UNL     1       6.139   4.123  14.049  0.00  0.00    +0.000 A 
ATOM     11  C   UNL     1       5.276   3.963  15.130  0.00  0.00    +0.000 A 
ATOM     12  C   UNL     1       5.479   4.616  16.372  0.00  0.00    +0.000 A 
BRANCH   7  14
ATOM     13  C   UNL     1       7.828   5.475  18.704  0.00  0.00    +0.000 C 
ATOM     14  C   UNL     1       6.951   6.291  17.740  0.00  0.00    +0.000 C 
ATOM     15  C   UNL     1       7.625   7.629  17.414  0.00  0.00    +0.000 C 
ENDBRANCH   7  14
ENDBRANCH   1  12
BRANCH   4  16
ATOM     16  N   UNL     1       1.860   3.335  20.542  0.00  0.00    +0.000 N 
ATOM     17  C   UNL     1       0.478   3.042  20.127  0.00  0.00    +0.000 C 
ATOM     18  C   UNL     1       2.218   2.688  21.801  0.00  0.00    +0.000 C 
ENDBRANCH   4  16
BRANCH   5  19
ATOM     19  N   UNL     1       2.909   6.167  20.037  0.00  0.00    +0.000 N 
ATOM     20  H   UNL     1       2.097   5.883  20.584  0.00  0.00    +0.000 HD
BRANCH  19  21
ATOM     21  C   UNL     1       2.583   7.296  19.157  0.00  0.00    +0.000 C 
BRANCH  21  22
ATOM     22  C   UNL     1       1.620   8.295  19.752  0.00  0.00    +0.000 A 
ATOM     23  C   UNL     1       1.196   8.259  21.076  0.00  0.00    +0.000 A 
ATOM     24  C   UNL     1       0.346   9.248  21.573  0.00  0.00    +0.000 A 
ATOM     25  C   UNL     1      -0.085  10.330  20.782  0.00  0.00    +0.000 A 
ATOM     26  C   UNL     1       0.350  10.356  19.448  0.00  0.00    +0.000 A 
ATOM     27  C   UNL     1       1.183   9.357  18.940  0.00  0.00    +0.000 A 
BRANCH  25  28
ATOM     28  C   UNL     1      -0.948  11.389  21.344  0.00  0.00    +0.000 A 
ATOM     29  C   UNL     1      -1.770  12.185  20.530  0.00  0.00    +0.000 A 
ATOM     30  C   UNL     1      -2.549  13.203  21.076  0.00  0.00    +0.000 A 
ATOM     31  C   UNL     1      -2.507  13.396  22.444  0.00  0.00    +0.000 A 
ATOM     32  N   UNL     1      -1.753  12.652  23.278  0.00  0.00    +0.000 NA
ATOM     33  C   UNL     1      -0.996  11.680  22.710  0.00  0.00    +0.000 A 
ENDBRANCH  25  28
ENDBRANCH  21  22
ENDBRANCH  19  21
ENDBRANCH   5  19
TORSDOF 7
ENDMDL
MODEL 2
REMARK VINA RESULT:      -8.6      0.598      1.089
REMARK  Name = 
REMARK  11 active torsions:
REMARK  status: ('A' for Active; 'I' for Inactive)
REMARK    1  A    between atoms: C_1  and  C_2
REMARK    2  A    between atoms: C_2  and  C_3
REMARK    3  A    between atoms: C_2  and  C_4
REMARK    4  A    between atoms: C_9  and  C_10
REMARK    5  A    between atoms: C_13  and  N_14
REMARK    6  A    between atoms: N_14  and  C_15
REMARK    7  A    between atoms: N_14  and  C_16
REMARK    8  A    between atoms: C_17  and  N_18
REMARK    9  A    between atoms: N_18  and  C_19
REMARK   10  A    between atoms: C_19  and  C_20
REMARK   11  A    between atoms: C_23  and  C_24
REMARK                            x       y       z     vdW  Elec       q    Type
REMARK                         _______ _______ _______ _____ _____    ______ ____
ROOT
ATOM      1  C   UNL     1       4.573   4.038  17.392  0.00  0.00    +0.000 A 
ATOM      2  N   UNL     1       4.273   2.747  17.537  0.00  0.00    +0.000 NA
ATOM      3  C   UNL     1       3.449   2.446  18.568  0.00  0.00    +0.000 A 
ATOM      4  C   UNL     1       2.866   3.329  19.487  0.00  0.00    +0.000 A 
ATOM      5  C   UNL     1       3.296   4.651  19.241  0.00  0.00    +0.000 A 
ATOM      6  N   UNL     1       4.145   4.977  18.233  0.00  0.00    +0.000 NA
ENDROOT
BRANCH   1  12
ATOM      7  C   UNL     1       6.632   5.309  16.475  0.00  0.00    +0.000 A 
ATOM      8  C   UNL     1       7.473   5.539  15.358  0.00  0.00    +0.000 A 
ATOM      9  C   UNL     1       7.257   4.915  14.132  0.00  0.00    +0.000 A 
ATOM     10  C   UNL     1       6.176   4.067  13.976  0.00  0.00    +0.000 A 
ATOM     11  C   UNL     1       5.323   3.833  15.053  0.00  0.00    +0.000 A 
ATOM     12  C   UNL     1       5.523   4.424  16.326  0.00  0.00    +0.000 A 
BRANCH   7  14
ATOM     13  C   UNL     1       7.910   5.221  18.665  0.00  0.00    +0.000 C 
ATOM     14  C   UNL     1       6.974   6.051  17.772  0.00  0.00    +0.000 C 
ATOM     15  C   UNL     1       7.578   7.437  17.513  0.00  0.00    +0.000 C 
ENDBRANCH   7  14
ENDBRANCH   1  12
BRANCH   4  16
ATOM     16  N   UNL     1       1.961   2.864  20.449  0.00  0.00    +0.000 N 
ATOM     17  C   UNL     1       2.452   2.608  21.814  0.00  0.00    +0.000 C 
ATOM     18  C   UNL     1       0.520   3.094  20.404  0.00  0.00    +0.000 C 
ENDBRANCH   4  16
BRANCH   5  19
ATOM     19  N   UNL     1       2.829   5.763  19.986  0.00  0.00    +0.000 N 
ATOM     20  H   UNL     1       1.912   5.493  20.339  0.00  0.00    +0.000 HD
BRANCH  19  21
ATOM     21  C   UNL     1       2.739   6.974  19.162  0.00  0.00    +0.000 C 
BRANCH  21  22
ATOM     22  C   UNL     1       1.792   8.024  19.693  0.00  0.00    +0.000 A 
ATOM     23  C   UNL     1       1.270   8.006  20.982  0.00  0.00    +0.000 A 
ATOM     24  C   UNL     1       0.443   9.039  21.423  0.00  0.00    +0.000 A 
ATOM     25  C   UNL     1       0.131  10.147  20.611  0.00  0.00    +0.000 A 
ATOM     26  C   UNL     1       0.665  10.154  19.313  0.00  0.00    +0.000 A 
ATOM     27  C   UNL     1       1.476   9.111  18.859  0.00  0.00    +0.000 A 
BRANCH  25  28
ATOM     28  C   UNL     1      -0.711  11.250  21.117  0.00  0.00    +0.000 A 
ATOM     29  C   UNL     1      -0.822  11.528  22.489  0.00  0.00    +0.000 A 
ATOM     30  C   UNL     1      -1.650  12.550  22.948  0.00  0.00    +0.000 A 
ATOM     31  C   UNL     1      -2.346  13.297  22.015  0.00  0.00    +0.000 A 
ATOM     32  N   UNL     1      -2.265  13.089  20.686  0.00  0.00    +0.000 NA
ATOM     33  C   UNL     1      -1.461  12.076  20.275  0.00  0.00    +0.000 A 
ENDBRANCH  25  28
ENDBRANCH  21  22
ENDBRANCH  19  21
ENDBRANCH   5  19
TORSDOF 7
ENDMDL
MODEL 3
REMARK VINA RESULT:      -8.5      0.705      1.294
REMARK  Name = 
REMARK  11 active torsions:
REMARK  status: ('A' for Active; 'I' for Inactive)
REMARK    1  A    between atoms: C_1  and  C_2
REMARK    2  A    between atoms: C_2  and  C_3
REMARK    3  A    between atoms: C_2  and  C_4
REMARK    4  A    between atoms: C_9  and  C_10
REMARK    5  A    between atoms: C_13  and  N_14
REMARK    6  A    between atoms: N_14  and  C_15
REMARK    7  A    between atoms: N_14  and  C_16
REMARK    8  A    between atoms: C_17  and  N_18
REMARK    9  A    between atoms: N_18  and  C_19
REMARK   10  A    between atoms: C_19  and  C_20
REMARK   11  A    between atoms: C_23  and  C_24
REMARK                            x       y       z     vdW  Elec       q    Type
REMARK                         _______ _______ _______ _____ _____    ______ ____
ROOT
ATOM      1  C   UNL     1       4.474   4.190  17.076  0.00  0.00    +0.000 A 
ATOM      2  N   UNL     1       4.478   2.959  17.588  0.00  0.00    +0.000 NA
ATOM      3  C   UNL     1       3.566   2.723  18.561  0.00  0.00    +0.000 A 
ATOM      4  C   UNL     1       2.613   3.612  19.077  0.00  0.00    +0.000 A 
ATOM      5  C   UNL     1       2.746   4.882  18.475  0.00  0.00    +0.000 A 
ATOM      6  N   UNL     1       3.671   5.154  17.519  0.00  0.00    +0.000 NA
ENDROOT
BRANCH   1  12
ATOM      7  C   UNL     1       6.611   5.394  16.252  0.00  0.00    +0.000 A 
ATOM      8  C   UNL     1       7.520   5.580  15.181  0.00  0.00    +0.000 A 
ATOM      9  C   UNL     1       7.359   4.933  13.957  0.00  0.00    +0.000 A 
ATOM     10  C   UNL     1       6.269   4.106  13.757  0.00  0.00    +0.000 A 
ATOM     11  C   UNL     1       5.351   3.916  14.788  0.00  0.00    +0.000 A 
ATOM     12  C   UNL     1       5.492   4.530  16.058  0.00  0.00    +0.000 A 
BRANCH   7  14
ATOM     13  C   UNL     1       7.725   5.310  18.530  0.00  0.00    +0.000 C 
ATOM     14  C   UNL     1       6.897   6.157  17.550  0.00  0.00    +0.000 C 
ATOM     15  C   UNL     1       7.585   7.504  17.300  0.00  0.00    +0.000 C 
ENDBRANCH   7  14
ENDBRANCH   1  12
BRANCH   4  16
ATOM     16  N   UNL     1       1.678   3.184  20.028  0.00  0.00    +0.000 N 
ATOM     17  C   UNL     1       0.478   2.467  19.565  0.00  0.00    +0.000 C 
ATOM     18  C   UNL     1       1.994   2.906  21.426  0.00  0.00    +0.000 C 
ENDBRANCH   4  16
BRANCH   5  19
ATOM     19  N   UNL     1       1.881   5.967  18.768  0.00  0.00    +0.000 N 
ATOM     20  H   UNL     1       1.427   6.204  17.887  0.00  0.00    +0.000 HD
BRANCH  19  21
ATOM     21  C   UNL     1       2.613   7.118  19.310  0.00  0.00    +0.000 C 
BRANCH  21  22
ATOM     22  C   UNL     1       1.734   8.238  19.813  0.00  0.00    +0.000 A 
ATOM     23  C   UNL     1       1.354   9.325  19.033  0.00  0.00    +0.000 A 
ATOM     24  C   UNL     1       0.493  10.297  19.548  0.00  0.00    +0.000 A 
ATOM     25  C   UNL     1      -0.049  10.205  20.845  0.00  0.00    +0.000 A 
ATOM     26  C   UNL     1       0.342   9.102  21.621  0.00  0.00    +0.000 A 
ATOM     27  C   UNL     1       1.220   8.139  21.118  0.00  0.00    +0.000 A 
BRANCH  25  28
ATOM     28  C   UNL     1      -0.992  11.222  21.350  0.00  0.00    +0.000 A 
ATOM     29  C   UNL     1      -1.182  11.440  22.724  0.00  0.00    +0.000 A 
ATOM     30  C   UNL     1      -2.103  12.379  23.180  0.00  0.00    +0.000 A 
ATOM     31  C   UNL     1      -2.814  13.107  22.244  0.00  0.00    +0.000 A 
ATOM     32  N   UNL     1      -2.661  12.956  20.913  0.00  0.00    +0.000 NA
ATOM     33  C   UNL     1      -1.767  12.022  20.504  0.00  0.00    +0.000 A 
ENDBRANCH  25  28
ENDBRANCH  21  22
ENDBRANCH  19  21
ENDBRANCH   5  19
TORSDOF 7
ENDMDL
MODEL 4
REMARK VINA RESULT:      -8.4      2.774      4.550
REMARK  Name = 
REMARK  11 active torsions:
REMARK  status: ('A' for Active; 'I' for Inactive)
REMARK    1  A    between atoms: C_1  and  C_2
REMARK    2  A    between atoms: C_2  and  C_3
REMARK    3  A    between atoms: C_2  and  C_4
REMARK    4  A    between atoms: C_9  and  C_10
REMARK    5  A    between atoms: C_13  and  N_14
REMARK    6  A    between atoms: N_14  and  C_15
REMARK    7  A    between atoms: N_14  and  C_16
REMARK    8  A    between atoms: C_17  and  N_18
REMARK    9  A    between atoms: N_18  and  C_19
REMARK   10  A    between atoms: C_19  and  C_20
REMARK   11  A    between atoms: C_23  and  C_24
REMARK                            x       y       z     vdW  Elec       q    Type
REMARK                         _______ _______ _______ _____ _____    ______ ____
ROOT
ATOM      1  C   UNL     1       2.969   6.516  18.668  0.00  0.00    +0.000 A 
ATOM      2  N   UNL     1       2.704   5.881  19.810  0.00  0.00    +0.000 NA
ATOM      3  C   UNL     1       1.991   6.583  20.722  0.00  0.00    +0.000 A 
ATOM      4  C   UNL     1       1.488   7.885  20.601  0.00  0.00    +0.000 A 
ATOM      5  C   UNL     1       1.871   8.449  19.365  0.00  0.00    +0.000 A 
ATOM      6  N   UNL     1       2.611   7.779  18.444  0.00  0.00    +0.000 NA
ENDROOT
BRANCH   1  12
ATOM      7  C   UNL     1       3.932   4.417  17.502  0.00  0.00    +0.000 A 
ATOM      8  C   UNL     1       4.742   3.920  16.451  0.00  0.00    +0.000 A 
ATOM      9  C   UNL     1       5.397   4.769  15.560  0.00  0.00    +0.000 A 
ATOM     10  C   UNL     1       5.287   6.139  15.714  0.00  0.00    +0.000 A 
ATOM     11  C   UNL     1       4.509   6.656  16.748  0.00  0.00    +0.000 A 
ATOM     12  C   UNL     1       3.802   5.829  17.658  0.00  0.00    +0.000 A 
BRANCH   7  14
ATOM     13  C   UNL     1       2.457   2.355  17.602  0.00  0.00    +0.000 C 
ATOM     14  C   UNL     1       3.261   3.384  18.414  0.00  0.00    +0.000 C 
ATOM     15  C   UNL     1       4.262   2.672  19.331  0.00  0.00    +0.000 C 
ENDBRANCH   7  14
ENDBRANCH   1  12
BRANCH   4  16
ATOM     16  N   UNL     1       0.690   8.439  21.610  0.00  0.00    +0.000 N 
ATOM     17  C   UNL     1       1.288   9.434  22.516  0.00  0.00    +0.000 C 
ATOM     18  C   UNL     1      -0.765   8.540  21.546  0.00  0.00    +0.000 C 
ENDBRANCH   4  16
BRANCH   5  19
ATOM     19  N   UNL     1       1.463   9.741  18.948  0.00  0.00    +0.000 N 
ATOM     20  H   UNL     1       0.999  10.157  19.755  0.00  0.00    +0.000 HD
BRANCH  19  21
ATOM     21  C   UNL     1       0.559   9.683  17.793  0.00  0.00    +0.000 C 
BRANCH  21  22
ATOM     22  C   UNL     1      -0.819  10.246  18.048  0.00  0.00    +0.000 A 
ATOM     23  C   UNL     1      -1.087  11.213  19.011  0.00  0.00    +0.000 A 
ATOM     24  C   UNL     1      -2.377  11.729  19.155  0.00  0.00    +0.000 A 
ATOM     25  C   UNL     1      -3.440  11.327  18.323  0.00  0.00    +0.000 A 
ATOM     26  C   UNL     1      -3.156  10.351  17.355  0.00  0.00    +0.000 A 
ATOM     27  C   UNL     1      -1.873   9.817  17.222  0.00  0.00    +0.000 A 
BRANCH  25  28
ATOM     28  C   UNL     1      -4.785  11.920  18.466  0.00  0.00    +0.000 A 
ATOM     29  C   UNL     1      -5.732  11.865  17.431  0.00  0.00    +0.000 A 
ATOM     30  C   UNL     1      -6.982  12.462  17.572  0.00  0.00    +0.000 A 
ATOM     31  C   UNL     1      -7.274  13.095  18.767  0.00  0.00    +0.000 A 
ATOM     32  N   UNL     1      -6.413  13.163  19.802  0.00  0.00    +0.000 NA
ATOM     33  C   UNL     1      -5.200  12.584  19.624  0.00  0.00    +0.000 A 
ENDBRANCH  25  28
ENDBRANCH  21  22
ENDBRANCH  19  21
ENDBRANCH   5  19
TORSDOF 7
ENDMDL
MODEL 5
REMARK VINA RESULT:      -8.4      2.976      5.043
REMARK  Name = 
REMARK  11 active torsions:
REMARK  status: ('A' for Active; 'I' for Inactive)
REMARK    1  A    between atoms: C_1  and  C_2
REMARK    2  A    between atoms: C_2  and  C_3
REMARK    3  A    between atoms: C_2  and  C_4
REMARK    4  A    between atoms: C_9  and  C_10
REMARK    5  A    between atoms: C_13  and  N_14
REMARK    6  A    between atoms: N_14  and  C_15
REMARK    7  A    between atoms: N_14  and  C_16
REMARK    8  A    between atoms: C_17  and  N_18
REMARK    9  A    between atoms: N_18  and  C_19
REMARK   10  A    between atoms: C_19  and  C_20
REMARK   11  A    between atoms: C_23  and  C_24
REMARK                            x       y       z     vdW  Elec       q    Type
REMARK                         _______ _______ _______ _____ _____    ______ ____
ROOT
ATOM      1  C   UNL     1       2.675   7.038  18.622  0.00  0.00    +0.000 A 
ATOM      2  N   UNL     1       2.558   6.748  19.918  0.00  0.00    +0.000 NA
ATOM      3  C   UNL     1       1.790   7.594  20.643  0.00  0.00    +0.000 A 
ATOM      4  C   UNL     1       1.094   8.723  20.191  0.00  0.00    +0.000 A 
ATOM      5  C   UNL     1       1.335   8.933  18.816  0.00  0.00    +0.000 A 
ATOM      6  N   UNL     1       2.125   8.117  18.071  0.00  0.00    +0.000 NA
ENDROOT
BRANCH   1  12
ATOM      7  C   UNL     1       3.579   4.765  17.779  0.00  0.00    +0.000 A 
ATOM      8  C   UNL     1       4.458   4.105  16.884  0.00  0.00    +0.000 A 
ATOM      9  C   UNL     1       5.283   4.808  16.009  0.00  0.00    +0.000 A 
ATOM     10  C   UNL     1       5.277   6.191  16.023  0.00  0.00    +0.000 A 
ATOM     11  C   UNL     1       4.433   6.867  16.902  0.00  0.00    +0.000 A 
ATOM     12  C   UNL     1       3.557   6.191  17.789  0.00  0.00    +0.000 A 
BRANCH   7  14
ATOM     13  C   UNL     1       1.315   3.668  18.103  0.00  0.00    +0.000 C 
ATOM     14  C   UNL     1       2.719   3.883  18.690  0.00  0.00    +0.000 C 
ATOM     15  C   UNL     1       3.380   2.533  18.994  0.00  0.00    +0.000 C 
ENDBRANCH   7  14
ENDBRANCH   1  12
BRANCH   4  16
ATOM     16  N   UNL     1       0.268   9.449  21.059  0.00  0.00    +0.000 N 
ATOM     17  C   UNL     1      -0.489   8.717  22.089  0.00  0.00    +0.000 C 
ATOM     18  C   UNL     1       0.463  10.855  21.397  0.00  0.00    +0.000 C 
ENDBRANCH   4  16
BRANCH   5  19
ATOM     19  N   UNL     1       0.721   9.976  18.077  0.00  0.00    +0.000 N 
ATOM     20  H   UNL     1       0.446  10.676  18.765  0.00  0.00    +0.000 HD
BRANCH  19  21
ATOM     21  C   UNL     1      -0.441   9.498  17.318  0.00  0.00    +0.000 C 
BRANCH  21  22
ATOM     22  C   UNL     1      -1.731  10.217  17.630  0.00  0.00    +0.000 A 
ATOM     23  C   UNL     1      -2.971   9.816  17.144  0.00  0.00    +0.000 A 
ATOM     24  C   UNL     1      -4.130  10.498  17.519  0.00  0.00    +0.000 A 
ATOM     25  C   UNL     1      -4.103  11.582  18.417  0.00  0.00    +0.000 A 
ATOM     26  C   UNL     1      -2.846  11.976  18.901  0.00  0.00    +0.000 A 
ATOM     27  C   UNL     1      -1.681  11.311  18.512  0.00  0.00    +0.000 A 
BRANCH  25  28
ATOM     28  C   UNL     1      -5.349  12.258  18.833  0.00  0.00    +0.000 A 
ATOM     29  C   UNL     1      -6.485  12.290  18.009  0.00  0.00    +0.000 A 
ATOM     30  C   UNL     1      -7.638  12.964  18.404  0.00  0.00    +0.000 A 
ATOM     31  C   UNL     1      -7.641  13.587  19.638  0.00  0.00    +0.000 A 
ATOM     32  N   UNL     1      -6.588  13.575  20.480  0.00  0.00    +0.000 NA
ATOM     33  C   UNL     1      -5.478  12.921  20.056  0.00  0.00    +0.000 A 
ENDBRANCH  25  28
ENDBRANCH  21  22
ENDBRANCH  19  21
ENDBRANCH   5  19
TORSDOF 7
ENDMDL
MODEL 6
REMARK VINA RESULT:      -8.3      3.025      5.511
REMARK  Name = 
REMARK  11 active torsions:
REMARK  status: ('A' for Active; 'I' for Inactive)
REMARK    1  A    between atoms: C_1  and  C_2
REMARK    2  A    between atoms: C_2  and  C_3
REMARK    3  A    between atoms: C_2  and  C_4
REMARK    4  A    between atoms: C_9  and  C_10
REMARK    5  A    between atoms: C_13  and  N_14
REMARK    6  A    between atoms: N_14  and  C_15
REMARK    7  A    between atoms: N_14  and  C_16
REMARK    8  A    between atoms: C_17  and  N_18
REMARK    9  A    between atoms: N_18  and  C_19
REMARK   10  A    between atoms: C_19  and  C_20
REMARK   11  A    between atoms: C_23  and  C_24
REMARK                            x       y       z     vdW  Elec       q    Type
REMARK                         _______ _______ _______ _____ _____    ______ ____
ROOT
ATOM      1  C   UNL     1       2.269   7.138  18.995  0.00  0.00    +0.000 A 
ATOM      2  N   UNL     1       2.254   7.121  20.328  0.00  0.00    +0.000 NA
ATOM      3  C   UNL     1       1.640   8.170  20.924  0.00  0.00    +0.000 A 
ATOM      4  C   UNL     1       1.008   9.258  20.306  0.00  0.00    +0.000 A 
ATOM      5  C   UNL     1       1.132   9.168  18.903  0.00  0.00    +0.000 A 
ATOM      6  N   UNL     1       1.767   8.143  18.281  0.00  0.00    +0.000 NA
ENDROOT
BRANCH   1  12
ATOM      7  C   UNL     1       2.653   4.668  18.327  0.00  0.00    +0.000 A 
ATOM      8  C   UNL     1       3.418   3.763  17.551  0.00  0.00    +0.000 A 
ATOM      9  C   UNL     1       4.467   4.191  16.741  0.00  0.00    +0.000 A 
ATOM     10  C   UNL     1       4.804   5.532  16.707  0.00  0.00    +0.000 A 
ATOM     11  C   UNL     1       4.078   6.443  17.472  0.00  0.00    +0.000 A 
ATOM     12  C   UNL     1       2.984   6.055  18.286  0.00  0.00    +0.000 A 
BRANCH   7  14
ATOM     13  C   UNL     1       0.987   2.769  18.569  0.00  0.00    +0.000 C 
ATOM     14  C   UNL     1       1.521   4.077  19.175  0.00  0.00    +0.000 C 
ATOM     15  C   UNL     1       1.935   3.856  20.635  0.00  0.00    +0.000 C 
ENDBRANCH   7  14
ENDBRANCH   1  12
BRANCH   4  16
ATOM     16  N   UNL     1       0.340  10.224  21.070  0.00  0.00    +0.000 N 
ATOM     17  C   UNL     1      -0.400   9.790  22.266  0.00  0.00    +0.000 C 
ATOM     18  C   UNL     1       0.711  11.635  21.120  0.00  0.00    +0.000 C 
ENDBRANCH   4  16
BRANCH   5  19
ATOM     19  N   UNL     1       0.545  10.108  18.017  0.00  0.00    +0.000 N 
ATOM     20  H   UNL     1       0.334  10.928  18.584  0.00  0.00    +0.000 HD
BRANCH  19  21
ATOM     21  C   UNL     1      -0.669   9.578  17.384  0.00  0.00    +0.000 C 
BRANCH  21  22
ATOM     22  C   UNL     1      -1.933  10.328  17.731  0.00  0.00    +0.000 A 
ATOM     23  C   UNL     1      -3.198   9.939  17.305  0.00  0.00    +0.000 A 
ATOM     24  C   UNL     1      -4.330  10.649  17.710  0.00  0.00    +0.000 A 
ATOM     25  C   UNL     1      -4.248  11.753  18.581  0.00  0.00    +0.000 A 
ATOM     26  C   UNL     1      -2.965  12.135  19.004  0.00  0.00    +0.000 A 
ATOM     27  C   UNL     1      -1.829  11.441  18.584  0.00  0.00    +0.000 A 
BRANCH  25  28
ATOM     28  C   UNL     1      -5.463  12.461  19.030  0.00  0.00    +0.000 A 
ATOM     29  C   UNL     1      -5.464  13.284  20.167  0.00  0.00    +0.000 A 
ATOM     30  C   UNL     1      -6.630  13.914  20.595  0.00  0.00    +0.000 A 
ATOM     31  C   UNL     1      -7.785  13.723  19.859  0.00  0.00    +0.000 A 
ATOM     32  N   UNL     1      -7.842  12.960  18.748  0.00  0.00    +0.000 NA
ATOM     33  C   UNL     1      -6.691  12.350  18.370  0.00  0.00    +0.000 A 
ENDBRANCH  25  28
ENDBRANCH  21  22
ENDBRANCH  19  21
ENDBRANCH   5  19
TORSDOF 7
ENDMDL
MODEL 7
REMARK VINA RESULT:      -8.3      0.972      1.538
REMARK  Name = 
REMARK  11 active torsions:
REMARK  status: ('A' for Active; 'I' for Inactive)
REMARK    1  A    between atoms: C_1  and  C_2
REMARK    2  A    between atoms: C_2  and  C_3
REMARK    3  A    between atoms: C_2  and  C_4
REMARK    4  A    between atoms: C_9  and  C_10
REMARK    5  A    between atoms: C_13  and  N_14
REMARK    6  A    between atoms: N_14  and  C_15
REMARK    7  A    between atoms: N_14  and  C_16
REMARK    8  A    between atoms: C_17  and  N_18
REMARK    9  A    between atoms: N_18  and  C_19
REMARK   10  A    between atoms: C_19  and  C_20
REMARK   11  A    between atoms: C_23  and  C_24
REMARK                            x       y       z     vdW  Elec       q    Type
REMARK                         _______ _______ _______ _____ _____    ______ ____
ROOT
ATOM      1  C   UNL     1       4.465   4.062  17.134  0.00  0.00    +0.000 A 
ATOM      2  N   UNL     1       4.361   2.782  17.491  0.00  0.00    +0.000 NA
ATOM      3  C   UNL     1       3.513   2.523  18.514  0.00  0.00    +0.000 A 
ATOM      4  C   UNL     1       2.724   3.436  19.227  0.00  0.00    +0.000 A 
ATOM      5  C   UNL     1       2.960   4.751  18.773  0.00  0.00    +0.000 A 
ATOM      6  N   UNL     1       3.827   5.043  17.769  0.00  0.00    +0.000 NA
ENDROOT
BRANCH   1  12
ATOM      7  C   UNL     1       6.547   5.291  16.211  0.00  0.00    +0.000 A 
ATOM      8  C   UNL     1       7.398   5.492  15.096  0.00  0.00    +0.000 A 
ATOM      9  C   UNL     1       7.180   4.853  13.878  0.00  0.00    +0.000 A 
ATOM     10  C   UNL     1       6.089   4.018  13.728  0.00  0.00    +0.000 A 
ATOM     11  C   UNL     1       5.226   3.812  14.803  0.00  0.00    +0.000 A 
ATOM     12  C   UNL     1       5.427   4.419  16.068  0.00  0.00    +0.000 A 
BRANCH   7  14
ATOM     13  C   UNL     1       7.793   5.209  18.420  0.00  0.00    +0.000 C 
ATOM     14  C   UNL     1       6.892   6.047  17.499  0.00  0.00    +0.000 C 
ATOM     15  C   UNL     1       7.536   7.411  17.223  0.00  0.00    +0.000 C 
ENDBRANCH   7  14
ENDBRANCH   1  12
BRANCH   4  16
ATOM     16  N   UNL     1       1.828   2.992  20.208  0.00  0.00    +0.000 N 
ATOM     17  C   UNL     1       2.238   3.059  21.621  0.00  0.00    +0.000 C 
ATOM     18  C   UNL     1       0.378   2.962  20.044  0.00  0.00    +0.000 C 
ENDBRANCH   4  16
BRANCH   5  19
ATOM     19  N   UNL     1       2.264   5.877  19.280  0.00  0.00    +0.000 N 
ATOM     20  H   UNL     1       1.282   5.716  19.063  0.00  0.00    +0.000 HD
BRANCH  19  21
ATOM     21  C   UNL     1       2.737   7.130  18.678  0.00  0.00    +0.000 C 
BRANCH  21  22
ATOM     22  C   UNL     1       1.909   8.343  19.026  0.00  0.00    +0.000 A 
ATOM     23  C   UNL     1       1.569   9.331  18.108  0.00  0.00    +0.000 A 
ATOM     24  C   UNL     1       0.753  10.398  18.487  0.00  0.00    +0.000 A 
ATOM     25  C   UNL     1       0.217  10.505  19.785  0.00  0.00    +0.000 A 
ATOM     26  C   UNL     1       0.567   9.502  20.703  0.00  0.00    +0.000 A 
ATOM     27  C   UNL     1       1.400   8.444  20.334  0.00  0.00    +0.000 A 
BRANCH  25  28
ATOM     28  C   UNL     1      -0.680  11.621  20.150  0.00  0.00    +0.000 A 
ATOM     29  C   UNL     1      -0.281  12.633  21.036  0.00  0.00    +0.000 A 
ATOM     30  C   UNL     1      -1.154  13.657  21.395  0.00  0.00    +0.000 A 
ATOM     31  C   UNL     1      -2.421  13.660  20.841  0.00  0.00    +0.000 A 
ATOM     32  N   UNL     1      -2.854  12.727  19.970  0.00  0.00    +0.000 NA
ATOM     33  C   UNL     1      -1.982  11.737  19.655  0.00  0.00    +0.000 A 
ENDBRANCH  25  28
ENDBRANCH  21  22
ENDBRANCH  19  21
ENDBRANCH   5  19
TORSDOF 7
ENDMDL
MODEL 8
REMARK VINA RESULT:      -8.2      1.007      1.055
REMARK  Name = 
REMARK  11 active torsions:
REMARK  status: ('A' for Active; 'I' for Inactive)
REMARK    1  A    between atoms: C_1  and  C_2
REMARK    2  A    between atoms: C_2  and  C_3
REMARK    3  A    between atoms: C_2  and  C_4
REMARK    4  A    between atoms: C_9  and  C_10
REMARK    5  A    between atoms: C_13  and  N_14
REMARK    6  A    between atoms: N_14  and  C_15
REMARK    7  A    between atoms: N_14  and  C_16
REMARK    8  A    between atoms: C_17  and  N_18
REMARK    9  A    between atoms: N_18  and  C_19
REMARK   10  A    between atoms: C_19  and  C_20
REMARK   11  A    between atoms: C_23  and  C_24
REMARK                            x       y       z     vdW  Elec       q    Type
REMARK                         _______ _______ _______ _____ _____    ______ ____
ROOT
ATOM      1  C   UNL     1       4.490   4.276  17.377  0.00  0.00    +0.000 A 
ATOM      2  N   UNL     1       4.363   3.003  17.756  0.00  0.00    +0.000 NA
ATOM      3  C   UNL     1       3.510   2.777  18.783  0.00  0.00    +0.000 A 
ATOM      4  C   UNL     1       2.736   3.716  19.479  0.00  0.00    +0.000 A 
ATOM      5  C   UNL     1       2.995   5.019  19.001  0.00  0.00    +0.000 A 
ATOM      6  N   UNL     1       3.867   5.278  17.993  0.00  0.00    +0.000 NA
ENDROOT
BRANCH   1  12
ATOM      7  C   UNL     1       6.576   5.475  16.427  0.00  0.00    +0.000 A 
ATOM      8  C   UNL     1       7.435   5.640  15.312  0.00  0.00    +0.000 A 
ATOM      9  C   UNL     1       7.227   4.959  14.115  0.00  0.00    +0.000 A 
ATOM     10  C   UNL     1       6.137   4.117  13.986  0.00  0.00    +0.000 A 
ATOM     11  C   UNL     1       5.267   3.947  15.061  0.00  0.00    +0.000 A 
ATOM     12  C   UNL     1       5.458   4.597  16.307  0.00  0.00    +0.000 A 
BRANCH   7  14
ATOM     13  C   UNL     1       7.752   5.447  18.675  0.00  0.00    +0.000 C 
ATOM     14  C   UNL     1       6.911   6.275  17.690  0.00  0.00    +0.000 C 
ATOM     15  C   UNL     1       7.614   7.601  17.376  0.00  0.00    +0.000 C 
ENDBRANCH   7  14
ENDBRANCH   1  12
BRANCH   4  16
ATOM     16  N   UNL     1       1.831   3.305  20.466  0.00  0.00    +0.000 N 
ATOM     17  C   UNL     1       0.482   2.882  20.055  0.00  0.00    +0.000 C 
ATOM     18  C   UNL     1       2.220   2.759  21.763  0.00  0.00    +0.000 C 
ENDBRANCH   4  16
BRANCH   5  19
ATOM     19  N   UNL     1       2.317   6.165  19.488  0.00  0.00    +0.000 N 
ATOM     20  H   UNL     1       1.335   5.898  19.553  0.00  0.00    +0.000 HD
BRANCH  19  21
ATOM     21  C   UNL     1       2.490   7.321  18.599  0.00  0.00    +0.000 C 
BRANCH  21  22
ATOM     22  C   UNL     1       1.796   8.578  19.066  0.00  0.00    +0.000 A 
ATOM     23  C   UNL     1       1.267   8.734  20.343  0.00  0.00    +0.000 A 
ATOM     24  C   UNL     1       0.686   9.945  20.723  0.00  0.00    +0.000 A 
ATOM     25  C   UNL     1       0.642  11.057  19.860  0.00  0.00    +0.000 A 
ATOM     26  C   UNL     1       1.180  10.887  18.575  0.00  0.00    +0.000 A 
ATOM     27  C   UNL     1       1.742   9.671  18.183  0.00  0.00    +0.000 A 
BRANCH  25  28
ATOM     28  C   UNL     1       0.062  12.342  20.302  0.00  0.00    +0.000 A 
ATOM     29  C   UNL     1      -0.300  13.345  19.389  0.00  0.00    +0.000 A 
ATOM     30  C   UNL     1      -0.811  14.564  19.828  0.00  0.00    +0.000 A 
ATOM     31  C   UNL     1      -0.971  14.754  21.188  0.00  0.00    +0.000 A 
ATOM     32  N   UNL     1      -0.660  13.822  22.111  0.00  0.00    +0.000 NA
ATOM     33  C   UNL     1      -0.151  12.653  21.648  0.00  0.00    +0.000 A 
ENDBRANCH  25  28
ENDBRANCH  21  22
ENDBRANCH  19  21
ENDBRANCH   5  19
TORSDOF 7
ENDMDL
MODEL 9
REMARK VINA RESULT:      -8.2      1.178      1.702
REMARK  Name = 
REMARK  11 active torsions:
REMARK  status: ('A' for Active; 'I' for Inactive)
REMARK    1  A    between atoms: C_1  and  C_2
REMARK    2  A    between atoms: C_2  and  C_3
REMARK    3  A    between atoms: C_2  and  C_4
REMARK    4  A    between atoms: C_9  and  C_10
REMARK    5  A    between atoms: C_13  and  N_14
REMARK    6  A    between atoms: N_14  and  C_15
REMARK    7  A    between atoms: N_14  and  C_16
REMARK    8  A    between atoms: C_17  and  N_18
REMARK    9  A    between atoms: N_18  and  C_19
REMARK   10  A    between atoms: C_19  and  C_20
REMARK   11  A    between atoms: C_23  and  C_24
REMARK                            x       y       z     vdW  Elec       q    Type
REMARK                         _______ _______ _______ _____ _____    ______ ____
ROOT
ATOM      1  C   UNL     1       4.537   3.999  17.077  0.00  0.00    +0.000 A 
ATOM      2  N   UNL     1       4.634   2.777  17.602  0.00  0.00    +0.000 NA
ATOM      3  C   UNL     1       3.761   2.492  18.596  0.00  0.00    +0.000 A 
ATOM      4  C   UNL     1       2.762   3.321  19.125  0.00  0.00    +0.000 A 
ATOM      5  C   UNL     1       2.796   4.590  18.506  0.00  0.00    +0.000 A 
ATOM      6  N   UNL     1       3.680   4.912  17.527  0.00  0.00    +0.000 NA
ENDROOT
BRANCH   1  12
ATOM      7  C   UNL     1       6.601   5.294  16.208  0.00  0.00    +0.000 A 
ATOM      8  C   UNL     1       7.467   5.533  15.111  0.00  0.00    +0.000 A 
ATOM      9  C   UNL     1       7.289   4.903  13.881  0.00  0.00    +0.000 A 
ATOM     10  C   UNL     1       6.223   4.041  13.701  0.00  0.00    +0.000 A 
ATOM     11  C   UNL     1       5.347   3.799  14.757  0.00  0.00    +0.000 A 
ATOM     12  C   UNL     1       5.508   4.395  16.033  0.00  0.00    +0.000 A 
BRANCH   7  14
ATOM     13  C   UNL     1       7.759   5.194  18.463  0.00  0.00    +0.000 C 
ATOM     14  C   UNL     1       6.902   6.043  17.510  0.00  0.00    +0.000 C 
ATOM     15  C   UNL     1       7.569   7.402  17.265  0.00  0.00    +0.000 C 
ENDBRANCH   7  14
ENDBRANCH   1  12
BRANCH   4  16
ATOM     16  N   UNL     1       1.878   2.843  20.100  0.00  0.00    +0.000 N 
ATOM     17  C   UNL     1       2.251   2.978  21.518  0.00  0.00    +0.000 C 
ATOM     18  C   UNL     1       0.437   2.705  19.909  0.00  0.00    +0.000 C 
ENDBRANCH   4  16
BRANCH   5  19
ATOM     19  N   UNL     1       1.867   5.618  18.807  0.00  0.00    +0.000 N 
ATOM     20  H   UNL     1       1.759   6.152  17.946  0.00  0.00    +0.000 HD
BRANCH  19  21
ATOM     21  C   UNL     1       2.336   6.475  19.903  0.00  0.00    +0.000 C 
BRANCH  21  22
ATOM     22  C   UNL     1       1.842   7.900  19.837  0.00  0.00    +0.000 A 
ATOM     23  C   UNL     1       1.836   8.658  18.671  0.00  0.00    +0.000 A 
ATOM     24  C   UNL     1       1.313   9.953  18.673  0.00  0.00    +0.000 A 
ATOM     25  C   UNL     1       0.745  10.529  19.826  0.00  0.00    +0.000 A 
ATOM     26  C   UNL     1       0.756   9.753  20.996  0.00  0.00    +0.000 A 
ATOM     27  C   UNL     1       1.298   8.466  21.004  0.00  0.00    +0.000 A 
BRANCH  25  28
ATOM     28  C   UNL     1       0.158  11.883  19.790  0.00  0.00    +0.000 A 
ATOM     29  C   UNL     1       0.354  12.748  18.702  0.00  0.00    +0.000 A 
ATOM     30  C   UNL     1      -0.178  14.035  18.704  0.00  0.00    +0.000 A 
ATOM     31  C   UNL     1      -0.922  14.434  19.800  0.00  0.00    +0.000 A 
ATOM     32  N   UNL     1      -1.160  13.642  20.865  0.00  0.00    +0.000 NA
ATOM     33  C   UNL     1      -0.614  12.400  20.835  0.00  0.00    +0.000 A 
ENDBRANCH  25  28
ENDBRANCH  21  22
ENDBRANCH  19  21
ENDBRANCH   5  19
TORSDOF 7
ENDMDL
