MODEL 1
REMARK VINA RESULT:      -8.9      0.000      0.000
REMARK  Name = 
REMARK  7 active torsions:
REMARK  status: ('A' for Active; 'I' for Inactive)
REMARK    1  A    between atoms: C_1  and  C_2
REMARK    2  A    between atoms: C_7  and  O_8
REMARK    3  A    between atoms: O_8  and  C_9
REMARK    4  A    between atoms: C_9  and  C_10
REMARK    5  A    between atoms: N_12  and  C_13
REMARK    6  A    between atoms: C_16  and  S_17
REMARK    7  A    between atoms: S_17  and  N_20
REMARK                            x       y       z     vdW  Elec       q    Type
REMARK                         _______ _______ _______ _____ _____    ______ ____
ROOT
ATOM      1  C   UNL     1       3.836   3.809  19.413  0.00  0.00    +0.000 A 
ATOM      2  C   UNL     1       4.930   4.593  19.784  0.00  0.00    +0.000 A 
ATOM      3  C   UNL     1       5.645   5.300  18.824  0.00  0.00    +0.000 A 
ATOM      4  C   UNL     1       5.285   5.185  17.480  0.00  0.00    +0.000 A 
ATOM      5  C   UNL     1       4.187   4.410  17.099  0.00  0.00    +0.000 A 
ATOM      6  C   UNL     1       3.478   3.696  18.068  0.00  0.00    +0.000 A 
ENDROOT
BRANCH   1   9
ATOM      7  C   UNL     1       1.950   3.563  21.003  0.00  0.00    +0.000 C 
ATOM      8  O   UNL     1       1.438   2.864  21.882  0.00  0.00    +0.000 OA
ATOM      9  N   UNL     1       3.089   3.117  20.372  0.00  0.00    +0.000 N 
ATOM     10  H   UNL     1       3.259   2.127  20.503  0.00  0.00    +0.000 HD
BRANCH   7  11
ATOM     11  C   UNL     1       1.272   4.835  20.482  0.00  0.00    +0.000 C 
BRANCH  11  12
ATOM     12  O   UNL     1       2.020   5.986  20.797  0.00  0.00    +0.000 OA
BRANCH  12  19
ATOM     13  C   UNL     1       0.440   8.539  21.846  0.00  0.00    +0.000 C 
ATOM     14  C   UNL     1       1.148   8.334  20.537  0.00  0.00    +0.000 A 
ATOM     15  C   UNL     1       1.119   9.427  19.643  0.00  0.00    +0.000 A 
ATOM     16  C   UNL     1       1.717   9.369  18.386  0.00  0.00    +0.000 A 
ATOM     17  C   UNL     1       2.352   8.206  17.983  0.00  0.00    +0.000 A 
ATOM     18  C   UNL     1       2.395   7.116  18.852  0.00  0.00    +0.000 A 
ATOM     19  C   UNL     1       1.813   7.162  20.132  0.00  0.00    +0.000 A 
ENDBRANCH  12  19
ENDBRANCH  11  12
ENDBRANCH   7  11
ENDBRANCH   1   9
BRANCH   4  20
ATOM     20  S   UNL     1       6.218   6.076  16.263  0.00  0.00    +0.000 S 
ATOM     21  O   UNL     1       5.330   6.310  15.142  0.00  0.00    +0.000 OA
ATOM     22  O   UNL     1       6.869   7.191  16.918  0.00  0.00    +0.000 OA
BRANCH  20  23
ATOM     23  N   UNL     1       7.339   4.950  15.734  0.00  0.00    +0.000 N 
ATOM     24  C   UNL     1       7.262   4.685  14.370  0.00  0.00    +0.000 A 
ATOM     25  N   UNL     1       7.921   5.502  13.543  0.00  0.00    +0.000 NA
ATOM     26  C   UNL     1       7.735   5.254  12.236  0.00  0.00    +0.000 A 
ATOM     27  C   UNL     1       6.901   4.270  11.754  0.00  0.00    +0.000 A 
ATOM     28  C   UNL     1       6.276   3.502  12.711  0.00  0.00    +0.000 A 
ATOM     29  N   UNL     1       6.459   3.672  14.033  0.00  0.00    +0.000 NA
ATOM     30  H   UNL     1       7.254   4.105  16.287  0.00  0.00    +0.000 HD
ENDBRANCH  20  23
ENDBRANCH   4  20
TORSDOF 6
ENDMDL
MODEL 2
REMARK VINA RESULT:      -8.6      0.454      1.398
REMARK  Name = 
REMARK  7 active torsions:
REMARK  status: ('A' for Active; 'I' for Inactive)
REMARK    1  A    between atoms: C_1  and  C_2
REMARK    2  A    between atoms: C_7  and  O_8
REMARK    3  A    between atoms: O_8  and  C_9
REMARK    4  A    between atoms: C_9  and  C_10
REMARK    5  A    between atoms: N_12  and  C_13
REMARK    6  A    between atoms: C_16  and  S_17
REMARK    7  A    between atoms: S_17  and  N_20
REMARK                            x       y       z     vdW  Elec       q    Type
REMARK                         _______ _______ _______ _____ _____    ______ ____
ROOT
ATOM      1  C   UNL     1       3.701   3.918  19.303  0.00  0.00    +0.000 A 
ATOM      2  C   UNL     1       4.723   4.757  19.754  0.00  0.00    +0.000 A 
ATOM      3  C   UNL     1       5.507   5.459  18.846  0.00  0.00    +0.000 A 
ATOM      4  C   UNL     1       5.291   5.286  17.478  0.00  0.00    +0.000 A 
ATOM      5  C   UNL     1       4.266   4.456  17.016  0.00  0.00    +0.000 A 
ATOM      6  C   UNL     1       3.487   3.747  17.933  0.00  0.00    +0.000 A 
ENDROOT
BRANCH   1   9
ATOM      7  C   UNL     1       1.750   3.711  20.818  0.00  0.00    +0.000 C 
ATOM      8  O   UNL     1       1.171   3.006  21.649  0.00  0.00    +0.000 OA
ATOM      9  N   UNL     1       2.884   3.229  20.206  0.00  0.00    +0.000 N 
ATOM     10  H   UNL     1       2.997   2.227  20.300  0.00  0.00    +0.000 HD
BRANCH   7  11
ATOM     11  C   UNL     1       1.160   5.039  20.331  0.00  0.00    +0.000 C 
BRANCH  11  12
ATOM     12  O   UNL     1       1.858   6.141  20.862  0.00  0.00    +0.000 OA
BRANCH  12  19
ATOM     13  C   UNL     1       2.511   7.524  18.073  0.00  0.00    +0.000 C 
ATOM     14  C   UNL     1       1.788   8.086  19.264  0.00  0.00    +0.000 A 
ATOM     15  C   UNL     1       1.322   9.413  19.131  0.00  0.00    +0.000 A 
ATOM     16  C   UNL     1       0.652  10.067  20.164  0.00  0.00    +0.000 A 
ATOM     17  C   UNL     1       0.441   9.411  21.365  0.00  0.00    +0.000 A 
ATOM     18  C   UNL     1       0.890   8.100  21.516  0.00  0.00    +0.000 A 
ATOM     19  C   UNL     1       1.552   7.417  20.478  0.00  0.00    +0.000 A 
ENDBRANCH  12  19
ENDBRANCH  11  12
ENDBRANCH   7  11
ENDBRANCH   1   9
BRANCH   4  20
ATOM     20  S   UNL     1       6.312   6.172  16.330  0.00  0.00    +0.000 S 
ATOM     21  O   UNL     1       5.480   6.490  15.187  0.00  0.00    +0.000 OA
ATOM     22  O   UNL     1       6.992   7.228  17.050  0.00  0.00    +0.000 OA
BRANCH  20  23
ATOM     23  N   UNL     1       7.396   5.010  15.799  0.00  0.00    +0.000 N 
ATOM     24  C   UNL     1       7.289   4.728  14.440  0.00  0.00    +0.000 A 
ATOM     25  N   UNL     1       7.953   5.516  13.590  0.00  0.00    +0.000 NA
ATOM     26  C   UNL     1       7.739   5.254  12.290  0.00  0.00    +0.000 A 
ATOM     27  C   UNL     1       6.872   4.284  11.837  0.00  0.00    +0.000 A 
ATOM     28  C   UNL     1       6.245   3.545  12.816  0.00  0.00    +0.000 A 
ATOM     29  N   UNL     1       6.455   3.730  14.133  0.00  0.00    +0.000 NA
ATOM     30  H   UNL     1       7.299   4.176  16.365  0.00  0.00    +0.000 HD
ENDBRANCH  20  23
ENDBRANCH   4  20
TORSDOF 6
ENDMDL
MODEL 3
REMARK VINA RESULT:      -8.2      0.898      1.644
REMARK  Name = 
REMARK  7 active torsions:
REMARK  status: ('A' for Active; 'I' for Inactive)
REMARK    1  A    between atoms: C_1  and  C_2
REMARK    2  A    between atoms: C_7  and  O_8
REMARK    3  A    between atoms: O_8  and  C_9
REMARK    4  A    between atoms: C_9  and  C_10
REMARK    5  A    between atoms: N_12  and  C_13
REMARK    6  A    between atoms: C_16  and  S_17
REMARK    7  A    between atoms: S_17  and  N_20
REMARK                            x       y       z     vdW  Elec       q    Type
REMARK                         _______ _______ _______ _____ _____    ______ ____
ROOT
ATOM      1  C   UNL     1       3.881   3.408  19.355  0.00  0.00    +0.000 A 
ATOM      2  C   UNL     1       3.770   3.255  17.971  0.00  0.00    +0.000 A 
ATOM      3  C   UNL     1       4.704   3.841  17.123  0.00  0.00    +0.000 A 
ATOM      4  C   UNL     1       5.728   4.618  17.665  0.00  0.00    +0.000 A 
ATOM      5  C   UNL     1       5.853   4.770  19.049  0.00  0.00    +0.000 A 
ATOM      6  C   UNL     1       4.908   4.186  19.895  0.00  0.00    +0.000 A 
ENDROOT
BRANCH   1   9
ATOM      7  C   UNL     1       1.798   3.349  20.697  0.00  0.00    +0.000 C 
ATOM      8  O   UNL     1       1.126   2.713  21.514  0.00  0.00    +0.000 OA
ATOM      9  N   UNL     1       2.967   2.799  20.221  0.00  0.00    +0.000 N 
ATOM     10  H   UNL     1       3.039   1.802  20.385  0.00  0.00    +0.000 HD
BRANCH   7  11
ATOM     11  C   UNL     1       1.296   4.657  20.079  0.00  0.00    +0.000 C 
BRANCH  11  12
ATOM     12  O   UNL     1       2.096   5.751  20.460  0.00  0.00    +0.000 OA
BRANCH  12  19
ATOM     13  C   UNL     1       0.660   8.431  21.394  0.00  0.00    +0.000 C 
ATOM     14  C   UNL     1       1.441   8.161  20.139  0.00  0.00    +0.000 A 
ATOM     15  C   UNL     1       1.567   9.248  19.246  0.00  0.00    +0.000 A 
ATOM     16  C   UNL     1       2.248   9.135  18.035  0.00  0.00    +0.000 A 
ATOM     17  C   UNL     1       2.812   7.921  17.679  0.00  0.00    +0.000 A 
ATOM     18  C   UNL     1       2.702   6.836  18.548  0.00  0.00    +0.000 A 
ATOM     19  C   UNL     1       2.035   6.937  19.782  0.00  0.00    +0.000 A 
ENDBRANCH  12  19
ENDBRANCH  11  12
ENDBRANCH   7  11
ENDBRANCH   1   9
BRANCH   4  20
ATOM     20  S   UNL     1       6.900   5.376  16.571  0.00  0.00    +0.000 S 
ATOM     21  O   UNL     1       7.314   6.618  17.194  0.00  0.00    +0.000 OA
ATOM     22  O   UNL     1       7.889   4.383  16.208  0.00  0.00    +0.000 OA
BRANCH  20  23
ATOM     23  N   UNL     1       5.970   5.813  15.249  0.00  0.00    +0.000 N 
ATOM     24  C   UNL     1       6.267   5.092  14.096  0.00  0.00    +0.000 A 
ATOM     25  N   UNL     1       5.668   3.909  13.934  0.00  0.00    +0.000 NA
ATOM     26  C   UNL     1       6.063   3.218  12.852  0.00  0.00    +0.000 A 
ATOM     27  C   UNL     1       7.040   3.650  11.982  0.00  0.00    +0.000 A 
ATOM     28  C   UNL     1       7.583   4.884  12.266  0.00  0.00    +0.000 A 
ATOM     29  N   UNL     1       7.196   5.642  13.308  0.00  0.00    +0.000 NA
ATOM     30  H   UNL     1       6.047   6.811  15.099  0.00  0.00    +0.000 HD
ENDBRANCH  20  23
ENDBRANCH   4  20
TORSDOF 6
ENDMDL
MODEL 4
REMARK VINA RESULT:      -8.2      0.936      1.911
REMARK  Name = 
REMARK  7 active torsions:
REMARK  status: ('A' for Active; 'I' for Inactive)
REMARK    1  A    between atoms: C_1  and  C_2
REMARK    2  A    between atoms: C_7  and  O_8
REMARK    3  A    between atoms: O_8  and  C_9
REMARK    4  A    between atoms: C_9  and  C_10
REMARK    5  A    between atoms: N_12  and  C_13
REMARK    6  A    between atoms: C_16  and  S_17
REMARK    7  A    between atoms: S_17  and  N_20
REMARK                            x       y       z     vdW  Elec       q    Type
REMARK                         _______ _______ _______ _____ _____    ______ ____
ROOT
ATOM      1  C   UNL     1       3.914   3.445  19.380  0.00  0.00    +0.000 A 
ATOM      2  C   UNL     1       4.918   4.271  19.892  0.00  0.00    +0.000 A 
ATOM      3  C   UNL     1       5.842   4.865  19.040  0.00  0.00    +0.000 A 
ATOM      4  C   UNL     1       5.783   4.595  17.672  0.00  0.00    +0.000 A 
ATOM      5  C   UNL     1       4.778   3.777  17.148  0.00  0.00    +0.000 A 
ATOM      6  C   UNL     1       3.858   3.177  18.010  0.00  0.00    +0.000 A 
ENDROOT
BRANCH   1   9
ATOM      7  C   UNL     1       1.795   3.449  20.665  0.00  0.00    +0.000 C 
ATOM      8  O   UNL     1       1.083   2.835  21.464  0.00  0.00    +0.000 OA
ATOM      9  N   UNL     1       2.960   2.865  20.222  0.00  0.00    +0.000 N 
ATOM     10  H   UNL     1       2.999   1.867  20.391  0.00  0.00    +0.000 HD
BRANCH   7  11
ATOM     11  C   UNL     1       1.346   4.769  20.029  0.00  0.00    +0.000 C 
BRANCH  11  12
ATOM     12  O   UNL     1       1.925   5.878  20.676  0.00  0.00    +0.000 OA
BRANCH  12  19
ATOM     13  C   UNL     1       3.043   7.090  17.957  0.00  0.00    +0.000 C 
ATOM     14  C   UNL     1       2.183   7.742  19.003  0.00  0.00    +0.000 A 
ATOM     15  C   UNL     1       1.808   9.079  18.746  0.00  0.00    +0.000 A 
ATOM     16  C   UNL     1       1.028   9.812  19.639  0.00  0.00    +0.000 A 
ATOM     17  C   UNL     1       0.614   9.227  20.824  0.00  0.00    +0.000 A 
ATOM     18  C   UNL     1       0.971   7.907  21.096  0.00  0.00    +0.000 A 
ATOM     19  C   UNL     1       1.741   7.145  20.197  0.00  0.00    +0.000 A 
ENDBRANCH  12  19
ENDBRANCH  11  12
ENDBRANCH   7  11
ENDBRANCH   1   9
BRANCH   4  20
ATOM     20  S   UNL     1       6.980   5.343  16.598  0.00  0.00    +0.000 S 
ATOM     21  O   UNL     1       7.428   6.558  17.250  0.00  0.00    +0.000 OA
ATOM     22  O   UNL     1       7.939   4.330  16.213  0.00  0.00    +0.000 OA
BRANCH  20  23
ATOM     23  N   UNL     1       6.066   5.838  15.284  0.00  0.00    +0.000 N 
ATOM     24  C   UNL     1       6.317   5.110  14.125  0.00  0.00    +0.000 A 
ATOM     25  N   UNL     1       5.654   3.961  13.959  0.00  0.00    +0.000 NA
ATOM     26  C   UNL     1       6.006   3.258  12.870  0.00  0.00    +0.000 A 
ATOM     27  C   UNL     1       6.999   3.642  11.997  0.00  0.00    +0.000 A 
ATOM     28  C   UNL     1       7.609   4.843  12.285  0.00  0.00    +0.000 A 
ATOM     29  N   UNL     1       7.269   5.614  13.334  0.00  0.00    +0.000 NA
ATOM     30  H   UNL     1       6.195   6.832  15.140  0.00  0.00    +0.000 HD
ENDBRANCH  20  23
ENDBRANCH   4  20
TORSDOF 6
ENDMDL
MODEL 5
REMARK VINA RESULT:      -7.8      3.954      7.755
REMARK  Name = 
REMARK  7 active torsions:
REMARK  status: ('A' for Active; 'I' for Inactive)
REMARK    1  A    between atoms: C_1  and  C_2
REMARK    2  A    between atoms: C_7  and  O_8
REMARK    3  A    between atoms: O_8  and  C_9
REMARK    4  A    between atoms: C_9  and  C_10
REMARK    5  A    between atoms: N_12  and  C_13
REMARK    6  A    between atoms: C_16  and  S_17
REMARK    7  A    between atoms: S_17  and  N_20
REMARK                            x       y       z     vdW  Elec       q    Type
REMARK                         _______ _______ _______ _____ _____    ______ ____
ROOT
ATOM      1  C   UNL     1       2.295   5.348  18.952  0.00  0.00    +0.000 A 
ATOM      2  C   UNL     1       2.474   6.618  18.398  0.00  0.00    +0.000 A 
ATOM      3  C   UNL     1       2.108   7.753  19.112  0.00  0.00    +0.000 A 
ATOM      4  C   UNL     1       1.520   7.611  20.370  0.00  0.00    +0.000 A 
ATOM      5  C   UNL     1       1.345   6.346  20.937  0.00  0.00    +0.000 A 
ATOM      6  C   UNL     1       1.707   5.209  20.212  0.00  0.00    +0.000 A 
ENDROOT
BRANCH   1   9
ATOM      7  C   UNL     1       3.949   3.652  18.225  0.00  0.00    +0.000 C 
ATOM      8  O   UNL     1       4.159   2.669  17.508  0.00  0.00    +0.000 OA
ATOM      9  N   UNL     1       2.687   4.199  18.258  0.00  0.00    +0.000 N 
ATOM     10  H   UNL     1       1.972   3.583  17.890  0.00  0.00    +0.000 HD
BRANCH   7  11
ATOM     11  C   UNL     1       5.007   4.185  19.198  0.00  0.00    +0.000 C 
BRANCH  11  12
ATOM     12  O   UNL     1       6.261   4.325  18.572  0.00  0.00    +0.000 OA
BRANCH  12  19
ATOM     13  C   UNL     1       5.267   6.030  16.078  0.00  0.00    +0.000 C 
ATOM     14  C   UNL     1       6.311   6.370  17.103  0.00  0.00    +0.000 A 
ATOM     15  C   UNL     1       6.939   7.626  16.950  0.00  0.00    +0.000 A 
ATOM     16  C   UNL     1       7.939   8.063  17.816  0.00  0.00    +0.000 A 
ATOM     17  C   UNL     1       8.348   7.244  18.857  0.00  0.00    +0.000 A 
ATOM     18  C   UNL     1       7.738   6.002  19.028  0.00  0.00    +0.000 A 
ATOM     19  C   UNL     1       6.714   5.552  18.174  0.00  0.00    +0.000 A 
ENDBRANCH  12  19
ENDBRANCH  11  12
ENDBRANCH   7  11
ENDBRANCH   1   9
BRANCH   4  20
ATOM     20  S   UNL     1       1.039   9.067  21.261  0.00  0.00    +0.000 S 
ATOM     21  O   UNL     1      -0.385   8.955  21.510  0.00  0.00    +0.000 OA
ATOM     22  O   UNL     1       1.957   9.245  22.366  0.00  0.00    +0.000 OA
BRANCH  20  23
ATOM     23  N   UNL     1       1.213  10.289  20.129  0.00  0.00    +0.000 N 
ATOM     24  C   UNL     1       0.002  10.810  19.681  0.00  0.00    +0.000 A 
ATOM     25  N   UNL     1      -0.563  11.776  20.412  0.00  0.00    +0.000 NA
ATOM     26  C   UNL     1      -1.772  12.175  19.983  0.00  0.00    +0.000 A 
ATOM     27  C   UNL     1      -2.424  11.619  18.904  0.00  0.00    +0.000 A 
ATOM     28  C   UNL     1      -1.735  10.627  18.242  0.00  0.00    +0.000 A 
ATOM     29  N   UNL     1      -0.503  10.218  18.596  0.00  0.00    +0.000 NA
ATOM     30  H   UNL     1       1.786   9.958  19.363  0.00  0.00    +0.000 HD
ENDBRANCH  20  23
ENDBRANCH   4  20
TORSDOF 6
ENDMDL
MODEL 6
REMARK VINA RESULT:      -7.7      4.045      7.967
REMARK  Name = 
REMARK  7 active torsions:
REMARK  status: ('A' for Active; 'I' for Inactive)
REMARK    1  A    between atoms: C_1  and  C_2
REMARK    2  A    between atoms: C_7  and  O_8
REMARK    3  A    between atoms: O_8  and  C_9
REMARK    4  A    between atoms: C_9  and  C_10
REMARK    5  A    between atoms: N_12  and  C_13
REMARK    6  A    between atoms: C_16  and  S_17
REMARK    7  A    between atoms: S_17  and  N_20
REMARK                            x       y       z     vdW  Elec       q    Type
REMARK                         _______ _______ _______ _____ _____    ______ ____
ROOT
ATOM      1  C   UNL     1       3.509   6.602  18.305  0.00  0.00    +0.000 A 
ATOM      2  C   UNL     1       3.081   6.230  19.582  0.00  0.00    +0.000 A 
ATOM      3  C   UNL     1       2.147   7.003  20.263  0.00  0.00    +0.000 A 
ATOM      4  C   UNL     1       1.672   8.177  19.677  0.00  0.00    +0.000 A 
ATOM      5  C   UNL     1       2.087   8.554  18.396  0.00  0.00    +0.000 A 
ATOM      6  C   UNL     1       3.032   7.778  17.721  0.00  0.00    +0.000 A 
ENDROOT
BRANCH   1   9
ATOM      7  C   UNL     1       4.194   4.574  17.057  0.00  0.00    +0.000 C 
ATOM      8  O   UNL     1       5.126   3.972  16.516  0.00  0.00    +0.000 OA
ATOM      9  N   UNL     1       4.425   5.819  17.596  0.00  0.00    +0.000 N 
ATOM     10  H   UNL     1       5.283   6.246  17.269  0.00  0.00    +0.000 HD
BRANCH   7  11
ATOM     11  C   UNL     1       2.755   4.050  17.008  0.00  0.00    +0.000 C 
BRANCH  11  12
ATOM     12  O   UNL     1       2.626   2.827  17.695  0.00  0.00    +0.000 OA
BRANCH  12  19
ATOM     13  C   UNL     1       4.710   2.088  19.982  0.00  0.00    +0.000 C 
ATOM     14  C   UNL     1       3.272   2.504  20.107  0.00  0.00    +0.000 A 
ATOM     15  C   UNL     1       2.768   2.589  21.424  0.00  0.00    +0.000 A 
ATOM     16  C   UNL     1       1.447   2.944  21.689  0.00  0.00    +0.000 A 
ATOM     17  C   UNL     1       0.587   3.212  20.636  0.00  0.00    +0.000 A 
ATOM     18  C   UNL     1       1.065   3.137  19.328  0.00  0.00    +0.000 A 
ATOM     19  C   UNL     1       2.401   2.798  19.043  0.00  0.00    +0.000 A 
ENDBRANCH  12  19
ENDBRANCH  11  12
ENDBRANCH   7  11
ENDBRANCH   1   9
BRANCH   4  20
ATOM     20  S   UNL     1       0.496   9.164  20.564  0.00  0.00    +0.000 S 
ATOM     21  O   UNL     1      -0.329   8.249  21.328  0.00  0.00    +0.000 OA
ATOM     22  O   UNL     1       1.213  10.227  21.236  0.00  0.00    +0.000 OA
BRANCH  20  23
ATOM     23  N   UNL     1      -0.490   9.772  19.355  0.00  0.00    +0.000 N 
ATOM     24  C   UNL     1      -0.548  11.163  19.330  0.00  0.00    +0.000 A 
ATOM     25  N   UNL     1       0.411  11.810  18.662  0.00  0.00    +0.000 NA
ATOM     26  C   UNL     1       0.356  13.150  18.750  0.00  0.00    +0.000 A 
ATOM     27  C   UNL     1      -0.577  13.830  19.500  0.00  0.00    +0.000 A 
ATOM     28  C   UNL     1      -1.506  13.045  20.145  0.00  0.00    +0.000 A 
ATOM     29  N   UNL     1      -1.530  11.702  20.057  0.00  0.00    +0.000 NA
ATOM     30  H   UNL     1      -1.411   9.358  19.433  0.00  0.00    +0.000 HD
ENDBRANCH  20  23
ENDBRANCH   4  20
TORSDOF 6
ENDMDL
MODEL 7
REMARK VINA RESULT:      -7.6      4.097      7.902
REMARK  Name = 
REMARK  7 active torsions:
REMARK  status: ('A' for Active; 'I' for Inactive)
REMARK    1  A    between atoms: C_1  and  C_2
REMARK    2  A    between atoms: C_7  and  O_8
REMARK    3  A    between atoms: O_8  and  C_9
REMARK    4  A    between atoms: C_9  and  C_10
REMARK    5  A    between atoms: N_12  and  C_13
REMARK    6  A    between atoms: C_16  and  S_17
REMARK    7  A    between atoms: S_17  and  N_20
REMARK                            x       y       z     vdW  Elec       q    Type
REMARK                         _______ _______ _______ _____ _____    ______ ____
ROOT
ATOM      1  C   UNL     1       3.513   6.723  18.322  0.00  0.00    +0.000 A 
ATOM      2  C   UNL     1       3.007   6.385  19.579  0.00  0.00    +0.000 A 
ATOM      3  C   UNL     1       2.020   7.165  20.172  0.00  0.00    +0.000 A 
ATOM      4  C   UNL     1       1.569   8.312  19.518  0.00  0.00    +0.000 A 
ATOM      5  C   UNL     1       2.062   8.655  18.256  0.00  0.00    +0.000 A 
ATOM      6  C   UNL     1       3.059   7.872  17.670  0.00  0.00    +0.000 A 
ENDROOT
BRANCH   1   9
ATOM      7  C   UNL     1       4.300   4.674  17.171  0.00  0.00    +0.000 C 
ATOM      8  O   UNL     1       5.274   4.068  16.715  0.00  0.00    +0.000 OA
ATOM      9  N   UNL     1       4.484   5.931  17.701  0.00  0.00    +0.000 N 
ATOM     10  H   UNL     1       5.362   6.358  17.430  0.00  0.00    +0.000 HD
BRANCH   7  11
ATOM     11  C   UNL     1       2.872   4.140  17.025  0.00  0.00    +0.000 C 
BRANCH  11  12
ATOM     12  O   UNL     1       2.710   2.908  17.688  0.00  0.00    +0.000 OA
BRANCH  12  19
ATOM     13  C   UNL     1       4.709   2.112  20.031  0.00  0.00    +0.000 C 
ATOM     14  C   UNL     1       3.271   2.541  20.115  0.00  0.00    +0.000 A 
ATOM     15  C   UNL     1       2.725   2.611  21.416  0.00  0.00    +0.000 A 
ATOM     16  C   UNL     1       1.398   2.975  21.642  0.00  0.00    +0.000 A 
ATOM     17  C   UNL     1       0.577   3.267  20.565  0.00  0.00    +0.000 A 
ATOM     18  C   UNL     1       1.097   3.208  19.273  0.00  0.00    +0.000 A 
ATOM     19  C   UNL     1       2.439   2.860  19.027  0.00  0.00    +0.000 A 
ENDBRANCH  12  19
ENDBRANCH  11  12
ENDBRANCH   7  11
ENDBRANCH   1   9
BRANCH   4  20
ATOM     20  S   UNL     1       0.324   9.309  20.294  0.00  0.00    +0.000 S 
ATOM     21  O   UNL     1      -0.523   9.823  19.236  0.00  0.00    +0.000 OA
ATOM     22  O   UNL     1      -0.254   8.547  21.380  0.00  0.00    +0.000 OA
BRANCH  20  23
ATOM     23  N   UNL     1       1.186  10.624  20.872  0.00  0.00    +0.000 N 
ATOM     24  C   UNL     1       0.856  11.824  20.249  0.00  0.00    +0.000 A 
ATOM     25  N   UNL     1      -0.196  12.499  20.723  0.00  0.00    +0.000 NA
ATOM     26  C   UNL     1      -0.522  13.599  20.025  0.00  0.00    +0.000 A 
ATOM     27  C   UNL     1       0.129  14.002  18.880  0.00  0.00    +0.000 A 
ATOM     28  C   UNL     1       1.191  13.215  18.494  0.00  0.00    +0.000 A 
ATOM     29  N   UNL     1       1.595  12.128  19.178  0.00  0.00    +0.000 NA
ATOM     30  H   UNL     1       2.178  10.428  20.811  0.00  0.00    +0.000 HD
ENDBRANCH  20  23
ENDBRANCH   4  20
TORSDOF 6
ENDMDL
MODEL 8
REMARK VINA RESULT:      -7.5      4.253      8.356
REMARK  Name = 
REMARK  7 active torsions:
REMARK  status: ('A' for Active; 'I' for Inactive)
REMARK    1  A    between atoms: C_1  and  C_2
REMARK    2  A    between atoms: C_7  and  O_8
REMARK    3  A    between atoms: O_8  and  C_9
REMARK    4  A    between atoms: C_9  and  C_10
REMARK    5  A    between atoms: N_12  and  C_13
REMARK    6  A    between atoms: C_16  and  S_17
REMARK    7  A    between atoms: S_17  and  N_20
REMARK                            x       y       z     vdW  Elec       q    Type
REMARK                         _______ _______ _______ _____ _____    ______ ____
ROOT
ATOM      1  C   UNL     1       3.581   6.801  18.166  0.00  0.00    +0.000 A 
ATOM      2  C   UNL     1       3.153   7.912  17.435  0.00  0.00    +0.000 A 
ATOM      3  C   UNL     1       2.187   8.767  17.957  0.00  0.00    +0.000 A 
ATOM      4  C   UNL     1       1.619   8.480  19.199  0.00  0.00    +0.000 A 
ATOM      5  C   UNL     1       2.046   7.376  19.942  0.00  0.00    +0.000 A 
ATOM      6  C   UNL     1       3.010   6.518  19.409  0.00  0.00    +0.000 A 
ENDROOT
BRANCH   1   9
ATOM      7  C   UNL     1       4.395   4.667  17.206  0.00  0.00    +0.000 C 
ATOM      8  O   UNL     1       5.383   4.012  16.860  0.00  0.00    +0.000 OA
ATOM      9  N   UNL     1       4.573   5.951  17.667  0.00  0.00    +0.000 N 
ATOM     10  H   UNL     1       5.478   6.341  17.434  0.00  0.00    +0.000 HD
BRANCH   7  11
ATOM     11  C   UNL     1       2.968   4.154  16.991  0.00  0.00    +0.000 C 
BRANCH  11  12
ATOM     12  O   UNL     1       2.751   2.932  17.657  0.00  0.00    +0.000 OA
BRANCH  12  19
ATOM     13  C   UNL     1       4.671   2.052  20.034  0.00  0.00    +0.000 C 
ATOM     14  C   UNL     1       3.254   2.548  20.094  0.00  0.00    +0.000 A 
ATOM     15  C   UNL     1       2.691   2.647  21.385  0.00  0.00    +0.000 A 
ATOM     16  C   UNL     1       1.379   3.074  21.588  0.00  0.00    +0.000 A 
ATOM     17  C   UNL     1       0.590   3.401  20.497  0.00  0.00    +0.000 A 
ATOM     18  C   UNL     1       1.128   3.313  19.214  0.00  0.00    +0.000 A 
ATOM     19  C   UNL     1       2.456   2.902  18.991  0.00  0.00    +0.000 A 
ENDBRANCH  12  19
ENDBRANCH  11  12
ENDBRANCH   7  11
ENDBRANCH   1   9
BRANCH   4  20
ATOM     20  S   UNL     1       0.374   9.566  19.843  0.00  0.00    +0.000 S 
ATOM     21  O   UNL     1      -0.507   9.897  18.740  0.00  0.00    +0.000 OA
ATOM     22  O   UNL     1      -0.165   8.973  21.049  0.00  0.00    +0.000 OA
BRANCH  20  23
ATOM     23  N   UNL     1       1.223  10.968  20.188  0.00  0.00    +0.000 N 
ATOM     24  C   UNL     1       0.421  12.007  20.649  0.00  0.00    +0.000 A 
ATOM     25  N   UNL     1       0.139  12.039  21.955  0.00  0.00    +0.000 NA
ATOM     26  C   UNL     1      -0.714  13.009  22.325  0.00  0.00    +0.000 A 
ATOM     27  C   UNL     1      -1.303  13.889  21.445  0.00  0.00    +0.000 A 
ATOM     28  C   UNL     1      -0.933  13.745  20.126  0.00  0.00    +0.000 A 
ATOM     29  N   UNL     1      -0.049  12.823  19.701  0.00  0.00    +0.000 NA
ATOM     30  H   UNL     1       1.764  11.241  19.376  0.00  0.00    +0.000 HD
ENDBRANCH  20  23
ENDBRANCH   4  20
TORSDOF 6
ENDMDL
MODEL 9
REMARK VINA RESULT:      -7.4      1.927      2.814
REMARK  Name = 
REMARK  7 active torsions:
REMARK  status: ('A' for Active; 'I' for Inactive)
REMARK    1  A    between atoms: C_1  and  C_2
REMARK    2  A    between atoms: C_7  and  O_8
REMARK    3  A    between atoms: O_8  and  C_9
REMARK    4  A    between atoms: C_9  and  C_10
REMARK    5  A    between atoms: N_12  and  C_13
REMARK    6  A    between atoms: C_16  and  S_17
REMARK    7  A    between atoms: S_17  and  N_20
REMARK                            x       y       z     vdW  Elec       q    Type
REMARK                         _______ _______ _______ _____ _____    ______ ____
ROOT
ATOM      1  C   UNL     1       3.874   4.033  19.040  0.00  0.00    +0.000 A 
ATOM      2  C   UNL     1       4.153   5.389  18.851  0.00  0.00    +0.000 A 
ATOM      3  C   UNL     1       4.629   5.844  17.627  0.00  0.00    +0.000 A 
ATOM      4  C   UNL     1       4.866   4.927  16.601  0.00  0.00    +0.000 A 
ATOM      5  C   UNL     1       4.581   3.570  16.776  0.00  0.00    +0.000 A 
ATOM      6  C   UNL     1       4.111   3.119  18.011  0.00  0.00    +0.000 A 
ENDROOT
BRANCH   1   9
ATOM      7  C   UNL     1       2.356   4.137  20.996  0.00  0.00    +0.000 C 
ATOM      8  O   UNL     1       2.063   3.647  22.090  0.00  0.00    +0.000 OA
ATOM      9  N   UNL     1       3.366   3.566  20.256  0.00  0.00    +0.000 N 
ATOM     10  H   UNL     1       3.605   2.629  20.558  0.00  0.00    +0.000 HD
BRANCH   7  11
ATOM     11  C   UNL     1       1.530   5.263  20.366  0.00  0.00    +0.000 C 
BRANCH  11  12
ATOM     12  O   UNL     1       1.693   6.477  21.062  0.00  0.00    +0.000 OA
BRANCH  12  19
ATOM     13  C   UNL     1       0.099   8.950  22.270  0.00  0.00    +0.000 C 
ATOM     14  C   UNL     1       0.765   8.814  20.930  0.00  0.00    +0.000 A 
ATOM     15  C   UNL     1       0.683   9.942  20.084  0.00  0.00    +0.000 A 
ATOM     16  C   UNL     1       1.239   9.950  18.806  0.00  0.00    +0.000 A 
ATOM     17  C   UNL     1       1.883   8.818  18.334  0.00  0.00    +0.000 A 
ATOM     18  C   UNL     1       1.978   7.694  19.154  0.00  0.00    +0.000 A 
ATOM     19  C   UNL     1       1.439   7.675  20.454  0.00  0.00    +0.000 A 
ENDBRANCH  12  19
ENDBRANCH  11  12
ENDBRANCH   7  11
ENDBRANCH   1   9
BRANCH   4  20
ATOM     20  S   UNL     1       5.492   5.518  15.050  0.00  0.00    +0.000 S 
ATOM     21  O   UNL     1       5.218   4.489  14.067  0.00  0.00    +0.000 OA
ATOM     22  O   UNL     1       5.001   6.865  14.847  0.00  0.00    +0.000 OA
BRANCH  20  23
ATOM     23  N   UNL     1       7.151   5.509  15.275  0.00  0.00    +0.000 N 
ATOM     24  C   UNL     1       7.536   5.715  16.596  0.00  0.00    +0.000 A 
ATOM     25  N   UNL     1       7.576   4.650  17.403  0.00  0.00    +0.000 NA
ATOM     26  C   UNL     1       7.863   4.923  18.686  0.00  0.00    +0.000 A 
ATOM     27  C   UNL     1       8.063   6.196  19.172  0.00  0.00    +0.000 A 
ATOM     28  C   UNL     1       7.988   7.206  18.239  0.00  0.00    +0.000 A 
ATOM     29  N   UNL     1       7.750   6.990  16.932  0.00  0.00    +0.000 NA
ATOM     30  H   UNL     1       7.579   6.181  14.649  0.00  0.00    +0.000 HD
ENDBRANCH  20  23
ENDBRANCH   4  20
TORSDOF 6
ENDMDL
