MODEL 1
REMARK VINA RESULT:      -8.7      0.000      0.000
REMARK  Name = 
REMARK  4 active torsions:
REMARK  status: ('A' for Active; 'I' for Inactive)
REMARK    1  A    between atoms: C_2  and  C_3
REMARK    2  A    between atoms: C_9  and  C_10
REMARK    3  A    between atoms: C_12  and  C_13
REMARK    4  A    between atoms: C_18  and  C_19
REMARK                            x       y       z     vdW  Elec       q    Type
REMARK                         _______ _______ _______ _____ _____    ______ ____
ROOT
ATOM      1  C   UNL     1       3.972   5.761  18.180  0.00  0.00    +0.000 A 
ATOM      2  C   UNL     1       3.295   6.982  18.157  0.00  0.00    +0.000 A 
ATOM      3  C   UNL     1       2.367   7.290  19.161  0.00  0.00    +0.000 A 
ATOM      4  C   UNL     1       2.149   6.342  20.159  0.00  0.00    +0.000 A 
ATOM      5  C   UNL     1       2.818   5.135  20.086  0.00  0.00    +0.000 A 
ATOM      6  N   UNL     1       3.727   4.843  19.137  0.00  0.00    +0.000 NA
ENDROOT
BRANCH   3   7
ATOM      7  C   UNL     1       1.702   8.601  19.165  0.00  0.00    +0.000 A 
ATOM      8  C   UNL     1       1.708   9.587  18.191  0.00  0.00    +0.000 A 
ATOM      9  N   UNL     1       0.997  10.689  18.566  0.00  0.00    +0.000 NA
ATOM     10  C   UNL     1       0.529  10.426  19.766  0.00  0.00    +0.000 A 
ATOM     11  N   UNL     1      -0.234  11.229  20.561  0.00  0.00    +0.000 NA
ATOM     12  C   UNL     1      -0.615  10.748  21.717  0.00  0.00    +0.000 A 
ATOM     13  C   UNL     1      -0.266   9.372  22.209  0.00  0.00    +0.000 A 
ATOM     14  C   UNL     1       0.474   8.622  21.385  0.00  0.00    +0.000 A 
ATOM     15  N   UNL     1       0.905   9.142  20.167  0.00  0.00    +0.000 N 
BRANCH  12  16
ATOM     16  C   UNL     1      -1.487  11.600  22.642  0.00  0.00    +0.000 C 
ATOM     17  F   UNL     1      -2.542  12.163  21.985  0.00  0.00    +0.000 F 
ATOM     18  F   UNL     1      -2.023  10.882  23.665  0.00  0.00    +0.000 F 
ATOM     19  F   UNL     1      -0.799  12.633  23.199  0.00  0.00    +0.000 F 
ENDBRANCH  12  16
ENDBRANCH   3   7
BRANCH   1  26
ATOM     20  C   UNL     1       6.377   5.190  17.553  0.00  0.00    +0.000 A 
ATOM     21  C   UNL     1       7.325   4.836  16.578  0.00  0.00    +0.000 A 
ATOM     22  C   UNL     1       6.942   4.699  15.251  0.00  0.00    +0.000 A 
ATOM     23  F   UNL     1       7.854   4.356  14.334  0.00  0.00    +0.000 F 
ATOM     24  C   UNL     1       5.632   4.917  14.866  0.00  0.00    +0.000 A 
ATOM     25  C   UNL     1       4.681   5.265  15.829  0.00  0.00    +0.000 A 
ATOM     26  C   UNL     1       5.020   5.396  17.197  0.00  0.00    +0.000 A 
BRANCH  20  28
ATOM     27  N   UNL     1       7.288   5.482  19.972  0.00  0.00    +0.000 NA
ATOM     28  C   UNL     1       6.861   5.315  18.905  0.00  0.00    +0.000 C 
ENDBRANCH  20  28
ENDBRANCH   1  26
TORSDOF 4
ENDMDL
MODEL 2
REMARK VINA RESULT:      -8.5      0.850      1.138
REMARK  Name = 
REMARK  4 active torsions:
REMARK  status: ('A' for Active; 'I' for Inactive)
REMARK    1  A    between atoms: C_2  and  C_3
REMARK    2  A    between atoms: C_9  and  C_10
REMARK    3  A    between atoms: C_12  and  C_13
REMARK    4  A    between atoms: C_18  and  C_19
REMARK                            x       y       z     vdW  Elec       q    Type
REMARK                         _______ _______ _______ _____ _____    ______ ____
ROOT
ATOM      1  C   UNL     1       4.274   5.630  17.637  0.00  0.00    +0.000 A 
ATOM      2  C   UNL     1       3.525   6.810  17.658  0.00  0.00    +0.000 A 
ATOM      3  C   UNL     1       2.759   7.136  18.785  0.00  0.00    +0.000 A 
ATOM      4  C   UNL     1       2.770   6.249  19.859  0.00  0.00    +0.000 A 
ATOM      5  C   UNL     1       3.494   5.077  19.745  0.00  0.00    +0.000 A 
ATOM      6  N   UNL     1       4.249   4.769  18.674  0.00  0.00    +0.000 NA
ENDROOT
BRANCH   3   7
ATOM      7  C   UNL     1       2.021   8.407  18.824  0.00  0.00    +0.000 A 
ATOM      8  C   UNL     1       1.913   9.385  17.848  0.00  0.00    +0.000 A 
ATOM      9  N   UNL     1       1.164  10.448  18.261  0.00  0.00    +0.000 NA
ATOM     10  C   UNL     1       0.784  10.166  19.488  0.00  0.00    +0.000 A 
ATOM     11  N   UNL     1       0.025  10.930  20.324  0.00  0.00    +0.000 NA
ATOM     12  C   UNL     1      -0.259  10.435  21.503  0.00  0.00    +0.000 A 
ATOM     13  C   UNL     1       0.197   9.085  21.977  0.00  0.00    +0.000 A 
ATOM     14  C   UNL     1       0.929   8.373  21.113  0.00  0.00    +0.000 A 
ATOM     15  N   UNL     1       1.256   8.908  19.870  0.00  0.00    +0.000 N 
BRANCH  12  16
ATOM     16  C   UNL     1      -1.122  11.243  22.476  0.00  0.00    +0.000 C 
ATOM     17  F   UNL     1      -1.482  10.516  23.573  0.00  0.00    +0.000 F 
ATOM     18  F   UNL     1      -0.483  12.346  22.950  0.00  0.00    +0.000 F 
ATOM     19  F   UNL     1      -2.283  11.668  21.910  0.00  0.00    +0.000 F 
ENDBRANCH  12  16
ENDBRANCH   3   7
BRANCH   1  26
ATOM     20  C   UNL     1       6.544   5.583  16.478  0.00  0.00    +0.000 A 
ATOM     21  C   UNL     1       7.343   5.191  15.390  0.00  0.00    +0.000 A 
ATOM     22  C   UNL     1       6.783   4.491  14.331  0.00  0.00    +0.000 A 
ATOM     23  F   UNL     1       7.555   4.120  13.303  0.00  0.00    +0.000 F 
ATOM     24  C   UNL     1       5.436   4.177  14.323  0.00  0.00    +0.000 A 
ATOM     25  C   UNL     1       4.635   4.558  15.402  0.00  0.00    +0.000 A 
ATOM     26  C   UNL     1       5.165   5.255  16.514  0.00  0.00    +0.000 A 
BRANCH  20  28
ATOM     27  N   UNL     1       7.808   6.876  18.348  0.00  0.00    +0.000 NA
ATOM     28  C   UNL     1       7.205   6.310  17.532  0.00  0.00    +0.000 C 
ENDBRANCH  20  28
ENDBRANCH   1  26
TORSDOF 4
ENDMDL
MODEL 3
REMARK VINA RESULT:      -8.5      1.201      1.854
REMARK  Name = 
REMARK  4 active torsions:
REMARK  status: ('A' for Active; 'I' for Inactive)
REMARK    1  A    between atoms: C_2  and  C_3
REMARK    2  A    between atoms: C_9  and  C_10
REMARK    3  A    between atoms: C_12  and  C_13
REMARK    4  A    between atoms: C_18  and  C_19
REMARK                            x       y       z     vdW  Elec       q    Type
REMARK                         _______ _______ _______ _____ _____    ______ ____
ROOT
ATOM      1  C   UNL     1       3.463   5.992  18.815  0.00  0.00    +0.000 A 
ATOM      2  C   UNL     1       2.820   7.227  18.706  0.00  0.00    +0.000 A 
ATOM      3  C   UNL     1       1.898   7.629  19.682  0.00  0.00    +0.000 A 
ATOM      4  C   UNL     1       1.650   6.758  20.741  0.00  0.00    +0.000 A 
ATOM      5  C   UNL     1       2.286   5.530  20.755  0.00  0.00    +0.000 A 
ATOM      6  N   UNL     1       3.189   5.149  19.832  0.00  0.00    +0.000 NA
ENDROOT
BRANCH   3   7
ATOM      7  C   UNL     1       1.270   8.954  19.593  0.00  0.00    +0.000 A 
ATOM      8  C   UNL     1       1.290   9.862  18.546  0.00  0.00    +0.000 A 
ATOM      9  N   UNL     1       0.615  11.010  18.843  0.00  0.00    +0.000 NA
ATOM     10  C   UNL     1       0.157  10.853  20.065  0.00  0.00    +0.000 A 
ATOM     11  N   UNL     1      -0.572  11.737  20.805  0.00  0.00    +0.000 NA
ATOM     12  C   UNL     1      -0.949  11.357  21.999  0.00  0.00    +0.000 A 
ATOM     13  C   UNL     1      -0.632  10.014  22.591  0.00  0.00    +0.000 A 
ATOM     14  C   UNL     1       0.075   9.182  21.819  0.00  0.00    +0.000 A 
ATOM     15  N   UNL     1       0.503   9.594  20.560  0.00  0.00    +0.000 N 
BRANCH  12  16
ATOM     16  C   UNL     1      -1.784  12.303  22.867  0.00  0.00    +0.000 C 
ATOM     17  F   UNL     1      -2.578  13.124  22.120  0.00  0.00    +0.000 F 
ATOM     18  F   UNL     1      -2.619  11.639  23.710  0.00  0.00    +0.000 F 
ATOM     19  F   UNL     1      -1.014  13.122  23.632  0.00  0.00    +0.000 F 
ENDBRANCH  12  16
ENDBRANCH   3   7
BRANCH   1  26
ATOM     20  C   UNL     1       4.356   4.376  17.057  0.00  0.00    +0.000 A 
ATOM     21  C   UNL     1       5.373   3.994  16.166  0.00  0.00    +0.000 A 
ATOM     22  C   UNL     1       6.541   4.738  16.081  0.00  0.00    +0.000 A 
ATOM     23  F   UNL     1       7.500   4.366  15.225  0.00  0.00    +0.000 F 
ATOM     24  C   UNL     1       6.727   5.856  16.874  0.00  0.00    +0.000 A 
ATOM     25  C   UNL     1       5.719   6.247  17.759  0.00  0.00    +0.000 A 
ATOM     26  C   UNL     1       4.502   5.531  17.866  0.00  0.00    +0.000 A 
BRANCH  20  28
ATOM     27  N   UNL     1       2.201   2.922  17.163  0.00  0.00    +0.000 NA
ATOM     28  C   UNL     1       3.179   3.545  17.083  0.00  0.00    +0.000 C 
ENDBRANCH  20  28
ENDBRANCH   1  26
TORSDOF 4
ENDMDL
MODEL 4
REMARK VINA RESULT:      -8.4      2.311      3.397
REMARK  Name = 
REMARK  4 active torsions:
REMARK  status: ('A' for Active; 'I' for Inactive)
REMARK    1  A    between atoms: C_2  and  C_3
REMARK    2  A    between atoms: C_9  and  C_10
REMARK    3  A    between atoms: C_12  and  C_13
REMARK    4  A    between atoms: C_18  and  C_19
REMARK                            x       y       z     vdW  Elec       q    Type
REMARK                         _______ _______ _______ _____ _____    ______ ____
ROOT
ATOM      1  C   UNL     1       2.332   7.156  18.531  0.00  0.00    +0.000 A 
ATOM      2  C   UNL     1       1.860   7.617  19.762  0.00  0.00    +0.000 A 
ATOM      3  C   UNL     1       1.450   8.950  19.904  0.00  0.00    +0.000 A 
ATOM      4  C   UNL     1       1.538   9.780  18.789  0.00  0.00    +0.000 A 
ATOM      5  C   UNL     1       2.063   9.266  17.618  0.00  0.00    +0.000 A 
ATOM      6  N   UNL     1       2.437   7.982  17.470  0.00  0.00    +0.000 NA
ENDROOT
BRANCH   3   7
ATOM      7  C   UNL     1       0.899   9.412  21.186  0.00  0.00    +0.000 A 
ATOM      8  C   UNL     1       1.243   9.031  22.473  0.00  0.00    +0.000 A 
ATOM      9  N   UNL     1       0.485   9.658  23.419  0.00  0.00    +0.000 NA
ATOM     10  C   UNL     1      -0.339  10.441  22.759  0.00  0.00    +0.000 A 
ATOM     11  N   UNL     1      -1.300  11.264  23.269  0.00  0.00    +0.000 NA
ATOM     12  C   UNL     1      -1.992  11.982  22.421  0.00  0.00    +0.000 A 
ATOM     13  C   UNL     1      -1.785  11.954  20.934  0.00  0.00    +0.000 A 
ATOM     14  C   UNL     1      -0.821  11.140  20.488  0.00  0.00    +0.000 A 
ATOM     15  N   UNL     1      -0.104  10.354  21.385  0.00  0.00    +0.000 N 
BRANCH  12  16
ATOM     16  C   UNL     1      -3.073  12.935  22.940  0.00  0.00    +0.000 C 
ATOM     17  F   UNL     1      -4.318  12.591  22.503  0.00  0.00    +0.000 F 
ATOM     18  F   UNL     1      -3.143  12.955  24.298  0.00  0.00    +0.000 F 
ATOM     19  F   UNL     1      -2.873  14.217  22.532  0.00  0.00    +0.000 F 
ENDBRANCH  12  16
ENDBRANCH   3   7
BRANCH   1  26
ATOM     20  C   UNL     1       3.999   5.358  17.833  0.00  0.00    +0.000 A 
ATOM     21  C   UNL     1       4.305   4.002  17.625  0.00  0.00    +0.000 A 
ATOM     22  C   UNL     1       3.341   3.029  17.846  0.00  0.00    +0.000 A 
ATOM     23  F   UNL     1       3.646   1.741  17.649  0.00  0.00    +0.000 F 
ATOM     24  C   UNL     1       2.068   3.374  18.262  0.00  0.00    +0.000 A 
ATOM     25  C   UNL     1       1.756   4.719  18.475  0.00  0.00    +0.000 A 
ATOM     26  C   UNL     1       2.712   5.746  18.284  0.00  0.00    +0.000 A 
BRANCH  20  28
ATOM     27  N   UNL     1       5.909   7.039  17.292  0.00  0.00    +0.000 NA
ATOM     28  C   UNL     1       5.057   6.302  17.576  0.00  0.00    +0.000 C 
ENDBRANCH  20  28
ENDBRANCH   1  26
TORSDOF 4
ENDMDL
MODEL 5
REMARK VINA RESULT:      -8.3      1.967      2.724
REMARK  Name = 
REMARK  4 active torsions:
REMARK  status: ('A' for Active; 'I' for Inactive)
REMARK    1  A    between atoms: C_2  and  C_3
REMARK    2  A    between atoms: C_9  and  C_10
REMARK    3  A    between atoms: C_12  and  C_13
REMARK    4  A    between atoms: C_18  and  C_19
REMARK                            x       y       z     vdW  Elec       q    Type
REMARK                         _______ _______ _______ _____ _____    ______ ____
ROOT
ATOM      1  C   UNL     1       3.793   4.989  18.278  0.00  0.00    +0.000 A 
ATOM      2  C   UNL     1       3.239   6.177  18.761  0.00  0.00    +0.000 A 
ATOM      3  C   UNL     1       2.266   6.140  19.770  0.00  0.00    +0.000 A 
ATOM      4  C   UNL     1       1.880   4.892  20.256  0.00  0.00    +0.000 A 
ATOM      5  C   UNL     1       2.436   3.759  19.693  0.00  0.00    +0.000 A 
ATOM      6  N   UNL     1       3.385   3.790  18.740  0.00  0.00    +0.000 NA
ENDROOT
BRANCH   3   7
ATOM      7  C   UNL     1       1.731   7.395  20.315  0.00  0.00    +0.000 A 
ATOM      8  C   UNL     1       1.210   7.649  21.575  0.00  0.00    +0.000 A 
ATOM      9  N   UNL     1       0.778   8.936  21.707  0.00  0.00    +0.000 NA
ATOM     10  C   UNL     1       1.017   9.517  20.552  0.00  0.00    +0.000 A 
ATOM     11  N   UNL     1       0.750  10.805  20.191  0.00  0.00    +0.000 NA
ATOM     12  C   UNL     1       1.103  11.181  18.989  0.00  0.00    +0.000 A 
ATOM     13  C   UNL     1       1.784  10.284  17.996  0.00  0.00    +0.000 A 
ATOM     14  C   UNL     1       2.034   9.035  18.404  0.00  0.00    +0.000 A 
ATOM     15  N   UNL     1       1.633   8.623  19.672  0.00  0.00    +0.000 N 
BRANCH  12  16
ATOM     16  C   UNL     1       0.842  12.621  18.538  0.00  0.00    +0.000 C 
ATOM     17  F   UNL     1       1.794  13.072  17.670  0.00  0.00    +0.000 F 
ATOM     18  F   UNL     1      -0.348  12.759  17.895  0.00  0.00    +0.000 F 
ATOM     19  F   UNL     1       0.837  13.498  19.578  0.00  0.00    +0.000 F 
ENDBRANCH  12  16
ENDBRANCH   3   7
BRANCH   1  26
ATOM     20  C   UNL     1       6.249   5.081  17.600  0.00  0.00    +0.000 A 
ATOM     21  C   UNL     1       7.234   5.028  16.600  0.00  0.00    +0.000 A 
ATOM     22  C   UNL     1       6.869   4.863  15.271  0.00  0.00    +0.000 A 
ATOM     23  F   UNL     1       7.817   4.809  14.328  0.00  0.00    +0.000 F 
ATOM     24  C   UNL     1       5.538   4.758  14.910  0.00  0.00    +0.000 A 
ATOM     25  C   UNL     1       4.552   4.806  15.898  0.00  0.00    +0.000 A 
ATOM     26  C   UNL     1       4.876   4.952  17.268  0.00  0.00    +0.000 A 
BRANCH  20  28
ATOM     27  N   UNL     1       7.166   5.403  20.013  0.00  0.00    +0.000 NA
ATOM     28  C   UNL     1       6.715   5.259  18.952  0.00  0.00    +0.000 C 
ENDBRANCH  20  28
ENDBRANCH   1  26
TORSDOF 4
ENDMDL
MODEL 6
REMARK VINA RESULT:      -8.2      2.244      3.139
REMARK  Name = 
REMARK  4 active torsions:
REMARK  status: ('A' for Active; 'I' for Inactive)
REMARK    1  A    between atoms: C_2  and  C_3
REMARK    2  A    between atoms: C_9  and  C_10
REMARK    3  A    between atoms: C_12  and  C_13
REMARK    4  A    between atoms: C_18  and  C_19
REMARK                            x       y       z     vdW  Elec       q    Type
REMARK                         _______ _______ _______ _____ _____    ______ ____
ROOT
ATOM      1  C   UNL     1       4.313   4.187  17.148  0.00  0.00    +0.000 A 
ATOM      2  C   UNL     1       3.696   5.240  17.827  0.00  0.00    +0.000 A 
ATOM      3  C   UNL     1       2.840   4.976  18.905  0.00  0.00    +0.000 A 
ATOM      4  C   UNL     1       2.631   3.644  19.259  0.00  0.00    +0.000 A 
ATOM      5  C   UNL     1       3.236   2.654  18.507  0.00  0.00    +0.000 A 
ATOM      6  N   UNL     1       4.076   2.903  17.486  0.00  0.00    +0.000 NA
ENDROOT
BRANCH   3   7
ATOM      7  C   UNL     1       2.242   6.090  19.652  0.00  0.00    +0.000 A 
ATOM      8  C   UNL     1       1.702   6.096  20.929  0.00  0.00    +0.000 A 
ATOM      9  N   UNL     1       1.207   7.319  21.277  0.00  0.00    +0.000 NA
ATOM     10  C   UNL     1       1.425   8.103  20.244  0.00  0.00    +0.000 A 
ATOM     11  N   UNL     1       1.097   9.420  20.109  0.00  0.00    +0.000 NA
ATOM     12  C   UNL     1       1.438  10.016  18.995  0.00  0.00    +0.000 A 
ATOM     13  C   UNL     1       2.167   9.338  17.870  0.00  0.00    +0.000 A 
ATOM     14  C   UNL     1       2.475   8.050  18.059  0.00  0.00    +0.000 A 
ATOM     15  N   UNL     1       2.088   7.406  19.231  0.00  0.00    +0.000 N 
BRANCH  12  16
ATOM     16  C   UNL     1       1.109  11.498  18.797  0.00  0.00    +0.000 C 
ATOM     17  F   UNL     1       1.968  12.107  17.930  0.00  0.00    +0.000 F 
ATOM     18  F   UNL     1      -0.138  11.694  18.291  0.00  0.00    +0.000 F 
ATOM     19  F   UNL     1       1.183  12.206  19.957  0.00  0.00    +0.000 F 
ENDBRANCH  12  16
ENDBRANCH   3   7
BRANCH   1  26
ATOM     20  C   UNL     1       6.662   4.655  16.272  0.00  0.00    +0.000 A 
ATOM     21  C   UNL     1       7.540   4.829  15.190  0.00  0.00    +0.000 A 
ATOM     22  C   UNL     1       7.065   4.757  13.888  0.00  0.00    +0.000 A 
ATOM     23  F   UNL     1       7.913   4.920  12.866  0.00  0.00    +0.000 F 
ATOM     24  C   UNL     1       5.725   4.525  13.635  0.00  0.00    +0.000 A 
ATOM     25  C   UNL     1       4.845   4.346  14.705  0.00  0.00    +0.000 A 
ATOM     26  C   UNL     1       5.287   4.389  16.049  0.00  0.00    +0.000 A 
BRANCH  20  28
ATOM     27  N   UNL     1       7.716   4.903  18.637  0.00  0.00    +0.000 NA
ATOM     28  C   UNL     1       7.238   4.749  17.589  0.00  0.00    +0.000 C 
ENDBRANCH  20  28
ENDBRANCH   1  26
TORSDOF 4
ENDMDL
MODEL 7
REMARK VINA RESULT:      -8.2      3.662      9.612
REMARK  Name = 
REMARK  4 active torsions:
REMARK  status: ('A' for Active; 'I' for Inactive)
REMARK    1  A    between atoms: C_2  and  C_3
REMARK    2  A    between atoms: C_9  and  C_10
REMARK    3  A    between atoms: C_12  and  C_13
REMARK    4  A    between atoms: C_18  and  C_19
REMARK                            x       y       z     vdW  Elec       q    Type
REMARK                         _______ _______ _______ _____ _____    ______ ____
ROOT
ATOM      1  C   UNL     1      -1.882  11.752  18.778  0.00  0.00    +0.000 A 
ATOM      2  C   UNL     1      -1.241  10.568  19.150  0.00  0.00    +0.000 A 
ATOM      3  C   UNL     1       0.141  10.561  19.387  0.00  0.00    +0.000 A 
ATOM      4  C   UNL     1       0.834  11.760  19.233  0.00  0.00    +0.000 A 
ATOM      5  C   UNL     1       0.140  12.879  18.813  0.00  0.00    +0.000 A 
ATOM      6  N   UNL     1      -1.190  12.896  18.605  0.00  0.00    +0.000 NA
ENDROOT
BRANCH   3   7
ATOM      7  C   UNL     1       0.799   9.326  19.835  0.00  0.00    +0.000 A 
ATOM      8  C   UNL     1       0.717   8.689  21.064  0.00  0.00    +0.000 A 
ATOM      9  N   UNL     1       1.501   7.573  21.122  0.00  0.00    +0.000 NA
ATOM     10  C   UNL     1       2.083   7.480  19.947  0.00  0.00    +0.000 A 
ATOM     11  N   UNL     1       2.969   6.533  19.524  0.00  0.00    +0.000 NA
ATOM     12  C   UNL     1       3.404   6.620  18.293  0.00  0.00    +0.000 A 
ATOM     13  C   UNL     1       2.982   7.690  17.328  0.00  0.00    +0.000 A 
ATOM     14  C   UNL     1       2.103   8.587  17.789  0.00  0.00    +0.000 A 
ATOM     15  N   UNL     1       1.661   8.514  19.107  0.00  0.00    +0.000 N 
BRANCH  12  16
ATOM     16  C   UNL     1       4.388   5.573  17.761  0.00  0.00    +0.000 C 
ATOM     17  F   UNL     1       5.148   6.053  16.735  0.00  0.00    +0.000 F 
ATOM     18  F   UNL     1       5.264   5.150  18.711  0.00  0.00    +0.000 F 
ATOM     19  F   UNL     1       3.759   4.468  17.278  0.00  0.00    +0.000 F 
ENDBRANCH  12  16
ENDBRANCH   3   7
BRANCH   1  26
ATOM     20  C   UNL     1      -3.996  11.486  17.377  0.00  0.00    +0.000 A 
ATOM     21  C   UNL     1      -5.391  11.596  17.254  0.00  0.00    +0.000 A 
ATOM     22  C   UNL     1      -6.148  12.082  18.311  0.00  0.00    +0.000 A 
ATOM     23  F   UNL     1      -7.476  12.177  18.183  0.00  0.00    +0.000 F 
ATOM     24  C   UNL     1      -5.544  12.473  19.493  0.00  0.00    +0.000 A 
ATOM     25  C   UNL     1      -4.158  12.363  19.626  0.00  0.00    +0.000 A 
ATOM     26  C   UNL     1      -3.347  11.854  18.583  0.00  0.00    +0.000 A 
BRANCH  20  28
ATOM     27  N   UNL     1      -2.701  10.642  15.285  0.00  0.00    +0.000 NA
ATOM     28  C   UNL     1      -3.287  10.977  16.230  0.00  0.00    +0.000 C 
ENDBRANCH  20  28
ENDBRANCH   1  26
TORSDOF 4
ENDMDL
MODEL 8
REMARK VINA RESULT:      -8.0      2.270      9.229
REMARK  Name = 
REMARK  4 active torsions:
REMARK  status: ('A' for Active; 'I' for Inactive)
REMARK    1  A    between atoms: C_2  and  C_3
REMARK    2  A    between atoms: C_9  and  C_10
REMARK    3  A    between atoms: C_12  and  C_13
REMARK    4  A    between atoms: C_18  and  C_19
REMARK                            x       y       z     vdW  Elec       q    Type
REMARK                         _______ _______ _______ _____ _____    ______ ____
ROOT
ATOM      1  C   UNL     1       2.705   6.043  19.865  0.00  0.00    +0.000 A 
ATOM      2  C   UNL     1       3.860   5.984  19.082  0.00  0.00    +0.000 A 
ATOM      3  C   UNL     1       4.515   4.760  18.885  0.00  0.00    +0.000 A 
ATOM      4  C   UNL     1       3.977   3.629  19.495  0.00  0.00    +0.000 A 
ATOM      5  C   UNL     1       2.860   3.774  20.297  0.00  0.00    +0.000 A 
ATOM      6  N   UNL     1       2.216   4.942  20.472  0.00  0.00    +0.000 NA
ENDROOT
BRANCH   3   7
ATOM      7  C   UNL     1       5.695   4.695  18.012  0.00  0.00    +0.000 A 
ATOM      8  C   UNL     1       7.036   4.814  18.345  0.00  0.00    +0.000 A 
ATOM      9  N   UNL     1       7.850   4.731  17.253  0.00  0.00    +0.000 NA
ATOM     10  C   UNL     1       7.053   4.556  16.222  0.00  0.00    +0.000 A 
ATOM     11  N   UNL     1       7.400   4.427  14.910  0.00  0.00    +0.000 NA
ATOM     12  C   UNL     1       6.435   4.230  14.047  0.00  0.00    +0.000 A 
ATOM     13  C   UNL     1       4.984   4.133  14.419  0.00  0.00    +0.000 A 
ATOM     14  C   UNL     1       4.700   4.254  15.721  0.00  0.00    +0.000 A 
ATOM     15  N   UNL     1       5.721   4.493  16.637  0.00  0.00    +0.000 N 
BRANCH  12  16
ATOM     16  C   UNL     1       6.770   4.062  12.562  0.00  0.00    +0.000 C 
ATOM     17  F   UNL     1       7.376   2.869  12.300  0.00  0.00    +0.000 F 
ATOM     18  F   UNL     1       5.665   4.104  11.770  0.00  0.00    +0.000 F 
ATOM     19  F   UNL     1       7.621   5.022  12.110  0.00  0.00    +0.000 F 
ENDBRANCH  12  16
ENDBRANCH   3   7
BRANCH   1  26
ATOM     20  C   UNL     1       1.868   8.326  19.097  0.00  0.00    +0.000 A 
ATOM     21  C   UNL     1       1.095   9.476  19.330  0.00  0.00    +0.000 A 
ATOM     22  C   UNL     1       0.383   9.608  20.514  0.00  0.00    +0.000 A 
ATOM     23  F   UNL     1      -0.352  10.707  20.723  0.00  0.00    +0.000 F 
ATOM     24  C   UNL     1       0.430   8.622  21.483  0.00  0.00    +0.000 A 
ATOM     25  C   UNL     1       1.192   7.473  21.258  0.00  0.00    +0.000 A 
ATOM     26  C   UNL     1       1.918   7.283  20.057  0.00  0.00    +0.000 A 
BRANCH  20  28
ATOM     27  N   UNL     1       3.130   8.305  16.822  0.00  0.00    +0.000 NA
ATOM     28  C   UNL     1       2.577   8.271  17.844  0.00  0.00    +0.000 C 
ENDBRANCH  20  28
ENDBRANCH   1  26
TORSDOF 4
ENDMDL
MODEL 9
REMARK VINA RESULT:      -7.9      2.432      3.727
REMARK  Name = 
REMARK  4 active torsions:
REMARK  status: ('A' for Active; 'I' for Inactive)
REMARK    1  A    between atoms: C_2  and  C_3
REMARK    2  A    between atoms: C_9  and  C_10
REMARK    3  A    between atoms: C_12  and  C_13
REMARK    4  A    between atoms: C_18  and  C_19
REMARK                            x       y       z     vdW  Elec       q    Type
REMARK                         _______ _______ _______ _____ _____    ______ ____
ROOT
ATOM      1  C   UNL     1       2.447   6.893  19.279  0.00  0.00    +0.000 A 
ATOM      2  C   UNL     1       1.882   7.557  20.371  0.00  0.00    +0.000 A 
ATOM      3  C   UNL     1       1.276   8.809  20.195  0.00  0.00    +0.000 A 
ATOM      4  C   UNL     1       1.267   9.354  18.913  0.00  0.00    +0.000 A 
ATOM      5  C   UNL     1       1.891   8.661  17.892  0.00  0.00    +0.000 A 
ATOM      6  N   UNL     1       2.454   7.449  18.051  0.00  0.00    +0.000 NA
ENDROOT
BRANCH   3   7
ATOM      7  C   UNL     1       0.631   9.475  21.335  0.00  0.00    +0.000 A 
ATOM      8  C   UNL     1       0.824   9.266  22.692  0.00  0.00    +0.000 A 
ATOM      9  N   UNL     1       0.016  10.057  23.457  0.00  0.00    +0.000 NA
ATOM     10  C   UNL     1      -0.690  10.775  22.613  0.00  0.00    +0.000 A 
ATOM     11  N   UNL     1      -1.644  11.706  22.900  0.00  0.00    +0.000 NA
ATOM     12  C   UNL     1      -2.205  12.327  21.893  0.00  0.00    +0.000 A 
ATOM     13  C   UNL     1      -1.855  12.078  20.454  0.00  0.00    +0.000 A 
ATOM     14  C   UNL     1      -0.904  11.164  20.229  0.00  0.00    +0.000 A 
ATOM     15  N   UNL     1      -0.327  10.481  21.296  0.00  0.00    +0.000 N 
BRANCH  12  16
ATOM     16  C   UNL     1      -3.271  13.394  22.159  0.00  0.00    +0.000 C 
ATOM     17  F   UNL     1      -3.376  13.700  23.485  0.00  0.00    +0.000 F 
ATOM     18  F   UNL     1      -3.008  14.566  21.523  0.00  0.00    +0.000 F 
ATOM     19  F   UNL     1      -4.512  12.997  21.767  0.00  0.00    +0.000 F 
ENDBRANCH  12  16
ENDBRANCH   3   7
BRANCH   1  26
ATOM     20  C   UNL     1       4.267   5.185  18.759  0.00  0.00    +0.000 A 
ATOM     21  C   UNL     1       4.783   3.885  18.890  0.00  0.00    +0.000 A 
ATOM     22  C   UNL     1       4.084   2.926  19.610  0.00  0.00    +0.000 A 
ATOM     23  F   UNL     1       4.589   1.693  19.731  0.00  0.00    +0.000 F 
ATOM     24  C   UNL     1       2.870   3.230  20.200  0.00  0.00    +0.000 A 
ATOM     25  C   UNL     1       2.351   4.522  20.079  0.00  0.00    +0.000 A 
ATOM     26  C   UNL     1       3.037   5.538  19.372  0.00  0.00    +0.000 A 
BRANCH  20  28
ATOM     27  N   UNL     1       5.709   6.805  17.323  0.00  0.00    +0.000 NA
ATOM     28  C   UNL     1       5.055   6.115  17.991  0.00  0.00    +0.000 C 
ENDBRANCH  20  28
ENDBRANCH   1  26
TORSDOF 4
ENDMDL
