MODEL 1
REMARK VINA RESULT:      -7.8      0.000      0.000
REMARK  Name = 
REMARK  8 active torsions:
REMARK  status: ('A' for Active; 'I' for Inactive)
REMARK    1  A    between atoms: C_1  and  C_2
REMARK    2  A    between atoms: C_2  and  C_3
REMARK    3  A    between atoms: C_3  and  N_4
REMARK    4  A    between atoms: C_3  and  C_18
REMARK    5  A    between atoms: N_7  and  C_8
REMARK    6  A    between atoms: C_12  and  O_13
REMARK    7  A    between atoms: O_13  and  C_14
REMARK    8  A    between atoms: C_21  and  C_22
REMARK                            x       y       z     vdW  Elec       q    Type
REMARK                         _______ _______ _______ _____ _____    ______ ____
ROOT
ATOM      1  N   UNL     1       5.443   4.557  18.049  0.00  0.00    +0.000 N 
ATOM      2  C   UNL     1       4.814   5.755  18.267  0.00  0.00    +0.000 C 
ATOM      3  O   UNL     1       5.372   6.834  18.094  0.00  0.00    +0.000 OA
ATOM      4  N   UNL     1       3.532   5.609  18.750  0.00  0.00    +0.000 N 
ATOM      5  H   UNL     1       4.884   3.726  17.907  0.00  0.00    +0.000 HD
ATOM      6  H   UNL     1       3.434   4.831  19.389  0.00  0.00    +0.000 HD
ENDROOT
BRANCH   4   7
ATOM      7  C   UNL     1       2.727   6.746  18.993  0.00  0.00    +0.000 A 
ATOM      8  C   UNL     1       2.530   7.720  18.010  0.00  0.00    +0.000 A 
ATOM      9  C   UNL     1       1.790   8.870  18.295  0.00  0.00    +0.000 A 
ATOM     10  F   UNL     1       1.625   9.757  17.302  0.00  0.00    +0.000 F 
ATOM     11  C   UNL     1       1.250   9.084  19.562  0.00  0.00    +0.000 A 
ATOM     12  C   UNL     1       1.438   8.082  20.521  0.00  0.00    +0.000 A 
ATOM     13  F   UNL     1       0.952   8.246  21.763  0.00  0.00    +0.000 F 
ATOM     14  C   UNL     1       2.140   6.908  20.243  0.00  0.00    +0.000 A 
BRANCH  11  15
ATOM     15  O   UNL     1       0.549  10.180  19.986  0.00  0.00    +0.000 OA
ATOM     16  C   UNL     1      -0.784  10.328  19.511  0.00  0.00    +0.000 C 
ENDBRANCH  11  15
ENDBRANCH   4   7
BRANCH   1  17
ATOM     17  C   UNL     1       6.828   4.523  17.578  0.00  0.00    +0.000 C 
BRANCH  17  18
ATOM     18  C   UNL     1       6.831   4.545  16.073  0.00  0.00    +0.000 A 
ATOM     19  N   UNL     1       7.430   5.521  15.377  0.00  0.00    +0.000 NA
ATOM     20  O   UNL     1       7.103   5.225  14.056  0.00  0.00    +0.000 OA
ATOM     21  C   UNL     1       6.337   4.097  14.088  0.00  0.00    +0.000 A 
ATOM     22  C   UNL     1       5.838   3.603  12.792  0.00  0.00    +0.000 C 
ATOM     23  N   UNL     1       6.143   3.628  15.302  0.00  0.00    +0.000 NA
ENDBRANCH  17  18
BRANCH  17  25
ATOM     24  C   UNL     1       8.125   5.557  19.560  0.00  0.00    +0.000 C 
ATOM     25  C   UNL     1       7.686   5.690  18.111  0.00  0.00    +0.000 C 
ENDBRANCH  17  25
ENDBRANCH   1  17
TORSDOF 5
ENDMDL
MODEL 2
REMARK VINA RESULT:      -7.7      2.076      2.847
REMARK  Name = 
REMARK  8 active torsions:
REMARK  status: ('A' for Active; 'I' for Inactive)
REMARK    1  A    between atoms: C_1  and  C_2
REMARK    2  A    between atoms: C_2  and  C_3
REMARK    3  A    between atoms: C_3  and  N_4
REMARK    4  A    between atoms: C_3  and  C_18
REMARK    5  A    between atoms: N_7  and  C_8
REMARK    6  A    between atoms: C_12  and  O_13
REMARK    7  A    between atoms: O_13  and  C_14
REMARK    8  A    between atoms: C_21  and  C_22
REMARK                            x       y       z     vdW  Elec       q    Type
REMARK                         _______ _______ _______ _____ _____    ______ ____
ROOT
ATOM      1  N   UNL     1       3.724   5.047  19.538  0.00  0.00    +0.000 N 
ATOM      2  C   UNL     1       2.706   5.947  19.355  0.00  0.00    +0.000 C 
ATOM      3  O   UNL     1       1.907   5.859  18.429  0.00  0.00    +0.000 OA
ATOM      4  N   UNL     1       2.724   6.973  20.275  0.00  0.00    +0.000 N 
ATOM      5  H   UNL     1       4.158   4.973  20.449  0.00  0.00    +0.000 HD
ATOM      6  H   UNL     1       3.659   7.268  20.524  0.00  0.00    +0.000 HD
ENDROOT
BRANCH   4   7
ATOM      7  C   UNL     1       1.720   7.968  20.252  0.00  0.00    +0.000 A 
ATOM      8  C   UNL     1       1.603   8.858  19.180  0.00  0.00    +0.000 A 
ATOM      9  C   UNL     1       0.650   9.878  19.210  0.00  0.00    +0.000 A 
ATOM     10  F   UNL     1       0.580  10.687  18.142  0.00  0.00    +0.000 F 
ATOM     11  C   UNL     1      -0.190  10.047  20.309  0.00  0.00    +0.000 A 
ATOM     12  C   UNL     1      -0.073   9.128  21.359  0.00  0.00    +0.000 A 
ATOM     13  F   UNL     1      -0.847   9.256  22.449  0.00  0.00    +0.000 F 
ATOM     14  C   UNL     1       0.846   8.078  21.328  0.00  0.00    +0.000 A 
BRANCH  11  15
ATOM     15  O   UNL     1      -1.129  11.026  20.488  0.00  0.00    +0.000 OA
ATOM     16  C   UNL     1      -0.676  12.292  20.951  0.00  0.00    +0.000 C 
ENDBRANCH  11  15
ENDBRANCH   4   7
BRANCH   1  17
ATOM     17  C   UNL     1       3.886   3.916  18.625  0.00  0.00    +0.000 C 
BRANCH  17  18
ATOM     18  C   UNL     1       5.135   4.123  17.812  0.00  0.00    +0.000 A 
ATOM     19  N   UNL     1       6.329   4.338  18.384  0.00  0.00    +0.000 NA
ATOM     20  O   UNL     1       7.168   4.585  17.299  0.00  0.00    +0.000 OA
ATOM     21  C   UNL     1       6.393   4.494  16.180  0.00  0.00    +0.000 A 
ATOM     22  C   UNL     1       7.064   4.753  14.892  0.00  0.00    +0.000 C 
ATOM     23  N   UNL     1       5.135   4.203  16.433  0.00  0.00    +0.000 NA
ENDBRANCH  17  18
BRANCH  17  25
ATOM     24  C   UNL     1       3.608   1.350  18.484  0.00  0.00    +0.000 C 
ATOM     25  C   UNL     1       3.961   2.553  19.345  0.00  0.00    +0.000 C 
ENDBRANCH  17  25
ENDBRANCH   1  17
TORSDOF 5
ENDMDL
MODEL 3
REMARK VINA RESULT:      -7.6      5.420      7.608
REMARK  Name = 
REMARK  8 active torsions:
REMARK  status: ('A' for Active; 'I' for Inactive)
REMARK    1  A    between atoms: C_1  and  C_2
REMARK    2  A    between atoms: C_2  and  C_3
REMARK    3  A    between atoms: C_3  and  N_4
REMARK    4  A    between atoms: C_3  and  C_18
REMARK    5  A    between atoms: N_7  and  C_8
REMARK    6  A    between atoms: C_12  and  O_13
REMARK    7  A    between atoms: O_13  and  C_14
REMARK    8  A    between atoms: C_21  and  C_22
REMARK                            x       y       z     vdW  Elec       q    Type
REMARK                         _______ _______ _______ _____ _____    ______ ____
ROOT
ATOM      1  N   UNL     1       6.969   7.723  17.223  0.00  0.00    +0.000 N 
ATOM      2  C   UNL     1       7.974   8.316  17.943  0.00  0.00    +0.000 C 
ATOM      3  O   UNL     1       8.676   7.691  18.731  0.00  0.00    +0.000 OA
ATOM      4  N   UNL     1       8.059   9.674  17.729  0.00  0.00    +0.000 N 
ATOM      5  H   UNL     1       6.627   8.180  16.388  0.00  0.00    +0.000 HD
ATOM      6  H   UNL     1       7.157  10.115  17.609  0.00  0.00    +0.000 HD
ENDROOT
BRANCH   4   7
ATOM      7  C   UNL     1       9.068  10.434  18.366  0.00  0.00    +0.000 A 
ATOM      8  C   UNL     1       9.004  10.726  19.732  0.00  0.00    +0.000 A 
ATOM      9  C   UNL     1       9.973  11.537  20.326  0.00  0.00    +0.000 A 
ATOM     10  F   UNL     1       9.862  11.765  21.643  0.00  0.00    +0.000 F 
ATOM     11  C   UNL     1      11.009  12.089  19.575  0.00  0.00    +0.000 A 
ATOM     12  C   UNL     1      11.068  11.760  18.216  0.00  0.00    +0.000 A 
ATOM     13  F   UNL     1      12.037  12.278  17.444  0.00  0.00    +0.000 F 
ATOM     14  C   UNL     1      10.131  10.919  17.613  0.00  0.00    +0.000 A 
BRANCH  11  15
ATOM     15  O   UNL     1      11.992  12.932  20.019  0.00  0.00    +0.000 OA
ATOM     16  C   UNL     1      11.742  14.329  19.936  0.00  0.00    +0.000 C 
ENDBRANCH  11  15
ENDBRANCH   4   7
BRANCH   1  17
ATOM     17  C   UNL     1       6.704   6.291  17.360  0.00  0.00    +0.000 C 
BRANCH  17  18
ATOM     18  C   UNL     1       5.307   6.103  17.888  0.00  0.00    +0.000 A 
ATOM     19  N   UNL     1       4.247   6.694  17.319  0.00  0.00    +0.000 NA
ATOM     20  O   UNL     1       3.194   6.355  18.167  0.00  0.00    +0.000 OA
ATOM     21  C   UNL     1       3.728   5.592  19.163  0.00  0.00    +0.000 A 
ATOM     22  C   UNL     1       2.798   5.136  20.213  0.00  0.00    +0.000 C 
ATOM     23  N   UNL     1       5.023   5.396  19.039  0.00  0.00    +0.000 NA
ENDBRANCH  17  18
BRANCH  17  25
ATOM     24  C   UNL     1       6.321   4.089  16.061  0.00  0.00    +0.000 C 
ATOM     25  C   UNL     1       6.865   5.508  16.039  0.00  0.00    +0.000 C 
ENDBRANCH  17  25
ENDBRANCH   1  17
TORSDOF 5
ENDMDL
MODEL 4
REMARK VINA RESULT:      -7.6      0.497      1.792
REMARK  Name = 
REMARK  8 active torsions:
REMARK  status: ('A' for Active; 'I' for Inactive)
REMARK    1  A    between atoms: C_1  and  C_2
REMARK    2  A    between atoms: C_2  and  C_3
REMARK    3  A    between atoms: C_3  and  N_4
REMARK    4  A    between atoms: C_3  and  C_18
REMARK    5  A    between atoms: N_7  and  C_8
REMARK    6  A    between atoms: C_12  and  O_13
REMARK    7  A    between atoms: O_13  and  C_14
REMARK    8  A    between atoms: C_21  and  C_22
REMARK                            x       y       z     vdW  Elec       q    Type
REMARK                         _______ _______ _______ _____ _____    ______ ____
ROOT
ATOM      1  N   UNL     1       5.283   4.653  17.801  0.00  0.00    +0.000 N 
ATOM      2  C   UNL     1       4.735   5.858  18.158  0.00  0.00    +0.000 C 
ATOM      3  O   UNL     1       5.384   6.899  18.174  0.00  0.00    +0.000 OA
ATOM      4  N   UNL     1       3.417   5.754  18.547  0.00  0.00    +0.000 N 
ATOM      5  H   UNL     1       4.672   3.901  17.511  0.00  0.00    +0.000 HD
ATOM      6  H   UNL     1       3.220   4.906  19.061  0.00  0.00    +0.000 HD
ENDROOT
BRANCH   4   7
ATOM      7  C   UNL     1       2.689   6.910  18.912  0.00  0.00    +0.000 A 
ATOM      8  C   UNL     1       2.180   7.072  20.204  0.00  0.00    +0.000 A 
ATOM      9  C   UNL     1       1.403   8.188  20.522  0.00  0.00    +0.000 A 
ATOM     10  F   UNL     1       0.960   8.289  21.784  0.00  0.00    +0.000 F 
ATOM     11  C   UNL     1       1.101   9.152  19.563  0.00  0.00    +0.000 A 
ATOM     12  C   UNL     1       1.643   8.983  18.284  0.00  0.00    +0.000 A 
ATOM     13  F   UNL     1       1.369   9.875  17.317  0.00  0.00    +0.000 F 
ATOM     14  C   UNL     1       2.455   7.895  17.958  0.00  0.00    +0.000 A 
BRANCH  11  15
ATOM     15  O   UNL     1       0.318  10.263  19.727  0.00  0.00    +0.000 OA
ATOM     16  C   UNL     1       0.914  11.400  20.338  0.00  0.00    +0.000 C 
ENDBRANCH  11  15
ENDBRANCH   4   7
BRANCH   1  17
ATOM     17  C   UNL     1       6.688   4.568  17.403  0.00  0.00    +0.000 C 
BRANCH  17  18
ATOM     18  C   UNL     1       6.768   4.549  15.900  0.00  0.00    +0.000 A 
ATOM     19  N   UNL     1       7.443   5.480  15.212  0.00  0.00    +0.000 NA
ATOM     20  O   UNL     1       7.171   5.162  13.883  0.00  0.00    +0.000 OA
ATOM     21  C   UNL     1       6.356   4.068  13.905  0.00  0.00    +0.000 A 
ATOM     22  C   UNL     1       5.901   3.561  12.597  0.00  0.00    +0.000 C 
ATOM     23  N   UNL     1       6.080   3.641  15.118  0.00  0.00    +0.000 NA
ENDBRANCH  17  18
BRANCH  17  25
ATOM     24  C   UNL     1       8.144   5.490  19.329  0.00  0.00    +0.000 C 
ATOM     25  C   UNL     1       7.552   5.725  17.949  0.00  0.00    +0.000 C 
ENDBRANCH  17  25
ENDBRANCH   1  17
TORSDOF 5
ENDMDL
MODEL 5
REMARK VINA RESULT:      -7.5      1.930      3.025
REMARK  Name = 
REMARK  8 active torsions:
REMARK  status: ('A' for Active; 'I' for Inactive)
REMARK    1  A    between atoms: C_1  and  C_2
REMARK    2  A    between atoms: C_2  and  C_3
REMARK    3  A    between atoms: C_3  and  N_4
REMARK    4  A    between atoms: C_3  and  C_18
REMARK    5  A    between atoms: N_7  and  C_8
REMARK    6  A    between atoms: C_12  and  O_13
REMARK    7  A    between atoms: O_13  and  C_14
REMARK    8  A    between atoms: C_21  and  C_22
REMARK                            x       y       z     vdW  Elec       q    Type
REMARK                         _______ _______ _______ _____ _____    ______ ____
ROOT
ATOM      1  N   UNL     1       3.716   4.871  18.870  0.00  0.00    +0.000 N 
ATOM      2  C   UNL     1       2.754   5.848  18.858  0.00  0.00    +0.000 C 
ATOM      3  O   UNL     1       1.936   5.956  17.950  0.00  0.00    +0.000 OA
ATOM      4  N   UNL     1       2.850   6.710  19.928  0.00  0.00    +0.000 N 
ATOM      5  H   UNL     1       4.159   4.627  19.746  0.00  0.00    +0.000 HD
ATOM      6  H   UNL     1       3.805   6.906  20.197  0.00  0.00    +0.000 HD
ENDROOT
BRANCH   4   7
ATOM      7  C   UNL     1       1.909   7.754  20.089  0.00  0.00    +0.000 A 
ATOM      8  C   UNL     1       1.062   7.804  21.200  0.00  0.00    +0.000 A 
ATOM      9  C   UNL     1       0.093   8.804  21.303  0.00  0.00    +0.000 A 
ATOM     10  F   UNL     1      -0.677   8.804  22.402  0.00  0.00    +0.000 F 
ATOM     11  C   UNL     1      -0.067   9.759  20.301  0.00  0.00    +0.000 A 
ATOM     12  C   UNL     1       0.810   9.705  19.211  0.00  0.00    +0.000 A 
ATOM     13  F   UNL     1       0.688  10.591  18.210  0.00  0.00    +0.000 F 
ATOM     14  C   UNL     1       1.811   8.737  19.111  0.00  0.00    +0.000 A 
BRANCH  11  15
ATOM     15  O   UNL     1      -1.001  10.758  20.254  0.00  0.00    +0.000 OA
ATOM     16  C   UNL     1      -0.776  11.903  21.068  0.00  0.00    +0.000 C 
ENDBRANCH  11  15
ENDBRANCH   4   7
BRANCH   1  17
ATOM     17  C   UNL     1       3.794   3.894  17.785  0.00  0.00    +0.000 C 
BRANCH  17  18
ATOM     18  C   UNL     1       5.060   4.128  17.007  0.00  0.00    +0.000 A 
ATOM     19  N   UNL     1       6.225   4.406  17.611  0.00  0.00    +0.000 NA
ATOM     20  O   UNL     1       7.089   4.658  16.548  0.00  0.00    +0.000 OA
ATOM     21  C   UNL     1       6.357   4.507  15.407  0.00  0.00    +0.000 A 
ATOM     22  C   UNL     1       7.059   4.759  14.136  0.00  0.00    +0.000 C 
ATOM     23  N   UNL     1       5.103   4.173  15.628  0.00  0.00    +0.000 NA
ENDBRANCH  17  18
BRANCH  17  25
ATOM     24  C   UNL     1       4.175   2.223  19.721  0.00  0.00    +0.000 C 
ATOM     25  C   UNL     1       3.755   2.430  18.274  0.00  0.00    +0.000 C 
ENDBRANCH  17  25
ENDBRANCH   1  17
TORSDOF 5
ENDMDL
MODEL 6
REMARK VINA RESULT:      -7.5      4.468      7.923
REMARK  Name = 
REMARK  8 active torsions:
REMARK  status: ('A' for Active; 'I' for Inactive)
REMARK    1  A    between atoms: C_1  and  C_2
REMARK    2  A    between atoms: C_2  and  C_3
REMARK    3  A    between atoms: C_3  and  N_4
REMARK    4  A    between atoms: C_3  and  C_18
REMARK    5  A    between atoms: N_7  and  C_8
REMARK    6  A    between atoms: C_12  and  O_13
REMARK    7  A    between atoms: O_13  and  C_14
REMARK    8  A    between atoms: C_21  and  C_22
REMARK                            x       y       z     vdW  Elec       q    Type
REMARK                         _______ _______ _______ _____ _____    ______ ____
ROOT
ATOM      1  N   UNL     1       1.405   9.522  19.791  0.00  0.00    +0.000 N 
ATOM      2  C   UNL     1       1.768   8.268  19.373  0.00  0.00    +0.000 C 
ATOM      3  O   UNL     1       1.909   7.984  18.188  0.00  0.00    +0.000 OA
ATOM      4  N   UNL     1       1.892   7.371  20.411  0.00  0.00    +0.000 N 
ATOM      5  H   UNL     1       1.592   9.796  20.747  0.00  0.00    +0.000 HD
ATOM      6  H   UNL     1       1.209   7.512  21.142  0.00  0.00    +0.000 HD
ENDROOT
BRANCH   4   7
ATOM      7  C   UNL     1       2.298   6.040  20.157  0.00  0.00    +0.000 A 
ATOM      8  C   UNL     1       1.470   4.956  20.466  0.00  0.00    +0.000 A 
ATOM      9  C   UNL     1       1.919   3.648  20.273  0.00  0.00    +0.000 A 
ATOM     10  F   UNL     1       1.068   2.655  20.576  0.00  0.00    +0.000 F 
ATOM     11  C   UNL     1       3.200   3.390  19.790  0.00  0.00    +0.000 A 
ATOM     12  C   UNL     1       4.001   4.490  19.462  0.00  0.00    +0.000 A 
ATOM     13  F   UNL     1       5.249   4.297  19.008  0.00  0.00    +0.000 F 
ATOM     14  C   UNL     1       3.554   5.804  19.610  0.00  0.00    +0.000 A 
BRANCH  11  15
ATOM     15  O   UNL     1       3.779   2.164  19.600  0.00  0.00    +0.000 OA
ATOM     16  C   UNL     1       3.517   1.501  18.369  0.00  0.00    +0.000 C 
ENDBRANCH  11  15
ENDBRANCH   4   7
BRANCH   1  17
ATOM     17  C   UNL     1       1.184  10.593  18.819  0.00  0.00    +0.000 C 
BRANCH  17  18
ATOM     18  C   UNL     1      -0.295  10.754  18.600  0.00  0.00    +0.000 A 
ATOM     19  N   UNL     1      -1.033  11.606  19.326  0.00  0.00    +0.000 NA
ATOM     20  O   UNL     1      -2.334  11.363  18.888  0.00  0.00    +0.000 OA
ATOM     21  C   UNL     1      -2.248  10.386  17.940  0.00  0.00    +0.000 A 
ATOM     22  C   UNL     1      -3.519   9.932  17.346  0.00  0.00    +0.000 C 
ATOM     23  N   UNL     1      -1.018   9.978  17.715  0.00  0.00    +0.000 NA
ENDBRANCH  17  18
BRANCH  17  25
ATOM     24  C   UNL     1       2.364  12.784  18.117  0.00  0.00    +0.000 C 
ATOM     25  C   UNL     1       1.791  11.946  19.249  0.00  0.00    +0.000 C 
ENDBRANCH  17  25
ENDBRANCH   1  17
TORSDOF 5
ENDMDL
MODEL 7
REMARK VINA RESULT:      -7.5      2.717      3.858
REMARK  Name = 
REMARK  8 active torsions:
REMARK  status: ('A' for Active; 'I' for Inactive)
REMARK    1  A    between atoms: C_1  and  C_2
REMARK    2  A    between atoms: C_2  and  C_3
REMARK    3  A    between atoms: C_3  and  N_4
REMARK    4  A    between atoms: C_3  and  C_18
REMARK    5  A    between atoms: N_7  and  C_8
REMARK    6  A    between atoms: C_12  and  O_13
REMARK    7  A    between atoms: O_13  and  C_14
REMARK    8  A    between atoms: C_21  and  C_22
REMARK                            x       y       z     vdW  Elec       q    Type
REMARK                         _______ _______ _______ _____ _____    ______ ____
ROOT
ATOM      1  N   UNL     1       2.938   5.484  20.315  0.00  0.00    +0.000 N 
ATOM      2  C   UNL     1       2.202   6.590  19.978  0.00  0.00    +0.000 C 
ATOM      3  O   UNL     1       1.893   6.848  18.820  0.00  0.00    +0.000 OA
ATOM      4  N   UNL     1       1.911   7.391  21.061  0.00  0.00    +0.000 N 
ATOM      5  H   UNL     1       2.913   5.147  21.269  0.00  0.00    +0.000 HD
ATOM      6  H   UNL     1       2.662   7.436  21.736  0.00  0.00    +0.000 HD
ENDROOT
BRANCH   4   7
ATOM      7  C   UNL     1       1.126   8.556  20.895  0.00  0.00    +0.000 A 
ATOM      8  C   UNL     1       1.195   9.318  19.725  0.00  0.00    +0.000 A 
ATOM      9  C   UNL     1       0.463  10.502  19.611  0.00  0.00    +0.000 A 
ATOM     10  F   UNL     1       0.562  11.178  18.456  0.00  0.00    +0.000 F 
ATOM     11  C   UNL     1      -0.332  10.962  20.658  0.00  0.00    +0.000 A 
ATOM     12  C   UNL     1      -0.407  10.168  21.809  0.00  0.00    +0.000 A 
ATOM     13  F   UNL     1      -1.146  10.573  22.854  0.00  0.00    +0.000 F 
ATOM     14  C   UNL     1       0.285   8.961  21.925  0.00  0.00    +0.000 A 
BRANCH  11  15
ATOM     15  O   UNL     1      -1.059  12.121  20.697  0.00  0.00    +0.000 OA
ATOM     16  C   UNL     1      -0.352  13.329  20.949  0.00  0.00    +0.000 C 
ENDBRANCH  11  15
ENDBRANCH   4   7
BRANCH   1  17
ATOM     17  C   UNL     1       3.377   4.543  19.284  0.00  0.00    +0.000 C 
BRANCH  17  18
ATOM     18  C   UNL     1       4.808   4.841  18.930  0.00  0.00    +0.000 A 
ATOM     19  N   UNL     1       5.823   4.083  19.371  0.00  0.00    +0.000 NA
ATOM     20  O   UNL     1       6.953   4.759  18.917  0.00  0.00    +0.000 OA
ATOM     21  C   UNL     1       6.506   5.860  18.247  0.00  0.00    +0.000 A 
ATOM     22  C   UNL     1       7.536   6.760  17.696  0.00  0.00    +0.000 C 
ATOM     23  N   UNL     1       5.194   5.958  18.215  0.00  0.00    +0.000 NA
ENDBRANCH  17  18
BRANCH  17  25
ATOM     24  C   UNL     1       2.688   2.841  21.104  0.00  0.00    +0.000 C 
ATOM     25  C   UNL     1       3.249   3.065  19.708  0.00  0.00    +0.000 C 
ENDBRANCH  17  25
ENDBRANCH   1  17
TORSDOF 5
ENDMDL
MODEL 8
REMARK VINA RESULT:      -7.4      2.681      4.741
REMARK  Name = 
REMARK  8 active torsions:
REMARK  status: ('A' for Active; 'I' for Inactive)
REMARK    1  A    between atoms: C_1  and  C_2
REMARK    2  A    between atoms: C_2  and  C_3
REMARK    3  A    between atoms: C_3  and  N_4
REMARK    4  A    between atoms: C_3  and  C_18
REMARK    5  A    between atoms: N_7  and  C_8
REMARK    6  A    between atoms: C_12  and  O_13
REMARK    7  A    between atoms: O_13  and  C_14
REMARK    8  A    between atoms: C_21  and  C_22
REMARK                            x       y       z     vdW  Elec       q    Type
REMARK                         _______ _______ _______ _____ _____    ______ ____
ROOT
ATOM      1  N   UNL     1       2.608   6.656  19.822  0.00  0.00    +0.000 N 
ATOM      2  C   UNL     1       1.923   7.838  19.932  0.00  0.00    +0.000 C 
ATOM      3  O   UNL     1       1.605   8.509  18.955  0.00  0.00    +0.000 OA
ATOM      4  N   UNL     1       1.693   8.207  21.239  0.00  0.00    +0.000 N 
ATOM      5  H   UNL     1       2.584   5.999  20.592  0.00  0.00    +0.000 HD
ATOM      6  H   UNL     1       2.458   7.974  21.858  0.00  0.00    +0.000 HD
ENDROOT
BRANCH   4   7
ATOM      7  C   UNL     1       0.965   9.383  21.531  0.00  0.00    +0.000 A 
ATOM      8  C   UNL     1      -0.054   9.389  22.488  0.00  0.00    +0.000 A 
ATOM      9  C   UNL     1      -0.807  10.544  22.709  0.00  0.00    +0.000 A 
ATOM     10  F   UNL     1      -1.759  10.486  23.653  0.00  0.00    +0.000 F 
ATOM     11  C   UNL     1      -0.579  11.705  21.974  0.00  0.00    +0.000 A 
ATOM     12  C   UNL     1       0.464  11.684  21.041  0.00  0.00    +0.000 A 
ATOM     13  F   UNL     1       0.716  12.772  20.294  0.00  0.00    +0.000 F 
ATOM     14  C   UNL     1       1.254  10.552  20.835  0.00  0.00    +0.000 A 
BRANCH  11  15
ATOM     15  O   UNL     1      -1.270  12.884  22.057  0.00  0.00    +0.000 OA
ATOM     16  C   UNL     1      -0.986  13.733  23.162  0.00  0.00    +0.000 C 
ENDBRANCH  11  15
ENDBRANCH   4   7
BRANCH   1  17
ATOM     17  C   UNL     1       2.978   6.133  18.507  0.00  0.00    +0.000 C 
BRANCH  17  18
ATOM     18  C   UNL     1       4.352   5.525  18.594  0.00  0.00    +0.000 A 
ATOM     19  N   UNL     1       4.896   5.162  19.764  0.00  0.00    +0.000 NA
ATOM     20  O   UNL     1       6.184   4.764  19.412  0.00  0.00    +0.000 OA
ATOM     21  C   UNL     1       6.286   4.928  18.062  0.00  0.00    +0.000 A 
ATOM     22  C   UNL     1       7.589   4.597  17.455  0.00  0.00    +0.000 C 
ATOM     23  N   UNL     1       5.187   5.386  17.503  0.00  0.00    +0.000 NA
ENDBRANCH  17  18
BRANCH  17  25
ATOM     24  C   UNL     1       1.542   4.034  18.968  0.00  0.00    +0.000 C 
ATOM     25  C   UNL     1       1.985   5.084  17.962  0.00  0.00    +0.000 C 
ENDBRANCH  17  25
ENDBRANCH   1  17
TORSDOF 5
ENDMDL
MODEL 9
REMARK VINA RESULT:      -7.4      3.194      4.353
REMARK  Name = 
REMARK  8 active torsions:
REMARK  status: ('A' for Active; 'I' for Inactive)
REMARK    1  A    between atoms: C_1  and  C_2
REMARK    2  A    between atoms: C_2  and  C_3
REMARK    3  A    between atoms: C_3  and  N_4
REMARK    4  A    between atoms: C_3  and  C_18
REMARK    5  A    between atoms: N_7  and  C_8
REMARK    6  A    between atoms: C_12  and  O_13
REMARK    7  A    between atoms: O_13  and  C_14
REMARK    8  A    between atoms: C_21  and  C_22
REMARK                            x       y       z     vdW  Elec       q    Type
REMARK                         _______ _______ _______ _____ _____    ______ ____
ROOT
ATOM      1  N   UNL     1       3.401   7.084  17.776  0.00  0.00    +0.000 N 
ATOM      2  C   UNL     1       2.493   7.895  18.405  0.00  0.00    +0.000 C 
ATOM      3  O   UNL     1       2.142   7.715  19.567  0.00  0.00    +0.000 OA
ATOM      4  N   UNL     1       1.986   8.875  17.580  0.00  0.00    +0.000 N 
ATOM      5  H   UNL     1       3.882   7.427  16.954  0.00  0.00    +0.000 HD
ATOM      6  H   UNL     1       1.852   8.563  16.628  0.00  0.00    +0.000 HD
ENDROOT
BRANCH   4   7
ATOM      7  C   UNL     1       1.064   9.823  18.082  0.00  0.00    +0.000 A 
ATOM      8  C   UNL     1      -0.316   9.618  17.982  0.00  0.00    +0.000 A 
ATOM      9  C   UNL     1      -1.208  10.599  18.421  0.00  0.00    +0.000 A 
ATOM     10  F   UNL     1      -2.518  10.332  18.311  0.00  0.00    +0.000 F 
ATOM     11  C   UNL     1      -0.751  11.805  18.947  0.00  0.00    +0.000 A 
ATOM     12  C   UNL     1       0.633  11.977  19.062  0.00  0.00    +0.000 A 
ATOM     13  F   UNL     1       1.127  13.128  19.546  0.00  0.00    +0.000 F 
ATOM     14  C   UNL     1       1.540  10.991  18.666  0.00  0.00    +0.000 A 
BRANCH  11  15
ATOM     15  O   UNL     1      -1.511  12.863  19.368  0.00  0.00    +0.000 OA
ATOM     16  C   UNL     1      -2.141  12.752  20.638  0.00  0.00    +0.000 C 
ENDBRANCH  11  15
ENDBRANCH   4   7
BRANCH   1  17
ATOM     17  C   UNL     1       4.009   5.960  18.488  0.00  0.00    +0.000 C 
BRANCH  17  18
ATOM     18  C   UNL     1       3.190   4.723  18.236  0.00  0.00    +0.000 A 
ATOM     19  N   UNL     1       3.272   4.038  17.086  0.00  0.00    +0.000 NA
ATOM     20  O   UNL     1       2.290   3.059  17.222  0.00  0.00    +0.000 OA
ATOM     21  C   UNL     1       1.714   3.253  18.443  0.00  0.00    +0.000 A 
ATOM     22  C   UNL     1       0.610   2.345  18.802  0.00  0.00    +0.000 C 
ATOM     23  N   UNL     1       2.233   4.258  19.115  0.00  0.00    +0.000 NA
ENDBRANCH  17  18
BRANCH  17  25
ATOM     24  C   UNL     1       6.420   5.396  19.233  0.00  0.00    +0.000 C 
ATOM     25  C   UNL     1       5.475   5.698  18.081  0.00  0.00    +0.000 C 
ENDBRANCH  17  25
ENDBRANCH   1  17
TORSDOF 5
ENDMDL
