MODEL 1
REMARK VINA RESULT:      -7.2      0.000      0.000
REMARK  Name = 
REMARK  3 active torsions:
REMARK  status: ('A' for Active; 'I' for Inactive)
REMARK    1  A    between atoms: C_1  and  C_2
REMARK    2  A    between atoms: C_9  and  C_10
REMARK    3  A    between atoms: C_17  and  C_18
REMARK                            x       y       z     vdW  Elec       q    Type
REMARK                         _______ _______ _______ _____ _____    ______ ____
ROOT
ATOM      1  C   UNL     1      -0.971  10.754  23.083  0.00  0.00    +0.000 C 
ATOM      2  C   UNL     1      -1.070  11.446  21.745  0.00  0.00    +0.000 C 
ATOM      3  O   UNL     1      -1.695  12.499  21.607  0.00  0.00    +0.000 OA
ATOM      4  N   UNL     1      -0.351  10.847  20.727  0.00  0.00    +0.000 N 
ATOM      5  N   UNL     1       0.232   9.620  20.887  0.00  0.00    +0.000 NA
ATOM      6  C   UNL     1       0.776   9.337  19.748  0.00  0.00    +0.000 C 
ATOM      7  C   UNL     1       1.584   8.160  19.478  0.00  0.00    +0.000 A 
ATOM      8  C   UNL     1       1.541   7.051  20.324  0.00  0.00    +0.000 A 
ATOM      9  C   UNL     1       2.322   5.930  20.028  0.00  0.00    +0.000 A 
ATOM     10  C   UNL     1       2.267   4.713  20.904  0.00  0.00    +0.000 C 
ATOM     11  C   UNL     1       3.156   5.960  18.901  0.00  0.00    +0.000 A 
ATOM     12  C   UNL     1       3.187   7.080  18.059  0.00  0.00    +0.000 A 
ATOM     13  C   UNL     1       2.398   8.188  18.344  0.00  0.00    +0.000 A 
ATOM     14  O   UNL     1       2.442   9.245  17.467  0.00  0.00    +0.000 OA
ATOM     15  C   UNL     1       1.951  10.489  18.012  0.00  0.00    +0.000 C 
ATOM     16  C   UNL     1       0.579  10.315  18.636  0.00  0.00    +0.000 C 
ATOM     17  C   UNL     1      -0.082  11.457  19.415  0.00  0.00    +0.000 C 
ENDROOT
BRANCH  17  18
ATOM     18  C   UNL     1       0.752  12.727  19.509  0.00  0.00    +0.000 A 
ATOM     19  C   UNL     1       0.459  13.817  18.672  0.00  0.00    +0.000 A 
ATOM     20  C   UNL     1       1.200  14.997  18.764  0.00  0.00    +0.000 A 
ATOM     21  C   UNL     1       2.231  15.093  19.692  0.00  0.00    +0.000 A 
ATOM     22  F   UNL     1       2.929  16.232  19.788  0.00  0.00    +0.000 F 
ATOM     23  C   UNL     1       2.546  14.026  20.521  0.00  0.00    +0.000 A 
ATOM     24  C   UNL     1       1.816  12.843  20.423  0.00  0.00    +0.000 A 
ENDBRANCH  17  18
TORSDOF 1
ENDMDL
MODEL 2
REMARK VINA RESULT:      -7.1      0.359      1.048
REMARK  Name = 
REMARK  3 active torsions:
REMARK  status: ('A' for Active; 'I' for Inactive)
REMARK    1  A    between atoms: C_1  and  C_2
REMARK    2  A    between atoms: C_9  and  C_10
REMARK    3  A    between atoms: C_17  and  C_18
REMARK                            x       y       z     vdW  Elec       q    Type
REMARK                         _______ _______ _______ _____ _____    ______ ____
ROOT
ATOM      1  C   UNL     1      -0.753  10.414  23.075  0.00  0.00    +0.000 C 
ATOM      2  C   UNL     1      -0.895  11.105  21.740  0.00  0.00    +0.000 C 
ATOM      3  O   UNL     1      -1.548  12.142  21.616  0.00  0.00    +0.000 OA
ATOM      4  N   UNL     1      -0.183  10.523  20.707  0.00  0.00    +0.000 N 
ATOM      5  N   UNL     1       0.432   9.311  20.854  0.00  0.00    +0.000 NA
ATOM      6  C   UNL     1       0.959   9.041  19.704  0.00  0.00    +0.000 C 
ATOM      7  C   UNL     1       1.790   7.884  19.417  0.00  0.00    +0.000 A 
ATOM      8  C   UNL     1       1.790   6.774  20.262  0.00  0.00    +0.000 A 
ATOM      9  C   UNL     1       2.592   5.673  19.950  0.00  0.00    +0.000 A 
ATOM     10  C   UNL     1       2.584   4.454  20.825  0.00  0.00    +0.000 C 
ATOM     11  C   UNL     1       3.402   5.722  18.806  0.00  0.00    +0.000 A 
ATOM     12  C   UNL     1       3.390   6.844  17.965  0.00  0.00    +0.000 A 
ATOM     13  C   UNL     1       2.580   7.933  18.266  0.00  0.00    +0.000 A 
ATOM     14  O   UNL     1       2.581   8.990  17.390  0.00  0.00    +0.000 OA
ATOM     15  C   UNL     1       2.071  10.222  17.946  0.00  0.00    +0.000 C 
ATOM     16  C   UNL     1       0.717  10.015  18.597  0.00  0.00    +0.000 C 
ATOM     17  C   UNL     1       0.045  11.140  19.390  0.00  0.00    +0.000 C 
ENDROOT
BRANCH  17  18
ATOM     18  C   UNL     1       0.850  12.430  19.469  0.00  0.00    +0.000 A 
ATOM     19  C   UNL     1       1.834  12.577  20.461  0.00  0.00    +0.000 A 
ATOM     20  C   UNL     1       2.597  13.744  20.530  0.00  0.00    +0.000 A 
ATOM     21  C   UNL     1       2.383  14.764  19.610  0.00  0.00    +0.000 A 
ATOM     22  F   UNL     1       3.127  15.876  19.671  0.00  0.00    +0.000 F 
ATOM     23  C   UNL     1       1.409  14.646  18.630  0.00  0.00    +0.000 A 
ATOM     24  C   UNL     1       0.638  13.487  18.565  0.00  0.00    +0.000 A 
ENDBRANCH  17  18
TORSDOF 1
ENDMDL
MODEL 3
REMARK VINA RESULT:      -7.0      3.950      6.573
REMARK  Name = 
REMARK  3 active torsions:
REMARK  status: ('A' for Active; 'I' for Inactive)
REMARK    1  A    between atoms: C_1  and  C_2
REMARK    2  A    between atoms: C_9  and  C_10
REMARK    3  A    between atoms: C_17  and  C_18
REMARK                            x       y       z     vdW  Elec       q    Type
REMARK                         _______ _______ _______ _____ _____    ______ ____
ROOT
ATOM      1  C   UNL     1      -0.596  13.280  22.684  0.00  0.00    +0.000 C 
ATOM      2  C   UNL     1       0.100  12.892  21.402  0.00  0.00    +0.000 C 
ATOM      3  O   UNL     1       1.327  12.907  21.303  0.00  0.00    +0.000 OA
ATOM      4  N   UNL     1      -0.741  12.456  20.395  0.00  0.00    +0.000 N 
ATOM      5  N   UNL     1      -2.101  12.564  20.498  0.00  0.00    +0.000 NA
ATOM      6  C   UNL     1      -2.577  12.114  19.383  0.00  0.00    +0.000 C 
ATOM      7  C   UNL     1      -3.989  11.958  19.079  0.00  0.00    +0.000 A 
ATOM      8  C   UNL     1      -4.961  12.622  19.828  0.00  0.00    +0.000 A 
ATOM      9  C   UNL     1      -6.310  12.460  19.502  0.00  0.00    +0.000 A 
ATOM     10  C   UNL     1      -7.372  13.191  20.272  0.00  0.00    +0.000 C 
ATOM     11  C   UNL     1      -6.657  11.607  18.445  0.00  0.00    +0.000 A 
ATOM     12  C   UNL     1      -5.670  10.948  17.699  0.00  0.00    +0.000 A 
ATOM     13  C   UNL     1      -4.327  11.122  18.013  0.00  0.00    +0.000 A 
ATOM     14  O   UNL     1      -3.400  10.479  17.229  0.00  0.00    +0.000 OA
ATOM     15  C   UNL     1      -2.094  10.356  17.834  0.00  0.00    +0.000 C 
ATOM     16  C   UNL     1      -1.592  11.694  18.341  0.00  0.00    +0.000 C 
ATOM     17  C   UNL     1      -0.299  11.791  19.158  0.00  0.00    +0.000 C 
ENDROOT
BRANCH  17  18
ATOM     18  C   UNL     1       0.392  10.458  19.413  0.00  0.00    +0.000 A 
ATOM     19  C   UNL     1       1.266   9.931  18.448  0.00  0.00    +0.000 A 
ATOM     20  C   UNL     1       1.926   8.722  18.680  0.00  0.00    +0.000 A 
ATOM     21  C   UNL     1       1.717   8.039  19.873  0.00  0.00    +0.000 A 
ATOM     22  F   UNL     1       2.362   6.888  20.097  0.00  0.00    +0.000 F 
ATOM     23  C   UNL     1       0.848   8.535  20.835  0.00  0.00    +0.000 A 
ATOM     24  C   UNL     1       0.180   9.736  20.602  0.00  0.00    +0.000 A 
ENDBRANCH  17  18
TORSDOF 1
ENDMDL
MODEL 4
REMARK VINA RESULT:      -6.9      3.862      6.558
REMARK  Name = 
REMARK  3 active torsions:
REMARK  status: ('A' for Active; 'I' for Inactive)
REMARK    1  A    between atoms: C_1  and  C_2
REMARK    2  A    between atoms: C_9  and  C_10
REMARK    3  A    between atoms: C_17  and  C_18
REMARK                            x       y       z     vdW  Elec       q    Type
REMARK                         _______ _______ _______ _____ _____    ______ ____
ROOT
ATOM      1  C   UNL     1       0.082  13.624  21.950  0.00  0.00    +0.000 C 
ATOM      2  C   UNL     1       0.605  13.054  20.655  0.00  0.00    +0.000 C 
ATOM      3  O   UNL     1       1.810  13.034  20.398  0.00  0.00    +0.000 OA
ATOM      4  N   UNL     1      -0.359  12.501  19.833  0.00  0.00    +0.000 N 
ATOM      5  N   UNL     1      -1.694  12.646  20.095  0.00  0.00    +0.000 NA
ATOM      6  C   UNL     1      -2.311  12.057  19.122  0.00  0.00    +0.000 C 
ATOM      7  C   UNL     1      -3.751  11.888  19.027  0.00  0.00    +0.000 A 
ATOM      8  C   UNL     1      -4.617  12.664  19.798  0.00  0.00    +0.000 A 
ATOM      9  C   UNL     1      -5.997  12.483  19.674  0.00  0.00    +0.000 A 
ATOM     10  C   UNL     1      -6.949  13.330  20.466  0.00  0.00    +0.000 C 
ATOM     11  C   UNL     1      -6.479  11.501  18.796  0.00  0.00    +0.000 A 
ATOM     12  C   UNL     1      -5.597  10.730  18.026  0.00  0.00    +0.000 A 
ATOM     13  C   UNL     1      -4.224  10.921  18.138  0.00  0.00    +0.000 A 
ATOM     14  O   UNL     1      -3.407  10.162  17.336  0.00  0.00    +0.000 OA
ATOM     15  C   UNL     1      -2.034  10.098  17.779  0.00  0.00    +0.000 C 
ATOM     16  C   UNL     1      -1.470  11.483  18.029  0.00  0.00    +0.000 C 
ATOM     17  C   UNL     1      -0.082  11.667  18.652  0.00  0.00    +0.000 C 
ENDROOT
BRANCH  17  18
ATOM     18  C   UNL     1       0.636  10.369  18.996  0.00  0.00    +0.000 A 
ATOM     19  C   UNL     1       0.467   9.795  20.267  0.00  0.00    +0.000 A 
ATOM     20  C   UNL     1       1.100   8.593  20.589  0.00  0.00    +0.000 A 
ATOM     21  C   UNL     1       1.899   7.959  19.643  0.00  0.00    +0.000 A 
ATOM     22  F   UNL     1       2.492   6.799  19.950  0.00  0.00    +0.000 F 
ATOM     23  C   UNL     1       2.090   8.514  18.386  0.00  0.00    +0.000 A 
ATOM     24  C   UNL     1       1.469   9.720  18.066  0.00  0.00    +0.000 A 
ENDBRANCH  17  18
TORSDOF 1
ENDMDL
MODEL 5
REMARK VINA RESULT:      -6.8      2.855      6.908
REMARK  Name = 
REMARK  3 active torsions:
REMARK  status: ('A' for Active; 'I' for Inactive)
REMARK    1  A    between atoms: C_1  and  C_2
REMARK    2  A    between atoms: C_9  and  C_10
REMARK    3  A    between atoms: C_17  and  C_18
REMARK                            x       y       z     vdW  Elec       q    Type
REMARK                         _______ _______ _______ _____ _____    ______ ____
ROOT
ATOM      1  C   UNL     1      -2.591  11.227  16.565  0.00  0.00    +0.000 C 
ATOM      2  C   UNL     1      -2.136  10.614  17.867  0.00  0.00    +0.000 C 
ATOM      3  O   UNL     1      -2.453   9.467  18.186  0.00  0.00    +0.000 OA
ATOM      4  N   UNL     1      -1.291  11.409  18.620  0.00  0.00    +0.000 N 
ATOM      5  N   UNL     1      -1.058  12.716  18.294  0.00  0.00    +0.000 NA
ATOM      6  C   UNL     1      -0.272  13.175  19.214  0.00  0.00    +0.000 C 
ATOM      7  C   UNL     1       0.310  14.506  19.228  0.00  0.00    +0.000 A 
ATOM      8  C   UNL     1      -0.219  15.528  18.439  0.00  0.00    +0.000 A 
ATOM      9  C   UNL     1       0.358  16.800  18.486  0.00  0.00    +0.000 A 
ATOM     10  C   UNL     1      -0.214  17.925  17.673  0.00  0.00    +0.000 C 
ATOM     11  C   UNL     1       1.476  17.011  19.306  0.00  0.00    +0.000 A 
ATOM     12  C   UNL     1       1.995  15.975  20.095  0.00  0.00    +0.000 A 
ATOM     13  C   UNL     1       1.412  14.714  20.061  0.00  0.00    +0.000 A 
ATOM     14  O   UNL     1       1.939  13.745  20.879  0.00  0.00    +0.000 OA
ATOM     15  C   UNL     1       1.584  12.395  20.506  0.00  0.00    +0.000 C 
ATOM     16  C   UNL     1       0.085  12.248  20.330  0.00  0.00    +0.000 C 
ATOM     17  C   UNL     1      -0.520  10.949  19.786  0.00  0.00    +0.000 C 
ENDROOT
BRANCH  17  18
ATOM     18  C   UNL     1       0.499   9.872  19.438  0.00  0.00    +0.000 A 
ATOM     19  C   UNL     1       0.868   8.923  20.407  0.00  0.00    +0.000 A 
ATOM     20  C   UNL     1       1.783   7.915  20.094  0.00  0.00    +0.000 A 
ATOM     21  C   UNL     1       2.327   7.850  18.817  0.00  0.00    +0.000 A 
ATOM     22  F   UNL     1       3.192   6.873  18.517  0.00  0.00    +0.000 F 
ATOM     23  C   UNL     1       1.987   8.783  17.848  0.00  0.00    +0.000 A 
ATOM     24  C   UNL     1       1.083   9.797  18.160  0.00  0.00    +0.000 A 
ENDBRANCH  17  18
TORSDOF 1
ENDMDL
MODEL 6
REMARK VINA RESULT:      -6.7      2.844      6.842
REMARK  Name = 
REMARK  3 active torsions:
REMARK  status: ('A' for Active; 'I' for Inactive)
REMARK    1  A    between atoms: C_1  and  C_2
REMARK    2  A    between atoms: C_9  and  C_10
REMARK    3  A    between atoms: C_17  and  C_18
REMARK                            x       y       z     vdW  Elec       q    Type
REMARK                         _______ _______ _______ _____ _____    ______ ____
ROOT
ATOM      1  C   UNL     1      -2.521  11.266  16.468  0.00  0.00    +0.000 C 
ATOM      2  C   UNL     1      -2.153  10.610  17.777  0.00  0.00    +0.000 C 
ATOM      3  O   UNL     1      -2.498   9.457  18.041  0.00  0.00    +0.000 OA
ATOM      4  N   UNL     1      -1.349  11.374  18.602  0.00  0.00    +0.000 N 
ATOM      5  N   UNL     1      -1.085  12.688  18.330  0.00  0.00    +0.000 NA
ATOM      6  C   UNL     1      -0.353  13.112  19.309  0.00  0.00    +0.000 C 
ATOM      7  C   UNL     1       0.238  14.436  19.399  0.00  0.00    +0.000 A 
ATOM      8  C   UNL     1      -0.232  15.486  18.609  0.00  0.00    +0.000 A 
ATOM      9  C   UNL     1       0.351  16.750  18.729  0.00  0.00    +0.000 A 
ATOM     10  C   UNL     1      -0.160  17.903  17.915  0.00  0.00    +0.000 C 
ATOM     11  C   UNL     1       1.418  16.926  19.621  0.00  0.00    +0.000 A 
ATOM     12  C   UNL     1       1.879  15.862  20.409  0.00  0.00    +0.000 A 
ATOM     13  C   UNL     1       1.288  14.609  20.303  0.00  0.00    +0.000 A 
ATOM     14  O   UNL     1       1.756  13.611  21.123  0.00  0.00    +0.000 OA
ATOM     15  C   UNL     1       1.413  12.277  20.689  0.00  0.00    +0.000 C 
ATOM     16  C   UNL     1      -0.074  12.149  20.417  0.00  0.00    +0.000 C 
ATOM     17  C   UNL     1      -0.654  10.873  19.800  0.00  0.00    +0.000 C 
ENDROOT
BRANCH  17  18
ATOM     18  C   UNL     1       0.374   9.796  19.483  0.00  0.00    +0.000 A 
ATOM     19  C   UNL     1       0.953   9.741  18.204  0.00  0.00    +0.000 A 
ATOM     20  C   UNL     1       1.916   8.774  17.907  0.00  0.00    +0.000 A 
ATOM     21  C   UNL     1       2.305   7.864  18.884  0.00  0.00    +0.000 A 
ATOM     22  F   UNL     1       3.239   6.948  18.600  0.00  0.00    +0.000 F 
ATOM     23  C   UNL     1       1.738   7.892  20.150  0.00  0.00    +0.000 A 
ATOM     24  C   UNL     1       0.768   8.849  20.446  0.00  0.00    +0.000 A 
ENDBRANCH  17  18
TORSDOF 1
ENDMDL
MODEL 7
REMARK VINA RESULT:      -6.5      3.658      7.133
REMARK  Name = 
REMARK  3 active torsions:
REMARK  status: ('A' for Active; 'I' for Inactive)
REMARK    1  A    between atoms: C_1  and  C_2
REMARK    2  A    between atoms: C_9  and  C_10
REMARK    3  A    between atoms: C_17  and  C_18
REMARK                            x       y       z     vdW  Elec       q    Type
REMARK                         _______ _______ _______ _____ _____    ______ ____
ROOT
ATOM      1  C   UNL     1      -4.622  13.416  20.694  0.00  0.00    +0.000 C 
ATOM      2  C   UNL     1      -3.614  13.010  21.741  0.00  0.00    +0.000 C 
ATOM      3  O   UNL     1      -3.912  12.253  22.665  0.00  0.00    +0.000 OA
ATOM      4  N   UNL     1      -2.335  13.494  21.533  0.00  0.00    +0.000 N 
ATOM      5  N   UNL     1      -2.069  14.425  20.567  0.00  0.00    +0.000 NA
ATOM      6  C   UNL     1      -0.806  14.689  20.671  0.00  0.00    +0.000 C 
ATOM      7  C   UNL     1      -0.061  15.567  19.784  0.00  0.00    +0.000 A 
ATOM      8  C   UNL     1      -0.719  16.484  18.964  0.00  0.00    +0.000 A 
ATOM      9  C   UNL     1       0.029  17.321  18.131  0.00  0.00    +0.000 A 
ATOM     10  C   UNL     1      -0.654  18.339  17.266  0.00  0.00    +0.000 C 
ATOM     11  C   UNL     1       1.425  17.198  18.119  0.00  0.00    +0.000 A 
ATOM     12  C   UNL     1       2.073  16.273  18.950  0.00  0.00    +0.000 A 
ATOM     13  C   UNL     1       1.330  15.452  19.790  0.00  0.00    +0.000 A 
ATOM     14  O   UNL     1       2.017  14.588  20.608  0.00  0.00    +0.000 OA
ATOM     15  C   UNL     1       1.219  13.502  21.129  0.00  0.00    +0.000 C 
ATOM     16  C   UNL     1      -0.056  14.013  21.772  0.00  0.00    +0.000 C 
ATOM     17  C   UNL     1      -1.136  13.041  22.258  0.00  0.00    +0.000 C 
ENDROOT
BRANCH  17  18
ATOM     18  C   UNL     1      -0.819  11.571  22.023  0.00  0.00    +0.000 A 
ATOM     19  C   UNL     1      -0.668  11.092  20.711  0.00  0.00    +0.000 A 
ATOM     20  C   UNL     1      -0.353   9.751  20.481  0.00  0.00    +0.000 A 
ATOM     21  C   UNL     1      -0.186   8.887  21.558  0.00  0.00    +0.000 A 
ATOM     22  F   UNL     1       0.131   7.606  21.334  0.00  0.00    +0.000 F 
ATOM     23  C   UNL     1      -0.342   9.335  22.861  0.00  0.00    +0.000 A 
ATOM     24  C   UNL     1      -0.668  10.670  23.094  0.00  0.00    +0.000 A 
ENDBRANCH  17  18
TORSDOF 1
ENDMDL
MODEL 8
REMARK VINA RESULT:      -6.5      3.145      6.430
REMARK  Name = 
REMARK  3 active torsions:
REMARK  status: ('A' for Active; 'I' for Inactive)
REMARK    1  A    between atoms: C_1  and  C_2
REMARK    2  A    between atoms: C_9  and  C_10
REMARK    3  A    between atoms: C_17  and  C_18
REMARK                            x       y       z     vdW  Elec       q    Type
REMARK                         _______ _______ _______ _____ _____    ______ ____
ROOT
ATOM      1  C   UNL     1       1.000   9.588  18.521  0.00  0.00    +0.000 C 
ATOM      2  C   UNL     1      -0.228  10.462  18.585  0.00  0.00    +0.000 C 
ATOM      3  O   UNL     1      -1.363   9.982  18.583  0.00  0.00    +0.000 OA
ATOM      4  N   UNL     1       0.028  11.814  18.719  0.00  0.00    +0.000 N 
ATOM      5  N   UNL     1       1.294  12.319  18.598  0.00  0.00    +0.000 NA
ATOM      6  C   UNL     1       1.176  13.601  18.729  0.00  0.00    +0.000 C 
ATOM      7  C   UNL     1       2.282  14.543  18.757  0.00  0.00    +0.000 A 
ATOM      8  C   UNL     1       3.542  14.183  18.280  0.00  0.00    +0.000 A 
ATOM      9  C   UNL     1       4.581  15.117  18.310  0.00  0.00    +0.000 A 
ATOM     10  C   UNL     1       5.937  14.764  17.772  0.00  0.00    +0.000 C 
ATOM     11  C   UNL     1       4.338  16.388  18.848  0.00  0.00    +0.000 A 
ATOM     12  C   UNL     1       3.065  16.737  19.322  0.00  0.00    +0.000 A 
ATOM     13  C   UNL     1       2.028  15.814  19.277  0.00  0.00    +0.000 A 
ATOM     14  O   UNL     1       0.793  16.219  19.722  0.00  0.00    +0.000 OA
ATOM     15  C   UNL     1      -0.108  15.136  20.039  0.00  0.00    +0.000 C 
ATOM     16  C   UNL     1      -0.206  14.145  18.895  0.00  0.00    +0.000 C 
ATOM     17  C   UNL     1      -0.980  12.833  19.053  0.00  0.00    +0.000 C 
ENDROOT
BRANCH  17  18
ATOM     18  C   UNL     1      -1.602  12.625  20.427  0.00  0.00    +0.000 A 
ATOM     19  C   UNL     1      -2.956  12.942  20.634  0.00  0.00    +0.000 A 
ATOM     20  C   UNL     1      -3.546  12.734  21.882  0.00  0.00    +0.000 A 
ATOM     21  C   UNL     1      -2.790  12.207  22.924  0.00  0.00    +0.000 A 
ATOM     22  F   UNL     1      -3.364  11.995  24.115  0.00  0.00    +0.000 F 
ATOM     23  C   UNL     1      -1.449  11.899  22.746  0.00  0.00    +0.000 A 
ATOM     24  C   UNL     1      -0.854  12.116  21.504  0.00  0.00    +0.000 A 
ENDBRANCH  17  18
TORSDOF 1
ENDMDL
MODEL 9
REMARK VINA RESULT:      -6.3      3.553      6.309
REMARK  Name = 
REMARK  3 active torsions:
REMARK  status: ('A' for Active; 'I' for Inactive)
REMARK    1  A    between atoms: C_1  and  C_2
REMARK    2  A    between atoms: C_9  and  C_10
REMARK    3  A    between atoms: C_17  and  C_18
REMARK                            x       y       z     vdW  Elec       q    Type
REMARK                         _______ _______ _______ _____ _____    ______ ____
ROOT
ATOM      1  C   UNL     1      -0.611  10.429  23.172  0.00  0.00    +0.000 C 
ATOM      2  C   UNL     1      -0.267  10.004  21.765  0.00  0.00    +0.000 C 
ATOM      3  O   UNL     1      -0.571   8.891  21.334  0.00  0.00    +0.000 OA
ATOM      4  N   UNL     1       0.342  10.980  20.997  0.00  0.00    +0.000 N 
ATOM      5  N   UNL     1       0.770  12.159  21.543  0.00  0.00    +0.000 NA
ATOM      6  C   UNL     1       1.325  12.814  20.576  0.00  0.00    +0.000 C 
ATOM      7  C   UNL     1       1.849  14.166  20.675  0.00  0.00    +0.000 A 
ATOM      8  C   UNL     1       2.127  14.738  21.917  0.00  0.00    +0.000 A 
ATOM      9  C   UNL     1       2.641  16.036  21.977  0.00  0.00    +0.000 A 
ATOM     10  C   UNL     1       2.980  16.659  23.299  0.00  0.00    +0.000 C 
ATOM     11  C   UNL     1       2.839  16.745  20.784  0.00  0.00    +0.000 A 
ATOM     12  C   UNL     1       2.557  16.157  19.543  0.00  0.00    +0.000 A 
ATOM     13  C   UNL     1       2.061  14.860  19.482  0.00  0.00    +0.000 A 
ATOM     14  O   UNL     1       1.835  14.321  18.239  0.00  0.00    +0.000 OA
ATOM     15  C   UNL     1       0.954  13.176  18.240  0.00  0.00    +0.000 C 
ATOM     16  C   UNL     1       1.403  12.135  19.247  0.00  0.00    +0.000 C 
ATOM     17  C   UNL     1       0.543  10.901  19.541  0.00  0.00    +0.000 C 
ENDROOT
BRANCH  17  18
ATOM     18  C   UNL     1      -0.764  10.840  18.763  0.00  0.00    +0.000 A 
ATOM     19  C   UNL     1      -0.874   9.986  17.652  0.00  0.00    +0.000 A 
ATOM     20  C   UNL     1      -2.075   9.901  16.944  0.00  0.00    +0.000 A 
ATOM     21  C   UNL     1      -3.167  10.663  17.343  0.00  0.00    +0.000 A 
ATOM     22  F   UNL     1      -4.321  10.568  16.670  0.00  0.00    +0.000 F 
ATOM     23  C   UNL     1      -3.077  11.522  18.429  0.00  0.00    +0.000 A 
ATOM     24  C   UNL     1      -1.878  11.618  19.131  0.00  0.00    +0.000 A 
ENDBRANCH  17  18
TORSDOF 1
ENDMDL
