MODEL 1
REMARK VINA RESULT:      -9.6      0.000      0.000
REMARK  Name = 
REMARK  6 active torsions:
REMARK  status: ('A' for Active; 'I' for Inactive)
REMARK    1  A    between atoms: C_2  and  C_5
REMARK    2  A    between atoms: N_3  and  O_4
REMARK    3  A    between atoms: N_7  and  C_8
REMARK    4  A    between atoms: C_8  and  C_9
REMARK    5  A    between atoms: C_12  and  O_13
REMARK    6  A    between atoms: O_13  and  C_14
REMARK                            x       y       z     vdW  Elec       q    Type
REMARK                         _______ _______ _______ _____ _____    ______ ____
ROOT
ATOM      1  C   UNL     1       2.681   6.379  19.275  0.00  0.00    +0.000 A 
ATOM      2  C   UNL     1       2.039   6.816  20.441  0.00  0.00    +0.000 A 
ATOM      3  C   UNL     1       1.504   8.105  20.513  0.00  0.00    +0.000 A 
ATOM      4  C   UNL     1       1.587   8.962  19.414  0.00  0.00    +0.000 A 
ATOM      5  C   UNL     1       2.139   8.498  18.219  0.00  0.00    +0.000 A 
ATOM      6  C   UNL     1       2.713   7.227  18.160  0.00  0.00    +0.000 A 
ENDROOT
BRANCH   1   7
ATOM      7  C   UNL     1       3.333   5.023  19.227  0.00  0.00    +0.000 C 
BRANCH   7  10
ATOM      8  C   UNL     1       6.348   5.089  17.086  0.00  0.00    +0.000 C 
ATOM      9  C   UNL     1       5.259   5.900  17.786  0.00  0.00    +0.000 C 
ATOM     10  N   UNL     1       4.294   4.881  18.153  0.00  0.00    +0.000 N 
ATOM     11  C   UNL     1       4.508   3.709  17.445  0.00  0.00    +0.000 C 
ATOM     12  O   UNL     1       3.888   2.667  17.515  0.00  0.00    +0.000 OA
ATOM     13  N   UNL     1       5.644   3.892  16.672  0.00  0.00    +0.000 N 
ATOM     14  H   UNL     1       6.035   3.119  16.149  0.00  0.00    +0.000 HD
BRANCH   8  16
ATOM     15  O   UNL     1       8.438   4.076  17.822  0.00  0.00    +0.000 OA
ATOM     16  C   UNL     1       7.486   4.815  18.082  0.00  0.00    +0.000 C 
ATOM     17  N   UNL     1       7.359   5.423  19.311  0.00  0.00    +0.000 N 
ATOM     18  H   UNL     1       6.853   6.303  19.395  0.00  0.00    +0.000 HD
BRANCH  17  19
ATOM     19  O   UNL     1       8.457   5.255  20.188  0.00  0.00    +0.000 OA
ATOM     20  H   UNL     1       9.015   6.040  19.991  0.00  0.00    +0.000 HD
ENDBRANCH  17  19
ENDBRANCH   8  16
ENDBRANCH   7  10
ENDBRANCH   1   7
BRANCH   4  21
ATOM     21  O   UNL     1       1.038  10.213  19.578  0.00  0.00    +0.000 OA
BRANCH  21  22
ATOM     22  C   UNL     1      -0.212  10.508  19.078  0.00  0.00    +0.000 A 
ATOM     23  C   UNL     1      -0.997  11.337  19.881  0.00  0.00    +0.000 A 
ATOM     24  C   UNL     1      -2.264  11.741  19.455  0.00  0.00    +0.000 A 
ATOM     25  C   UNL     1      -2.776  11.307  18.222  0.00  0.00    +0.000 A 
ATOM     26  C   UNL     1      -4.039  11.715  17.760  0.00  0.00    +0.000 A 
ATOM     27  C   UNL     1      -4.536  11.252  16.540  0.00  0.00    +0.000 A 
ATOM     28  C   UNL     1      -3.791  10.357  15.779  0.00  0.00    +0.000 A 
ATOM     29  C   UNL     1      -2.526   9.959  16.213  0.00  0.00    +0.000 A 
ATOM     30  C   UNL     1      -1.996  10.446  17.418  0.00  0.00    +0.000 A 
ATOM     31  C   UNL     1      -0.702  10.097  17.834  0.00  0.00    +0.000 A 
ENDBRANCH  21  22
ENDBRANCH   4  21
TORSDOF 6
ENDMDL
MODEL 2
REMARK VINA RESULT:      -9.6      1.571      1.923
REMARK  Name = 
REMARK  6 active torsions:
REMARK  status: ('A' for Active; 'I' for Inactive)
REMARK    1  A    between atoms: C_2  and  C_5
REMARK    2  A    between atoms: N_3  and  O_4
REMARK    3  A    between atoms: N_7  and  C_8
REMARK    4  A    between atoms: C_8  and  C_9
REMARK    5  A    between atoms: C_12  and  O_13
REMARK    6  A    between atoms: O_13  and  C_14
REMARK                            x       y       z     vdW  Elec       q    Type
REMARK                         _______ _______ _______ _____ _____    ______ ____
ROOT
ATOM      1  C   UNL     1       2.618   5.803  18.832  0.00  0.00    +0.000 A 
ATOM      2  C   UNL     1       2.804   6.761  17.828  0.00  0.00    +0.000 A 
ATOM      3  C   UNL     1       2.402   8.084  18.029  0.00  0.00    +0.000 A 
ATOM      4  C   UNL     1       1.828   8.467  19.242  0.00  0.00    +0.000 A 
ATOM      5  C   UNL     1       1.728   7.539  20.280  0.00  0.00    +0.000 A 
ATOM      6  C   UNL     1       2.089   6.208  20.066  0.00  0.00    +0.000 A 
ENDROOT
BRANCH   1   7
ATOM      7  C   UNL     1       2.972   4.361  18.585  0.00  0.00    +0.000 C 
BRANCH   7  10
ATOM      8  C   UNL     1       6.152   4.540  16.705  0.00  0.00    +0.000 C 
ATOM      9  C   UNL     1       4.668   4.178  16.676  0.00  0.00    +0.000 C 
ATOM     10  N   UNL     1       4.317   4.173  18.083  0.00  0.00    +0.000 N 
ATOM     11  C   UNL     1       5.448   4.112  18.882  0.00  0.00    +0.000 C 
ATOM     12  O   UNL     1       5.510   4.097  20.094  0.00  0.00    +0.000 OA
ATOM     13  N   UNL     1       6.551   4.158  18.044  0.00  0.00    +0.000 N 
ATOM     14  H   UNL     1       7.484   4.226  18.431  0.00  0.00    +0.000 HD
BRANCH   8  16
ATOM     15  O   UNL     1       5.587   6.653  15.630  0.00  0.00    +0.000 OA
ATOM     16  C   UNL     1       6.305   6.044  16.427  0.00  0.00    +0.000 C 
ATOM     17  N   UNL     1       7.328   6.672  17.100  0.00  0.00    +0.000 N 
ATOM     18  H   UNL     1       7.632   6.322  18.007  0.00  0.00    +0.000 HD
BRANCH  17  19
ATOM     19  O   UNL     1       7.402   8.074  16.924  0.00  0.00    +0.000 OA
ATOM     20  H   UNL     1       8.120   8.334  17.543  0.00  0.00    +0.000 HD
ENDBRANCH  17  19
ENDBRANCH   8  16
ENDBRANCH   7  10
ENDBRANCH   1   7
BRANCH   4  21
ATOM     21  O   UNL     1       1.457   9.788  19.348  0.00  0.00    +0.000 OA
BRANCH  21  22
ATOM     22  C   UNL     1       0.183  10.193  19.014  0.00  0.00    +0.000 A 
ATOM     23  C   UNL     1      -0.451  11.007  19.954  0.00  0.00    +0.000 A 
ATOM     24  C   UNL     1      -1.727  11.517  19.702  0.00  0.00    +0.000 A 
ATOM     25  C   UNL     1      -2.398  11.207  18.509  0.00  0.00    +0.000 A 
ATOM     26  C   UNL     1      -3.673  11.723  18.222  0.00  0.00    +0.000 A 
ATOM     27  C   UNL     1      -4.330  11.383  17.037  0.00  0.00    +0.000 A 
ATOM     28  C   UNL     1      -3.736  10.503  16.139  0.00  0.00    +0.000 A 
ATOM     29  C   UNL     1      -2.461   9.998  16.399  0.00  0.00    +0.000 A 
ATOM     30  C   UNL     1      -1.771  10.362  17.566  0.00  0.00    +0.000 A 
ATOM     31  C   UNL     1      -0.466   9.906  17.809  0.00  0.00    +0.000 A 
ENDBRANCH  21  22
ENDBRANCH   4  21
TORSDOF 6
ENDMDL
MODEL 3
REMARK VINA RESULT:      -9.5      1.191      1.564
REMARK  Name = 
REMARK  6 active torsions:
REMARK  status: ('A' for Active; 'I' for Inactive)
REMARK    1  A    between atoms: C_2  and  C_5
REMARK    2  A    between atoms: N_3  and  O_4
REMARK    3  A    between atoms: N_7  and  C_8
REMARK    4  A    between atoms: C_8  and  C_9
REMARK    5  A    between atoms: C_12  and  O_13
REMARK    6  A    between atoms: O_13  and  C_14
REMARK                            x       y       z     vdW  Elec       q    Type
REMARK                         _______ _______ _______ _____ _____    ______ ____
ROOT
ATOM      1  C   UNL     1       2.963   6.929  18.097  0.00  0.00    +0.000 A 
ATOM      2  C   UNL     1       2.699   8.131  17.426  0.00  0.00    +0.000 A 
ATOM      3  C   UNL     1       1.947   9.134  18.041  0.00  0.00    +0.000 A 
ATOM      4  C   UNL     1       1.467   8.957  19.340  0.00  0.00    +0.000 A 
ATOM      5  C   UNL     1       1.808   7.803  20.048  0.00  0.00    +0.000 A 
ATOM      6  C   UNL     1       2.521   6.781  19.419  0.00  0.00    +0.000 A 
ENDROOT
BRANCH   1   7
ATOM      7  C   UNL     1       3.699   5.814  17.404  0.00  0.00    +0.000 C 
BRANCH   7  10
ATOM      8  C   UNL     1       7.327   6.529  17.462  0.00  0.00    +0.000 C 
ATOM      9  C   UNL     1       5.931   6.969  17.897  0.00  0.00    +0.000 C 
ATOM     10  N   UNL     1       5.069   6.145  17.071  0.00  0.00    +0.000 N 
ATOM     11  C   UNL     1       5.767   5.601  16.004  0.00  0.00    +0.000 C 
ATOM     12  O   UNL     1       5.351   4.866  15.132  0.00  0.00    +0.000 OA
ATOM     13  N   UNL     1       7.095   5.975  16.143  0.00  0.00    +0.000 N 
ATOM     14  H   UNL     1       7.799   5.599  15.521  0.00  0.00    +0.000 HD
BRANCH   8  16
ATOM     15  O   UNL     1       7.952   4.300  18.218  0.00  0.00    +0.000 OA
ATOM     16  C   UNL     1       7.866   5.503  18.470  0.00  0.00    +0.000 C 
ATOM     17  N   UNL     1       8.218   6.009  19.702  0.00  0.00    +0.000 N 
ATOM     18  H   UNL     1       8.537   6.972  19.785  0.00  0.00    +0.000 HD
BRANCH  17  19
ATOM     19  O   UNL     1       8.811   5.083  20.592  0.00  0.00    +0.000 OA
ATOM     20  H   UNL     1       8.991   4.309  20.014  0.00  0.00    +0.000 HD
ENDBRANCH  17  19
ENDBRANCH   8  16
ENDBRANCH   7  10
ENDBRANCH   1   7
BRANCH   4  21
ATOM     21  O   UNL     1       0.731   9.995  19.862  0.00  0.00    +0.000 OA
BRANCH  21  22
ATOM     22  C   UNL     1      -0.453  10.387  19.277  0.00  0.00    +0.000 A 
ATOM     23  C   UNL     1      -1.201  11.314  20.004  0.00  0.00    +0.000 A 
ATOM     24  C   UNL     1      -2.397  11.819  19.489  0.00  0.00    +0.000 A 
ATOM     25  C   UNL     1      -2.874  11.391  18.239  0.00  0.00    +0.000 A 
ATOM     26  C   UNL     1      -4.062  11.899  17.689  0.00  0.00    +0.000 A 
ATOM     27  C   UNL     1      -4.529  11.441  16.454  0.00  0.00    +0.000 A 
ATOM     28  C   UNL     1      -3.829  10.454  15.768  0.00  0.00    +0.000 A 
ATOM     29  C   UNL     1      -2.636   9.955  16.291  0.00  0.00    +0.000 A 
ATOM     30  C   UNL     1      -2.134  10.433  17.512  0.00  0.00    +0.000 A 
ATOM     31  C   UNL     1      -0.905   9.980  18.018  0.00  0.00    +0.000 A 
ENDBRANCH  21  22
ENDBRANCH   4  21
TORSDOF 6
ENDMDL
MODEL 4
REMARK VINA RESULT:      -9.3      2.604      3.659
REMARK  Name = 
REMARK  6 active torsions:
REMARK  status: ('A' for Active; 'I' for Inactive)
REMARK    1  A    between atoms: C_2  and  C_5
REMARK    2  A    between atoms: N_3  and  O_4
REMARK    3  A    between atoms: N_7  and  C_8
REMARK    4  A    between atoms: C_8  and  C_9
REMARK    5  A    between atoms: C_12  and  O_13
REMARK    6  A    between atoms: O_13  and  C_14
REMARK                            x       y       z     vdW  Elec       q    Type
REMARK                         _______ _______ _______ _____ _____    ______ ____
ROOT
ATOM      1  C   UNL     1       2.226   7.765  19.292  0.00  0.00    +0.000 A 
ATOM      2  C   UNL     1       2.329   8.454  18.076  0.00  0.00    +0.000 A 
ATOM      3  C   UNL     1       1.571   9.606  17.851  0.00  0.00    +0.000 A 
ATOM      4  C   UNL     1       0.719  10.093  18.843  0.00  0.00    +0.000 A 
ATOM      5  C   UNL     1       0.685   9.466  20.089  0.00  0.00    +0.000 A 
ATOM      6  C   UNL     1       1.408   8.290  20.302  0.00  0.00    +0.000 A 
ENDROOT
BRANCH   1   7
ATOM      7  C   UNL     1       2.976   6.477  19.504  0.00  0.00    +0.000 C 
BRANCH   7  10
ATOM      8  C   UNL     1       1.677   3.322  18.079  0.00  0.00    +0.000 C 
ATOM      9  C   UNL     1       1.997   4.796  17.839  0.00  0.00    +0.000 C 
ATOM     10  N   UNL     1       2.201   5.297  19.185  0.00  0.00    +0.000 N 
ATOM     11  C   UNL     1       1.683   4.424  20.129  0.00  0.00    +0.000 C 
ATOM     12  O   UNL     1       1.689   4.536  21.338  0.00  0.00    +0.000 OA
ATOM     13  N   UNL     1       1.210   3.311  19.451  0.00  0.00    +0.000 N 
ATOM     14  H   UNL     1       0.879   2.504  19.962  0.00  0.00    +0.000 HD
BRANCH   8  16
ATOM     15  O   UNL     1       3.888   2.876  17.158  0.00  0.00    +0.000 OA
ATOM     16  C   UNL     1       2.950   2.491  17.859  0.00  0.00    +0.000 C 
ATOM     17  N   UNL     1       2.967   1.257  18.471  0.00  0.00    +0.000 N 
ATOM     18  H   UNL     1       2.442   1.106  19.330  0.00  0.00    +0.000 HD
BRANCH  17  19
ATOM     19  O   UNL     1       4.181   0.538  18.355  0.00  0.00    +0.000 OA
ATOM     20  H   UNL     1       4.171   0.243  17.417  0.00  0.00    +0.000 HD
ENDBRANCH  17  19
ENDBRANCH   8  16
ENDBRANCH   7  10
ENDBRANCH   1   7
BRANCH   4  21
ATOM     21  O   UNL     1       0.008  11.228  18.530  0.00  0.00    +0.000 OA
BRANCH  21  22
ATOM     22  C   UNL     1      -1.365  11.195  18.422  0.00  0.00    +0.000 A 
ATOM     23  C   UNL     1      -1.870  10.294  17.483  0.00  0.00    +0.000 A 
ATOM     24  C   UNL     1      -3.249  10.141  17.319  0.00  0.00    +0.000 A 
ATOM     25  C   UNL     1      -4.149  10.901  18.083  0.00  0.00    +0.000 A 
ATOM     26  C   UNL     1      -5.539  10.751  17.953  0.00  0.00    +0.000 A 
ATOM     27  C   UNL     1      -6.415  11.534  18.709  0.00  0.00    +0.000 A 
ATOM     28  C   UNL     1      -5.914  12.493  19.583  0.00  0.00    +0.000 A 
ATOM     29  C   UNL     1      -4.535  12.640  19.739  0.00  0.00    +0.000 A 
ATOM     30  C   UNL     1      -3.642  11.833  19.016  0.00  0.00    +0.000 A 
ATOM     31  C   UNL     1      -2.255  11.932  19.209  0.00  0.00    +0.000 A 
ENDBRANCH  21  22
ENDBRANCH   4  21
TORSDOF 6
ENDMDL
MODEL 5
REMARK VINA RESULT:      -9.3      0.828      1.670
REMARK  Name = 
REMARK  6 active torsions:
REMARK  status: ('A' for Active; 'I' for Inactive)
REMARK    1  A    between atoms: C_2  and  C_5
REMARK    2  A    between atoms: N_3  and  O_4
REMARK    3  A    between atoms: N_7  and  C_8
REMARK    4  A    between atoms: C_8  and  C_9
REMARK    5  A    between atoms: C_12  and  O_13
REMARK    6  A    between atoms: O_13  and  C_14
REMARK                            x       y       z     vdW  Elec       q    Type
REMARK                         _______ _______ _______ _____ _____    ______ ____
ROOT
ATOM      1  C   UNL     1       2.632   6.915  19.212  0.00  0.00    +0.000 A 
ATOM      2  C   UNL     1       1.928   7.558  20.239  0.00  0.00    +0.000 A 
ATOM      3  C   UNL     1       1.349   8.810  20.021  0.00  0.00    +0.000 A 
ATOM      4  C   UNL     1       1.449   9.424  18.772  0.00  0.00    +0.000 A 
ATOM      5  C   UNL     1       2.066   8.746  17.719  0.00  0.00    +0.000 A 
ATOM      6  C   UNL     1       2.683   7.514  17.946  0.00  0.00    +0.000 A 
ENDROOT
BRANCH   1   7
ATOM      7  C   UNL     1       3.330   5.606  19.470  0.00  0.00    +0.000 C 
BRANCH   7  10
ATOM      8  C   UNL     1       6.157   4.997  17.165  0.00  0.00    +0.000 C 
ATOM      9  C   UNL     1       5.200   6.022  17.771  0.00  0.00    +0.000 C 
ATOM     10  N   UNL     1       4.187   5.183  18.382  0.00  0.00    +0.000 N 
ATOM     11  C   UNL     1       4.244   3.888  17.891  0.00  0.00    +0.000 C 
ATOM     12  O   UNL     1       3.548   2.940  18.193  0.00  0.00    +0.000 OA
ATOM     13  N   UNL     1       5.325   3.819  17.026  0.00  0.00    +0.000 N 
ATOM     14  H   UNL     1       5.608   2.932  16.632  0.00  0.00    +0.000 HD
BRANCH   8  16
ATOM     15  O   UNL     1       8.353   4.160  17.808  0.00  0.00    +0.000 OA
ATOM     16  C   UNL     1       7.345   4.798  18.119  0.00  0.00    +0.000 C 
ATOM     17  N   UNL     1       7.200   5.350  19.372  0.00  0.00    +0.000 N 
ATOM     18  H   UNL     1       6.619   6.176  19.501  0.00  0.00    +0.000 HD
BRANCH  17  19
ATOM     19  O   UNL     1       8.335   5.256  20.213  0.00  0.00    +0.000 OA
ATOM     20  H   UNL     1       8.627   6.192  20.289  0.00  0.00    +0.000 HD
ENDBRANCH  17  19
ENDBRANCH   8  16
ENDBRANCH   7  10
ENDBRANCH   1   7
BRANCH   4  21
ATOM     21  O   UNL     1       0.853  10.658  18.652  0.00  0.00    +0.000 OA
BRANCH  21  22
ATOM     22  C   UNL     1      -0.511  10.772  18.491  0.00  0.00    +0.000 A 
ATOM     23  C   UNL     1      -1.062   9.973  17.488  0.00  0.00    +0.000 A 
ATOM     24  C   UNL     1      -2.441   9.970  17.264  0.00  0.00    +0.000 A 
ATOM     25  C   UNL     1      -3.292  10.782  18.031  0.00  0.00    +0.000 A 
ATOM     26  C   UNL     1      -4.684  10.783  17.841  0.00  0.00    +0.000 A 
ATOM     27  C   UNL     1      -5.508  11.615  18.602  0.00  0.00    +0.000 A 
ATOM     28  C   UNL     1      -4.950  12.475  19.542  0.00  0.00    +0.000 A 
ATOM     29  C   UNL     1      -3.572  12.471  19.758  0.00  0.00    +0.000 A 
ATOM     30  C   UNL     1      -2.735  11.612  19.029  0.00  0.00    +0.000 A 
ATOM     31  C   UNL     1      -1.355  11.559  19.280  0.00  0.00    +0.000 A 
ENDBRANCH  21  22
ENDBRANCH   4  21
TORSDOF 6
ENDMDL
MODEL 6
REMARK VINA RESULT:      -9.2      2.061      2.755
REMARK  Name = 
REMARK  6 active torsions:
REMARK  status: ('A' for Active; 'I' for Inactive)
REMARK    1  A    between atoms: C_2  and  C_5
REMARK    2  A    between atoms: N_3  and  O_4
REMARK    3  A    between atoms: N_7  and  C_8
REMARK    4  A    between atoms: C_8  and  C_9
REMARK    5  A    between atoms: C_12  and  O_13
REMARK    6  A    between atoms: O_13  and  C_14
REMARK                            x       y       z     vdW  Elec       q    Type
REMARK                         _______ _______ _______ _____ _____    ______ ____
ROOT
ATOM      1  C   UNL     1       2.513   5.034  18.558  0.00  0.00    +0.000 A 
ATOM      2  C   UNL     1       1.877   4.688  19.757  0.00  0.00    +0.000 A 
ATOM      3  C   UNL     1       1.591   5.665  20.714  0.00  0.00    +0.000 A 
ATOM      4  C   UNL     1       1.919   7.001  20.474  0.00  0.00    +0.000 A 
ATOM      5  C   UNL     1       2.464   7.365  19.243  0.00  0.00    +0.000 A 
ATOM      6  C   UNL     1       2.791   6.385  18.304  0.00  0.00    +0.000 A 
ENDROOT
BRANCH   1   7
ATOM      7  C   UNL     1       2.900   3.971  17.565  0.00  0.00    +0.000 C 
BRANCH   7  10
ATOM      8  C   UNL     1       6.361   4.554  16.399  0.00  0.00    +0.000 C 
ATOM      9  C   UNL     1       4.932   4.167  16.020  0.00  0.00    +0.000 C 
ATOM     10  N   UNL     1       4.324   3.907  17.311  0.00  0.00    +0.000 N 
ATOM     11  C   UNL     1       5.286   3.733  18.293  0.00  0.00    +0.000 C 
ATOM     12  O   UNL     1       5.119   3.507  19.474  0.00  0.00    +0.000 OA
ATOM     13  N   UNL     1       6.522   3.952  17.707  0.00  0.00    +0.000 N 
ATOM     14  H   UNL     1       7.360   3.973  18.274  0.00  0.00    +0.000 HD
BRANCH   8  16
ATOM     15  O   UNL     1       5.616   6.826  15.932  0.00  0.00    +0.000 OA
ATOM     16  C   UNL     1       6.477   6.086  16.412  0.00  0.00    +0.000 C 
ATOM     17  N   UNL     1       7.633   6.590  16.965  0.00  0.00    +0.000 N 
ATOM     18  H   UNL     1       8.118   6.069  17.694  0.00  0.00    +0.000 HD
BRANCH  17  19
ATOM     19  O   UNL     1       7.691   8.000  17.072  0.00  0.00    +0.000 OA
ATOM     20  H   UNL     1       8.658   8.176  17.105  0.00  0.00    +0.000 HD
ENDBRANCH  17  19
ENDBRANCH   8  16
ENDBRANCH   7  10
ENDBRANCH   1   7
BRANCH   4  21
ATOM     21  O   UNL     1       1.605   7.891  21.475  0.00  0.00    +0.000 OA
BRANCH  21  22
ATOM     22  C   UNL     1       0.726   8.928  21.248  0.00  0.00    +0.000 A 
ATOM     23  C   UNL     1       0.235   9.557  22.393  0.00  0.00    +0.000 A 
ATOM     24  C   UNL     1      -0.627  10.651  22.286  0.00  0.00    +0.000 A 
ATOM     25  C   UNL     1      -1.027  11.125  21.027  0.00  0.00    +0.000 A 
ATOM     26  C   UNL     1      -1.876  12.236  20.890  0.00  0.00    +0.000 A 
ATOM     27  C   UNL     1      -2.277  12.676  19.627  0.00  0.00    +0.000 A 
ATOM     28  C   UNL     1      -1.858  11.997  18.487  0.00  0.00    +0.000 A 
ATOM     29  C   UNL     1      -0.998  10.905  18.605  0.00  0.00    +0.000 A 
ATOM     30  C   UNL     1      -0.554  10.475  19.865  0.00  0.00    +0.000 A 
ATOM     31  C   UNL     1       0.358   9.415  19.990  0.00  0.00    +0.000 A 
ENDBRANCH  21  22
ENDBRANCH   4  21
TORSDOF 6
ENDMDL
MODEL 7
REMARK VINA RESULT:      -9.2      0.925      1.931
REMARK  Name = 
REMARK  6 active torsions:
REMARK  status: ('A' for Active; 'I' for Inactive)
REMARK    1  A    between atoms: C_2  and  C_5
REMARK    2  A    between atoms: N_3  and  O_4
REMARK    3  A    between atoms: N_7  and  C_8
REMARK    4  A    between atoms: C_8  and  C_9
REMARK    5  A    between atoms: C_12  and  O_13
REMARK    6  A    between atoms: O_13  and  C_14
REMARK                            x       y       z     vdW  Elec       q    Type
REMARK                         _______ _______ _______ _____ _____    ______ ____
ROOT
ATOM      1  C   UNL     1       2.704   7.003  18.803  0.00  0.00    +0.000 A 
ATOM      2  C   UNL     1       2.717   7.865  17.699  0.00  0.00    +0.000 A 
ATOM      3  C   UNL     1       2.060   9.097  17.756  0.00  0.00    +0.000 A 
ATOM      4  C   UNL     1       1.401   9.489  18.923  0.00  0.00    +0.000 A 
ATOM      5  C   UNL     1       1.467   8.677  20.056  0.00  0.00    +0.000 A 
ATOM      6  C   UNL     1       2.085   7.427  19.987  0.00  0.00    +0.000 A 
ENDROOT
BRANCH   1   7
ATOM      7  C   UNL     1       3.338   5.640  18.713  0.00  0.00    +0.000 C 
BRANCH   7  10
ATOM      8  C   UNL     1       6.605   5.671  16.980  0.00  0.00    +0.000 C 
ATOM      9  C   UNL     1       5.534   6.485  17.704  0.00  0.00    +0.000 C 
ATOM     10  N   UNL     1       4.414   5.565  17.747  0.00  0.00    +0.000 N 
ATOM     11  C   UNL     1       4.582   4.527  16.844  0.00  0.00    +0.000 C 
ATOM     12  O   UNL     1       3.839   3.591  16.631  0.00  0.00    +0.000 OA
ATOM     13  N   UNL     1       5.827   4.686  16.256  0.00  0.00    +0.000 N 
ATOM     14  H   UNL     1       6.192   3.977  15.634  0.00  0.00    +0.000 HD
BRANCH   8  16
ATOM     15  O   UNL     1       8.296   4.104  17.768  0.00  0.00    +0.000 OA
ATOM     16  C   UNL     1       7.554   5.056  18.020  0.00  0.00    +0.000 C 
ATOM     17  N   UNL     1       7.500   5.614  19.278  0.00  0.00    +0.000 N 
ATOM     18  H   UNL     1       7.238   6.592  19.391  0.00  0.00    +0.000 HD
BRANCH  17  19
ATOM     19  O   UNL     1       8.447   5.117  20.204  0.00  0.00    +0.000 OA
ATOM     20  H   UNL     1       8.287   4.148  20.182  0.00  0.00    +0.000 HD
ENDBRANCH  17  19
ENDBRANCH   8  16
ENDBRANCH   7  10
ENDBRANCH   1   7
BRANCH   4  21
ATOM     21  O   UNL     1       0.778  10.714  18.885  0.00  0.00    +0.000 OA
BRANCH  21  22
ATOM     22  C   UNL     1      -0.575  10.812  18.643  0.00  0.00    +0.000 A 
ATOM     23  C   UNL     1      -1.064   9.976  17.638  0.00  0.00    +0.000 A 
ATOM     24  C   UNL     1      -2.428   9.954  17.336  0.00  0.00    +0.000 A 
ATOM     25  C   UNL     1      -3.326  10.785  18.025  0.00  0.00    +0.000 A 
ATOM     26  C   UNL     1      -4.704  10.768  17.756  0.00  0.00    +0.000 A 
ATOM     27  C   UNL     1      -5.575  11.619  18.440  0.00  0.00    +0.000 A 
ATOM     28  C   UNL     1      -5.078  12.515  19.380  0.00  0.00    +0.000 A 
ATOM     29  C   UNL     1      -3.714  12.529  19.675  0.00  0.00    +0.000 A 
ATOM     30  C   UNL     1      -2.832  11.652  19.025  0.00  0.00    +0.000 A 
ATOM     31  C   UNL     1      -1.467  11.618  19.355  0.00  0.00    +0.000 A 
ENDBRANCH  21  22
ENDBRANCH   4  21
TORSDOF 6
ENDMDL
MODEL 8
REMARK VINA RESULT:      -9.1      2.324      3.204
REMARK  Name = 
REMARK  6 active torsions:
REMARK  status: ('A' for Active; 'I' for Inactive)
REMARK    1  A    between atoms: C_2  and  C_5
REMARK    2  A    between atoms: N_3  and  O_4
REMARK    3  A    between atoms: N_7  and  C_8
REMARK    4  A    between atoms: C_8  and  C_9
REMARK    5  A    between atoms: C_12  and  O_13
REMARK    6  A    between atoms: O_13  and  C_14
REMARK                            x       y       z     vdW  Elec       q    Type
REMARK                         _______ _______ _______ _____ _____    ______ ____
ROOT
ATOM      1  C   UNL     1       2.348   7.446  19.229  0.00  0.00    +0.000 A 
ATOM      2  C   UNL     1       1.600   8.059  20.242  0.00  0.00    +0.000 A 
ATOM      3  C   UNL     1       0.946   9.270  20.004  0.00  0.00    +0.000 A 
ATOM      4  C   UNL     1       1.015   9.871  18.746  0.00  0.00    +0.000 A 
ATOM      5  C   UNL     1       1.679   9.218  17.707  0.00  0.00    +0.000 A 
ATOM      6  C   UNL     1       2.370   8.030  17.954  0.00  0.00    +0.000 A 
ENDROOT
BRANCH   1   7
ATOM      7  C   UNL     1       3.124   6.186  19.509  0.00  0.00    +0.000 C 
BRANCH   7  10
ATOM      8  C   UNL     1       2.405   2.887  18.001  0.00  0.00    +0.000 C 
ATOM      9  C   UNL     1       2.949   4.298  17.788  0.00  0.00    +0.000 C 
ATOM     10  N   UNL     1       2.498   4.992  18.979  0.00  0.00    +0.000 N 
ATOM     11  C   UNL     1       1.491   4.288  19.620  0.00  0.00    +0.000 C 
ATOM     12  O   UNL     1       0.902   4.582  20.639  0.00  0.00    +0.000 OA
ATOM     13  N   UNL     1       1.314   3.098  18.931  0.00  0.00    +0.000 N 
ATOM     14  H   UNL     1       0.691   2.387  19.292  0.00  0.00    +0.000 HD
BRANCH   8  16
ATOM     15  O   UNL     1       3.891   0.956  18.014  0.00  0.00    +0.000 OA
ATOM     16  C   UNL     1       3.525   1.998  18.563  0.00  0.00    +0.000 C 
ATOM     17  N   UNL     1       4.079   2.420  19.751  0.00  0.00    +0.000 N 
ATOM     18  H   UNL     1       4.097   3.412  19.981  0.00  0.00    +0.000 HD
BRANCH  17  19
ATOM     19  O   UNL     1       5.180   1.659  20.212  0.00  0.00    +0.000 OA
ATOM     20  H   UNL     1       5.721   2.327  20.690  0.00  0.00    +0.000 HD
ENDBRANCH  17  19
ENDBRANCH   8  16
ENDBRANCH   7  10
ENDBRANCH   1   7
BRANCH   4  21
ATOM     21  O   UNL     1       0.346  11.064  18.606  0.00  0.00    +0.000 OA
BRANCH  21  22
ATOM     22  C   UNL     1      -1.024  11.093  18.456  0.00  0.00    +0.000 A 
ATOM     23  C   UNL     1      -1.531  10.285  17.438  0.00  0.00    +0.000 A 
ATOM     24  C   UNL     1      -2.909  10.197  17.223  0.00  0.00    +0.000 A 
ATOM     25  C   UNL     1      -3.804  10.932  18.017  0.00  0.00    +0.000 A 
ATOM     26  C   UNL     1      -5.194  10.847  17.836  0.00  0.00    +0.000 A 
ATOM     27  C   UNL     1      -6.064  11.605  18.623  0.00  0.00    +0.000 A 
ATOM     28  C   UNL     1      -5.556  12.476  19.581  0.00  0.00    +0.000 A 
ATOM     29  C   UNL     1      -4.179  12.557  19.787  0.00  0.00    +0.000 A 
ATOM     30  C   UNL     1      -3.294  11.773  19.031  0.00  0.00    +0.000 A 
ATOM     31  C   UNL     1      -1.911  11.803  19.271  0.00  0.00    +0.000 A 
ENDBRANCH  21  22
ENDBRANCH   4  21
TORSDOF 6
ENDMDL
MODEL 9
REMARK VINA RESULT:      -9.1      1.631      2.096
REMARK  Name = 
REMARK  6 active torsions:
REMARK  status: ('A' for Active; 'I' for Inactive)
REMARK    1  A    between atoms: C_2  and  C_5
REMARK    2  A    between atoms: N_3  and  O_4
REMARK    3  A    between atoms: N_7  and  C_8
REMARK    4  A    between atoms: C_8  and  C_9
REMARK    5  A    between atoms: C_12  and  O_13
REMARK    6  A    between atoms: O_13  and  C_14
REMARK                            x       y       z     vdW  Elec       q    Type
REMARK                         _______ _______ _______ _____ _____    ______ ____
ROOT
ATOM      1  C   UNL     1       2.741   5.512  18.776  0.00  0.00    +0.000 A 
ATOM      2  C   UNL     1       2.144   5.915  19.978  0.00  0.00    +0.000 A 
ATOM      3  C   UNL     1       1.807   7.255  20.185  0.00  0.00    +0.000 A 
ATOM      4  C   UNL     1       2.044   8.202  19.188  0.00  0.00    +0.000 A 
ATOM      5  C   UNL     1       2.549   7.790  17.954  0.00  0.00    +0.000 A 
ATOM      6  C   UNL     1       2.928   6.460  17.761  0.00  0.00    +0.000 A 
ENDROOT
BRANCH   1   7
ATOM      7  C   UNL     1       3.184   4.086  18.586  0.00  0.00    +0.000 C 
BRANCH   7  10
ATOM      8  C   UNL     1       6.382   4.187  16.731  0.00  0.00    +0.000 C 
ATOM      9  C   UNL     1       4.964   3.622  16.805  0.00  0.00    +0.000 C 
ATOM     10  N   UNL     1       4.561   3.960  18.157  0.00  0.00    +0.000 N 
ATOM     11  C   UNL     1       5.657   4.286  18.941  0.00  0.00    +0.000 C 
ATOM     12  O   UNL     1       5.671   4.620  20.108  0.00  0.00    +0.000 OA
ATOM     13  N   UNL     1       6.776   4.255  18.123  0.00  0.00    +0.000 N 
ATOM     14  H   UNL     1       7.674   4.560  18.475  0.00  0.00    +0.000 HD
BRANCH   8  16
ATOM     15  O   UNL     1       7.309   6.317  15.998  0.00  0.00    +0.000 OA
ATOM     16  C   UNL     1       6.338   5.558  16.040  0.00  0.00    +0.000 C 
ATOM     17  N   UNL     1       5.124   5.911  15.495  0.00  0.00    +0.000 N 
ATOM     18  H   UNL     1       4.485   5.190  15.164  0.00  0.00    +0.000 HD
BRANCH  17  19
ATOM     19  O   UNL     1       5.113   7.126  14.769  0.00  0.00    +0.000 OA
ATOM     20  H   UNL     1       4.296   7.566  15.093  0.00  0.00    +0.000 HD
ENDBRANCH  17  19
ENDBRANCH   8  16
ENDBRANCH   7  10
ENDBRANCH   1   7
BRANCH   4  21
ATOM     21  O   UNL     1       1.685   9.497  19.483  0.00  0.00    +0.000 OA
BRANCH  21  22
ATOM     22  C   UNL     1       0.430   9.972  19.169  0.00  0.00    +0.000 A 
ATOM     23  C   UNL     1      -0.145  10.816  20.119  0.00  0.00    +0.000 A 
ATOM     24  C   UNL     1      -1.395  11.396  19.888  0.00  0.00    +0.000 A 
ATOM     25  C   UNL     1      -2.100  11.125  18.705  0.00  0.00    +0.000 A 
ATOM     26  C   UNL     1      -3.349  11.710  18.438  0.00  0.00    +0.000 A 
ATOM     27  C   UNL     1      -4.042  11.409  17.263  0.00  0.00    +0.000 A 
ATOM     28  C   UNL     1      -3.510  10.500  16.355  0.00  0.00    +0.000 A 
ATOM     29  C   UNL     1      -2.261   9.926  16.595  0.00  0.00    +0.000 A 
ATOM     30  C   UNL     1      -1.534  10.249  17.751  0.00  0.00    +0.000 A 
ATOM     31  C   UNL     1      -0.252   9.723  17.974  0.00  0.00    +0.000 A 
ENDBRANCH  21  22
ENDBRANCH   4  21
TORSDOF 6
ENDMDL
