MODEL 1
REMARK VINA RESULT:      -7.0      0.000      0.000
REMARK  Name = 
REMARK  9 active torsions:
REMARK  status: ('A' for Active; 'I' for Inactive)
REMARK    1  A    between atoms: C_1  and  O_2
REMARK    2  A    between atoms: O_2  and  C_3
REMARK    3  A    between atoms: N_5  and  C_6
REMARK    4  A    between atoms: C_12  and  N_13
REMARK    5  A    between atoms: C_14  and  C_15
REMARK    6  A    between atoms: C_21  and  C_22
REMARK    7  A    between atoms: N_23  and  C_24
REMARK    8  A    between atoms: C_24  and  C_25
REMARK    9  A    between atoms: C_33  and  C_34
REMARK                            x       y       z     vdW  Elec       q    Type
REMARK                         _______ _______ _______ _____ _____    ______ ____
ROOT
ATOM      1  C   UNL     1      -2.147  14.360  21.847  0.00  0.00    +0.000 C 
ATOM      2  C   UNL     1      -1.091  13.600  22.699  0.00  0.00    +0.000 C 
ATOM      3  N   UNL     1      -0.333  12.571  21.995  0.00  0.00    +0.000 N 
ATOM      4  C   UNL     1       0.669  12.982  21.013  0.00  0.00    +0.000 C 
ATOM      5  C   UNL     1      -0.453  11.259  22.455  0.00  0.00    +0.000 C 
ATOM      6  O   UNL     1      -1.040  10.939  23.484  0.00  0.00    +0.000 OA
ATOM      7  C   UNL     1       0.224  10.180  21.722  0.00  0.00    +0.000 A 
ATOM      8  C   UNL     1       1.216   9.510  22.427  0.00  0.00    +0.000 A 
ATOM      9  C   UNL     1       1.907   8.461  21.829  0.00  0.00    +0.000 A 
ATOM     10  C   UNL     1       1.647   8.099  20.514  0.00  0.00    +0.000 A 
ATOM     11  C   UNL     1       0.600   8.758  19.822  0.00  0.00    +0.000 A 
ATOM     12  C   UNL     1      -0.140   9.779  20.428  0.00  0.00    +0.000 A 
ATOM     13  O   UNL     1      -1.245  10.386  19.900  0.00  0.00    +0.000 OA
ATOM     14  C   UNL     1      -1.554  10.245  18.516  0.00  0.00    +0.000 C 
ATOM     15  C   UNL     1      -2.742  11.176  18.000  0.00  0.00    +0.000 C 
ATOM     16  C   UNL     1      -3.589  10.240  17.106  0.00  0.00    +0.000 C 
ATOM     17  N   UNL     1      -3.537  11.953  19.006  0.00  0.00    +0.000 NA
ATOM     18  C   UNL     1      -2.674  12.925  19.739  0.00  0.00    +0.000 C 
ATOM     19  C   UNL     1      -3.201  13.469  21.096  0.00  0.00    +0.000 C 
ATOM     20  C   UNL     1      -3.793  12.374  21.992  0.00  0.00    +0.000 C 
ENDROOT
BRANCH  10  21
ATOM     21  N   UNL     1       2.352   7.117  19.795  0.00  0.00    +0.000 N 
ATOM     22  C   UNL     1       2.496   5.769  19.847  0.00  0.00    +0.000 C 
ATOM     23  C   UNL     1       1.785   4.837  20.787  0.00  0.00    +0.000 C 
ATOM     24  O   UNL     1       3.276   5.281  19.010  0.00  0.00    +0.000 OA
ATOM     25  H   UNL     1       2.943   7.470  19.049  0.00  0.00    +0.000 HD
ENDBRANCH  10  21
BRANCH   1  27
ATOM     26  C   UNL     1      -2.182  16.510  20.759  0.00  0.00    +0.000 C 
ATOM     27  O   UNL     1      -1.527  15.255  20.902  0.00  0.00    +0.000 OA
ENDBRANCH   1  27
BRANCH  17  28
ATOM     28  C   UNL     1      -4.765  12.630  18.481  0.00  0.00    +0.000 C 
BRANCH  28  29
ATOM     29  C   UNL     1      -6.008  12.529  19.348  0.00  0.00    +0.000 A 
ATOM     30  C   UNL     1      -6.588  13.661  19.938  0.00  0.00    +0.000 A 
ATOM     31  C   UNL     1      -7.500  13.539  20.984  0.00  0.00    +0.000 A 
ATOM     32  C   UNL     1      -7.915  12.277  21.399  0.00  0.00    +0.000 A 
ATOM     33  C   UNL     1      -7.483  11.151  20.709  0.00  0.00    +0.000 A 
ATOM     34  C   UNL     1      -6.550  11.285  19.680  0.00  0.00    +0.000 A 
ATOM     35  F   UNL     1      -6.155  10.177  19.039  0.00  0.00    +0.000 F 
ENDBRANCH  28  29
ENDBRANCH  17  28
TORSDOF 4
ENDMDL
MODEL 2
REMARK VINA RESULT:      -6.8      5.051      6.743
REMARK  Name = 
REMARK  9 active torsions:
REMARK  status: ('A' for Active; 'I' for Inactive)
REMARK    1  A    between atoms: C_1  and  O_2
REMARK    2  A    between atoms: O_2  and  C_3
REMARK    3  A    between atoms: N_5  and  C_6
REMARK    4  A    between atoms: C_12  and  N_13
REMARK    5  A    between atoms: C_14  and  C_15
REMARK    6  A    between atoms: C_21  and  C_22
REMARK    7  A    between atoms: N_23  and  C_24
REMARK    8  A    between atoms: C_24  and  C_25
REMARK    9  A    between atoms: C_33  and  C_34
REMARK                            x       y       z     vdW  Elec       q    Type
REMARK                         _______ _______ _______ _____ _____    ______ ____
ROOT
ATOM      1  C   UNL     1      -0.301  17.323  19.160  0.00  0.00    +0.000 C 
ATOM      2  C   UNL     1       1.060  18.066  19.282  0.00  0.00    +0.000 C 
ATOM      3  N   UNL     1       2.213  17.368  18.721  0.00  0.00    +0.000 N 
ATOM      4  C   UNL     1       2.333  17.262  17.268  0.00  0.00    +0.000 C 
ATOM      5  C   UNL     1       3.245  17.031  19.596  0.00  0.00    +0.000 C 
ATOM      6  O   UNL     1       3.308  17.399  20.765  0.00  0.00    +0.000 OA
ATOM      7  C   UNL     1       4.384  16.252  19.091  0.00  0.00    +0.000 A 
ATOM      8  C   UNL     1       5.614  16.899  19.128  0.00  0.00    +0.000 A 
ATOM      9  C   UNL     1       6.758  16.243  18.687  0.00  0.00    +0.000 A 
ATOM     10  C   UNL     1       6.683  14.956  18.168  0.00  0.00    +0.000 A 
ATOM     11  C   UNL     1       5.432  14.291  18.180  0.00  0.00    +0.000 A 
ATOM     12  C   UNL     1       4.281  14.918  18.670  0.00  0.00    +0.000 A 
ATOM     13  O   UNL     1       3.062  14.326  18.845  0.00  0.00    +0.000 OA
ATOM     14  C   UNL     1       2.773  13.073  18.231  0.00  0.00    +0.000 C 
ATOM     15  C   UNL     1       1.251  12.610  18.346  0.00  0.00    +0.000 C 
ATOM     16  C   UNL     1       1.343  11.109  18.708  0.00  0.00    +0.000 C 
ATOM     17  N   UNL     1       0.322  13.399  19.219  0.00  0.00    +0.000 NA
ATOM     18  C   UNL     1       0.186  14.802  18.730  0.00  0.00    +0.000 C 
ATOM     19  C   UNL     1      -0.345  15.862  19.735  0.00  0.00    +0.000 C 
ATOM     20  C   UNL     1       0.303  15.753  21.120  0.00  0.00    +0.000 C 
ENDROOT
BRANCH  10  21
ATOM     21  N   UNL     1       7.764  14.247  17.615  0.00  0.00    +0.000 N 
ATOM     22  C   UNL     1       8.836  13.559  18.084  0.00  0.00    +0.000 C 
ATOM     23  C   UNL     1       9.154  13.289  19.527  0.00  0.00    +0.000 C 
ATOM     24  O   UNL     1       9.598  13.098  17.215  0.00  0.00    +0.000 OA
ATOM     25  H   UNL     1       7.808  14.249  16.601  0.00  0.00    +0.000 HD
ENDBRANCH  10  21
BRANCH   1  27
ATOM     26  C   UNL     1      -0.971  18.600  17.229  0.00  0.00    +0.000 C 
ATOM     27  O   UNL     1      -0.783  17.311  17.802  0.00  0.00    +0.000 OA
ENDBRANCH   1  27
BRANCH  17  28
ATOM     28  C   UNL     1      -1.025  12.789  19.452  0.00  0.00    +0.000 C 
BRANCH  28  29
ATOM     29  C   UNL     1      -1.433  12.600  20.903  0.00  0.00    +0.000 A 
ATOM     30  C   UNL     1      -0.671  11.822  21.786  0.00  0.00    +0.000 A 
ATOM     31  C   UNL     1      -1.204  11.374  22.993  0.00  0.00    +0.000 A 
ATOM     32  C   UNL     1      -2.481  11.771  23.377  0.00  0.00    +0.000 A 
ATOM     33  C   UNL     1      -3.181  12.682  22.595  0.00  0.00    +0.000 A 
ATOM     34  C   UNL     1      -2.647  13.103  21.377  0.00  0.00    +0.000 A 
ATOM     35  F   UNL     1      -3.352  13.980  20.649  0.00  0.00    +0.000 F 
ENDBRANCH  28  29
ENDBRANCH  17  28
TORSDOF 4
ENDMDL
MODEL 3
REMARK VINA RESULT:      -6.4      3.265      5.687
REMARK  Name = 
REMARK  9 active torsions:
REMARK  status: ('A' for Active; 'I' for Inactive)
REMARK    1  A    between atoms: C_1  and  O_2
REMARK    2  A    between atoms: O_2  and  C_3
REMARK    3  A    between atoms: N_5  and  C_6
REMARK    4  A    between atoms: C_12  and  N_13
REMARK    5  A    between atoms: C_14  and  C_15
REMARK    6  A    between atoms: C_21  and  C_22
REMARK    7  A    between atoms: N_23  and  C_24
REMARK    8  A    between atoms: C_24  and  C_25
REMARK    9  A    between atoms: C_33  and  C_34
REMARK                            x       y       z     vdW  Elec       q    Type
REMARK                         _______ _______ _______ _____ _____    ______ ____
ROOT
ATOM      1  C   UNL     1      -0.261  13.383  22.297  0.00  0.00    +0.000 C 
ATOM      2  C   UNL     1       0.350  12.471  21.195  0.00  0.00    +0.000 C 
ATOM      3  N   UNL     1      -0.459  12.306  19.992  0.00  0.00    +0.000 N 
ATOM      4  C   UNL     1      -0.589  13.432  19.070  0.00  0.00    +0.000 C 
ATOM      5  C   UNL     1      -0.886  11.015  19.679  0.00  0.00    +0.000 C 
ATOM      6  O   UNL     1      -0.515  10.003  20.267  0.00  0.00    +0.000 OA
ATOM      7  C   UNL     1      -1.775  10.815  18.526  0.00  0.00    +0.000 A 
ATOM      8  C   UNL     1      -1.248  10.052  17.490  0.00  0.00    +0.000 A 
ATOM      9  C   UNL     1      -2.014   9.791  16.360  0.00  0.00    +0.000 A 
ATOM     10  C   UNL     1      -3.291  10.321  16.230  0.00  0.00    +0.000 A 
ATOM     11  C   UNL     1      -3.835  11.056  17.312  0.00  0.00    +0.000 A 
ATOM     12  C   UNL     1      -3.096  11.283  18.480  0.00  0.00    +0.000 A 
ATOM     13  O   UNL     1      -3.568  11.863  19.623  0.00  0.00    +0.000 OA
ATOM     14  C   UNL     1      -4.793  12.591  19.611  0.00  0.00    +0.000 C 
ATOM     15  C   UNL     1      -5.107  13.388  20.956  0.00  0.00    +0.000 C 
ATOM     16  C   UNL     1      -6.607  13.110  21.214  0.00  0.00    +0.000 C 
ATOM     17  N   UNL     1      -4.226  13.166  22.148  0.00  0.00    +0.000 NA
ATOM     18  C   UNL     1      -2.821  13.578  21.863  0.00  0.00    +0.000 C 
ATOM     19  C   UNL     1      -1.706  13.007  22.784  0.00  0.00    +0.000 C 
ATOM     20  C   UNL     1      -1.864  11.506  23.058  0.00  0.00    +0.000 C 
ENDROOT
BRANCH  10  21
ATOM     21  N   UNL     1      -4.105  10.190  15.091  0.00  0.00    +0.000 N 
ATOM     22  C   UNL     1      -3.924   9.906  13.776  0.00  0.00    +0.000 C 
ATOM     23  C   UNL     1      -2.622   9.548  13.117  0.00  0.00    +0.000 C 
ATOM     24  O   UNL     1      -4.953   9.928  13.078  0.00  0.00    +0.000 OA
ATOM     25  H   UNL     1      -5.092  10.374  15.242  0.00  0.00    +0.000 HD
ENDBRANCH  10  21
BRANCH   1  27
ATOM     26  C   UNL     1       1.056  15.362  21.900  0.00  0.00    +0.000 C 
ATOM     27  O   UNL     1      -0.239  14.772  21.913  0.00  0.00    +0.000 OA
ENDBRANCH   1  27
BRANCH  17  28
ATOM     28  C   UNL     1      -4.703  13.773  23.431  0.00  0.00    +0.000 C 
BRANCH  28  29
ATOM     29  C   UNL     1      -4.319  15.223  23.670  0.00  0.00    +0.000 A 
ATOM     30  C   UNL     1      -4.744  16.247  22.813  0.00  0.00    +0.000 A 
ATOM     31  C   UNL     1      -4.131  17.499  22.828  0.00  0.00    +0.000 A 
ATOM     32  C   UNL     1      -3.138  17.774  23.763  0.00  0.00    +0.000 A 
ATOM     33  C   UNL     1      -2.828  16.828  24.733  0.00  0.00    +0.000 A 
ATOM     34  C   UNL     1      -3.431  15.570  24.691  0.00  0.00    +0.000 A 
ATOM     35  F   UNL     1      -3.104  14.683  25.641  0.00  0.00    +0.000 F 
ENDBRANCH  28  29
ENDBRANCH  17  28
TORSDOF 4
ENDMDL
MODEL 4
REMARK VINA RESULT:      -6.3      5.102      6.739
REMARK  Name = 
REMARK  9 active torsions:
REMARK  status: ('A' for Active; 'I' for Inactive)
REMARK    1  A    between atoms: C_1  and  O_2
REMARK    2  A    between atoms: O_2  and  C_3
REMARK    3  A    between atoms: N_5  and  C_6
REMARK    4  A    between atoms: C_12  and  N_13
REMARK    5  A    between atoms: C_14  and  C_15
REMARK    6  A    between atoms: C_21  and  C_22
REMARK    7  A    between atoms: N_23  and  C_24
REMARK    8  A    between atoms: C_24  and  C_25
REMARK    9  A    between atoms: C_33  and  C_34
REMARK                            x       y       z     vdW  Elec       q    Type
REMARK                         _______ _______ _______ _____ _____    ______ ____
ROOT
ATOM      1  C   UNL     1      -0.376  17.018  19.326  0.00  0.00    +0.000 C 
ATOM      2  C   UNL     1       0.941  17.811  19.566  0.00  0.00    +0.000 C 
ATOM      3  N   UNL     1       2.144  17.229  18.979  0.00  0.00    +0.000 N 
ATOM      4  C   UNL     1       2.311  17.274  17.528  0.00  0.00    +0.000 C 
ATOM      5  C   UNL     1       3.167  16.857  19.852  0.00  0.00    +0.000 C 
ATOM      6  O   UNL     1       3.176  17.109  21.053  0.00  0.00    +0.000 OA
ATOM      7  C   UNL     1       4.359  16.188  19.312  0.00  0.00    +0.000 A 
ATOM      8  C   UNL     1       5.551  16.888  19.453  0.00  0.00    +0.000 A 
ATOM      9  C   UNL     1       6.741  16.335  18.990  0.00  0.00    +0.000 A 
ATOM     10  C   UNL     1       6.748  15.105  18.344  0.00  0.00    +0.000 A 
ATOM     11  C   UNL     1       5.533  14.381  18.249  0.00  0.00    +0.000 A 
ATOM     12  C   UNL     1       4.337  14.900  18.758  0.00  0.00    +0.000 A 
ATOM     13  O   UNL     1       3.146  14.235  18.833  0.00  0.00    +0.000 OA
ATOM     14  C   UNL     1       2.940  13.036  18.090  0.00  0.00    +0.000 C 
ATOM     15  C   UNL     1       1.442  12.491  18.107  0.00  0.00    +0.000 C 
ATOM     16  C   UNL     1       1.601  10.967  18.323  0.00  0.00    +0.000 C 
ATOM     17  N   UNL     1       0.448  13.142  19.021  0.00  0.00    +0.000 NA
ATOM     18  C   UNL     1       0.253  14.579  18.668  0.00  0.00    +0.000 C 
ATOM     19  C   UNL     1      -0.361  15.506  19.754  0.00  0.00    +0.000 C 
ATOM     20  C   UNL     1       0.252  15.291  21.142  0.00  0.00    +0.000 C 
ENDROOT
BRANCH  10  21
ATOM     21  N   UNL     1       7.880  14.509  17.762  0.00  0.00    +0.000 N 
ATOM     22  C   UNL     1       8.901  13.716  18.177  0.00  0.00    +0.000 C 
ATOM     23  C   UNL     1       9.073  13.140  19.553  0.00  0.00    +0.000 C 
ATOM     24  O   UNL     1       9.746  13.435  17.308  0.00  0.00    +0.000 OA
ATOM     25  H   UNL     1       8.024  14.724  16.781  0.00  0.00    +0.000 HD
ENDBRANCH  10  21
BRANCH   1  27
ATOM     26  C   UNL     1      -1.115  18.441  17.527  0.00  0.00    +0.000 C 
ATOM     27  O   UNL     1      -0.817  17.117  17.958  0.00  0.00    +0.000 OA
ENDBRANCH   1  27
BRANCH  17  28
ATOM     28  C   UNL     1      -0.872  12.447  19.147  0.00  0.00    +0.000 C 
BRANCH  28  29
ATOM     29  C   UNL     1      -1.402  12.268  20.559  0.00  0.00    +0.000 A 
ATOM     30  C   UNL     1      -2.598  12.868  20.978  0.00  0.00    +0.000 A 
ATOM     31  C   UNL     1      -2.907  12.988  22.331  0.00  0.00    +0.000 A 
ATOM     32  C   UNL     1      -2.064  12.431  23.287  0.00  0.00    +0.000 A 
ATOM     33  C   UNL     1      -0.967  11.680  22.881  0.00  0.00    +0.000 A 
ATOM     34  C   UNL     1      -0.655  11.589  21.525  0.00  0.00    +0.000 A 
ATOM     35  F   UNL     1       0.413  10.860  21.171  0.00  0.00    +0.000 F 
ENDBRANCH  28  29
ENDBRANCH  17  28
TORSDOF 4
ENDMDL
MODEL 5
REMARK VINA RESULT:      -6.2      3.129      5.563
REMARK  Name = 
REMARK  9 active torsions:
REMARK  status: ('A' for Active; 'I' for Inactive)
REMARK    1  A    between atoms: C_1  and  O_2
REMARK    2  A    between atoms: O_2  and  C_3
REMARK    3  A    between atoms: N_5  and  C_6
REMARK    4  A    between atoms: C_12  and  N_13
REMARK    5  A    between atoms: C_14  and  C_15
REMARK    6  A    between atoms: C_21  and  C_22
REMARK    7  A    between atoms: N_23  and  C_24
REMARK    8  A    between atoms: C_24  and  C_25
REMARK    9  A    between atoms: C_33  and  C_34
REMARK                            x       y       z     vdW  Elec       q    Type
REMARK                         _______ _______ _______ _____ _____    ______ ____
ROOT
ATOM      1  C   UNL     1      -0.391  13.411  22.285  0.00  0.00    +0.000 C 
ATOM      2  C   UNL     1       0.262  12.561  21.157  0.00  0.00    +0.000 C 
ATOM      3  N   UNL     1      -0.561  12.345  19.972  0.00  0.00    +0.000 N 
ATOM      4  C   UNL     1      -0.801  13.468  19.068  0.00  0.00    +0.000 C 
ATOM      5  C   UNL     1      -0.893  11.029  19.653  0.00  0.00    +0.000 C 
ATOM      6  O   UNL     1      -0.431  10.043  20.220  0.00  0.00    +0.000 OA
ATOM      7  C   UNL     1      -1.792  10.772  18.519  0.00  0.00    +0.000 A 
ATOM      8  C   UNL     1      -1.233  10.064  17.462  0.00  0.00    +0.000 A 
ATOM      9  C   UNL     1      -2.004   9.756  16.346  0.00  0.00    +0.000 A 
ATOM     10  C   UNL     1      -3.321  10.185  16.254  0.00  0.00    +0.000 A 
ATOM     11  C   UNL     1      -3.894  10.864  17.357  0.00  0.00    +0.000 A 
ATOM     12  C   UNL     1      -3.147  11.136  18.510  0.00  0.00    +0.000 A 
ATOM     13  O   UNL     1      -3.634  11.665  19.671  0.00  0.00    +0.000 OA
ATOM     14  C   UNL     1      -4.912  12.295  19.697  0.00  0.00    +0.000 C 
ATOM     15  C   UNL     1      -5.255  13.051  21.059  0.00  0.00    +0.000 C 
ATOM     16  C   UNL     1      -6.721  12.654  21.349  0.00  0.00    +0.000 C 
ATOM     17  N   UNL     1      -4.329  12.886  22.228  0.00  0.00    +0.000 NA
ATOM     18  C   UNL     1      -2.968  13.409  21.914  0.00  0.00    +0.000 C 
ATOM     19  C   UNL     1      -1.791  12.917  22.801  0.00  0.00    +0.000 C 
ATOM     20  C   UNL     1      -1.824  11.406  23.060  0.00  0.00    +0.000 C 
ENDROOT
BRANCH  10  21
ATOM     21  N   UNL     1      -4.150  10.003  15.132  0.00  0.00    +0.000 N 
ATOM     22  C   UNL     1      -3.979   9.801  13.801  0.00  0.00    +0.000 C 
ATOM     23  C   UNL     1      -2.666   9.636  13.091  0.00  0.00    +0.000 C 
ATOM     24  O   UNL     1      -5.026   9.724  13.133  0.00  0.00    +0.000 OA
ATOM     25  H   UNL     1      -5.146  10.056  15.319  0.00  0.00    +0.000 HD
ENDBRANCH  10  21
BRANCH   1  27
ATOM     26  C   UNL     1       0.737  15.522  22.006  0.00  0.00    +0.000 C 
ATOM     27  O   UNL     1      -0.487  14.802  21.918  0.00  0.00    +0.000 OA
ENDBRANCH   1  27
BRANCH  17  28
ATOM     28  C   UNL     1      -4.821  13.440  23.529  0.00  0.00    +0.000 C 
BRANCH  28  29
ATOM     29  C   UNL     1      -4.480  14.893  23.809  0.00  0.00    +0.000 A 
ATOM     30  C   UNL     1      -3.380  15.251  24.601  0.00  0.00    +0.000 A 
ATOM     31  C   UNL     1      -3.263  16.534  25.132  0.00  0.00    +0.000 A 
ATOM     32  C   UNL     1      -4.203  17.507  24.808  0.00  0.00    +0.000 A 
ATOM     33  C   UNL     1      -5.201  17.217  23.885  0.00  0.00    +0.000 A 
ATOM     34  C   UNL     1      -5.322  15.922  23.380  0.00  0.00    +0.000 A 
ATOM     35  F   UNL     1      -6.298  15.679  22.495  0.00  0.00    +0.000 F 
ENDBRANCH  28  29
ENDBRANCH  17  28
TORSDOF 4
ENDMDL
MODEL 6
REMARK VINA RESULT:      -6.0      4.926      7.197
REMARK  Name = 
REMARK  9 active torsions:
REMARK  status: ('A' for Active; 'I' for Inactive)
REMARK    1  A    between atoms: C_1  and  O_2
REMARK    2  A    between atoms: O_2  and  C_3
REMARK    3  A    between atoms: N_5  and  C_6
REMARK    4  A    between atoms: C_12  and  N_13
REMARK    5  A    between atoms: C_14  and  C_15
REMARK    6  A    between atoms: C_21  and  C_22
REMARK    7  A    between atoms: N_23  and  C_24
REMARK    8  A    between atoms: C_24  and  C_25
REMARK    9  A    between atoms: C_33  and  C_34
REMARK                            x       y       z     vdW  Elec       q    Type
REMARK                         _______ _______ _______ _____ _____    ______ ____
ROOT
ATOM      1  C   UNL     1      -1.002  16.479  20.621  0.00  0.00    +0.000 C 
ATOM      2  C   UNL     1       0.107  17.494  21.021  0.00  0.00    +0.000 C 
ATOM      3  N   UNL     1       1.364  17.376  20.289  0.00  0.00    +0.000 N 
ATOM      4  C   UNL     1       1.405  17.792  18.889  0.00  0.00    +0.000 C 
ATOM      5  C   UNL     1       2.509  17.076  21.027  0.00  0.00    +0.000 C 
ATOM      6  O   UNL     1       2.552  17.040  22.253  0.00  0.00    +0.000 OA
ATOM      7  C   UNL     1       3.780  16.862  20.320  0.00  0.00    +0.000 A 
ATOM      8  C   UNL     1       4.783  17.781  20.604  0.00  0.00    +0.000 A 
ATOM      9  C   UNL     1       6.030  17.658  19.999  0.00  0.00    +0.000 A 
ATOM     10  C   UNL     1       6.274  16.649  19.076  0.00  0.00    +0.000 A 
ATOM     11  C   UNL     1       5.259  15.692  18.831  0.00  0.00    +0.000 A 
ATOM     12  C   UNL     1       4.017  15.770  19.473  0.00  0.00    +0.000 A 
ATOM     13  O   UNL     1       3.024  14.834  19.407  0.00  0.00    +0.000 OA
ATOM     14  C   UNL     1       3.048  13.826  18.400  0.00  0.00    +0.000 C 
ATOM     15  C   UNL     1       1.724  12.940  18.313  0.00  0.00    +0.000 C 
ATOM     16  C   UNL     1       2.251  11.495  18.152  0.00  0.00    +0.000 C 
ATOM     17  N   UNL     1       0.678  13.101  19.375  0.00  0.00    +0.000 NA
ATOM     18  C   UNL     1       0.127  14.487  19.382  0.00  0.00    +0.000 C 
ATOM     19  C   UNL     1      -0.602  14.961  20.671  0.00  0.00    +0.000 C 
ATOM     20  C   UNL     1       0.148  14.590  21.955  0.00  0.00    +0.000 C 
ENDROOT
BRANCH  10  21
ATOM     21  N   UNL     1       7.467  16.498  18.346  0.00  0.00    +0.000 N 
ATOM     22  C   UNL     1       8.481  15.599  18.289  0.00  0.00    +0.000 C 
ATOM     23  C   UNL     1       8.572  14.314  19.061  0.00  0.00    +0.000 C 
ATOM     24  O   UNL     1       9.398  15.876  17.495  0.00  0.00    +0.000 OA
ATOM     25  H   UNL     1       7.676  17.253  17.701  0.00  0.00    +0.000 HD
ENDBRANCH  10  21
BRANCH   1  27
ATOM     26  C   UNL     1      -2.361  17.953  19.283  0.00  0.00    +0.000 C 
ATOM     27  O   UNL     1      -1.558  16.779  19.325  0.00  0.00    +0.000 OA
ENDBRANCH   1  27
BRANCH  17  28
ATOM     28  C   UNL     1      -0.429  12.094  19.354  0.00  0.00    +0.000 C 
BRANCH  28  29
ATOM     29  C   UNL     1      -0.536  11.190  20.571  0.00  0.00    +0.000 A 
ATOM     30  C   UNL     1      -1.138  11.626  21.760  0.00  0.00    +0.000 A 
ATOM     31  C   UNL     1      -0.940  10.943  22.958  0.00  0.00    +0.000 A 
ATOM     32  C   UNL     1      -0.205   9.761  22.970  0.00  0.00    +0.000 A 
ATOM     33  C   UNL     1       0.249   9.223  21.771  0.00  0.00    +0.000 A 
ATOM     34  C   UNL     1       0.066   9.929  20.582  0.00  0.00    +0.000 A 
ATOM     35  F   UNL     1       0.520   9.382  19.447  0.00  0.00    +0.000 F 
ENDBRANCH  28  29
ENDBRANCH  17  28
TORSDOF 4
ENDMDL
MODEL 7
REMARK VINA RESULT:      -6.0      7.384     11.430
REMARK  Name = 
REMARK  9 active torsions:
REMARK  status: ('A' for Active; 'I' for Inactive)
REMARK    1  A    between atoms: C_1  and  O_2
REMARK    2  A    between atoms: O_2  and  C_3
REMARK    3  A    between atoms: N_5  and  C_6
REMARK    4  A    between atoms: C_12  and  N_13
REMARK    5  A    between atoms: C_14  and  C_15
REMARK    6  A    between atoms: C_21  and  C_22
REMARK    7  A    between atoms: N_23  and  C_24
REMARK    8  A    between atoms: C_24  and  C_25
REMARK    9  A    between atoms: C_33  and  C_34
REMARK                            x       y       z     vdW  Elec       q    Type
REMARK                         _______ _______ _______ _____ _____    ______ ____
ROOT
ATOM      1  C   UNL     1       7.359  17.066  18.920  0.00  0.00    +0.000 C 
ATOM      2  C   UNL     1       5.936  17.130  18.295  0.00  0.00    +0.000 C 
ATOM      3  N   UNL     1       4.849  16.669  19.153  0.00  0.00    +0.000 N 
ATOM      4  C   UNL     1       4.451  17.495  20.291  0.00  0.00    +0.000 C 
ATOM      5  C   UNL     1       4.106  15.573  18.712  0.00  0.00    +0.000 C 
ATOM      6  O   UNL     1       4.219  15.064  17.601  0.00  0.00    +0.000 OA
ATOM      7  C   UNL     1       3.060  15.022  19.584  0.00  0.00    +0.000 A 
ATOM      8  C   UNL     1       1.763  15.110  19.090  0.00  0.00    +0.000 A 
ATOM      9  C   UNL     1       0.701  14.604  19.830  0.00  0.00    +0.000 A 
ATOM     10  C   UNL     1       0.913  14.045  21.084  0.00  0.00    +0.000 A 
ATOM     11  C   UNL     1       2.243  13.918  21.556  0.00  0.00    +0.000 A 
ATOM     12  C   UNL     1       3.328  14.374  20.799  0.00  0.00    +0.000 A 
ATOM     13  O   UNL     1       4.647  14.186  21.099  0.00  0.00    +0.000 OA
ATOM     14  C   UNL     1       5.038  13.773  22.406  0.00  0.00    +0.000 C 
ATOM     15  C   UNL     1       6.611  13.801  22.671  0.00  0.00    +0.000 C 
ATOM     16  C   UNL     1       6.888  12.475  23.418  0.00  0.00    +0.000 C 
ATOM     17  N   UNL     1       7.532  14.063  21.517  0.00  0.00    +0.000 NA
ATOM     18  C   UNL     1       7.289  15.413  20.931  0.00  0.00    +0.000 C 
ATOM     19  C   UNL     1       7.804  15.669  19.487  0.00  0.00    +0.000 C 
ATOM     20  C   UNL     1       7.492  14.517  18.525  0.00  0.00    +0.000 C 
ENDROOT
BRANCH  10  21
ATOM     21  N   UNL     1      -0.102  13.591  21.945  0.00  0.00    +0.000 N 
ATOM     22  C   UNL     1      -0.684  12.401  22.243  0.00  0.00    +0.000 C 
ATOM     23  C   UNL     1      -0.292  11.060  21.693  0.00  0.00    +0.000 C 
ATOM     24  O   UNL     1      -1.610  12.452  23.072  0.00  0.00    +0.000 OA
ATOM     25  H   UNL     1      -0.568  14.315  22.483  0.00  0.00    +0.000 HD
ENDBRANCH  10  21
BRANCH   1  27
ATOM     26  C   UNL     1       8.850  18.622  19.999  0.00  0.00    +0.000 C 
ATOM     27  O   UNL     1       7.541  18.069  19.940  0.00  0.00    +0.000 OA
ENDBRANCH   1  27
BRANCH  17  28
ATOM     28  C   UNL     1       8.989  13.861  21.790  0.00  0.00    +0.000 C 
BRANCH  28  29
ATOM     29  C   UNL     1       9.773  13.113  20.726  0.00  0.00    +0.000 A 
ATOM     30  C   UNL     1       9.402  11.829  20.305  0.00  0.00    +0.000 A 
ATOM     31  C   UNL     1      10.288  11.018  19.597  0.00  0.00    +0.000 A 
ATOM     32  C   UNL     1      11.533  11.515  19.224  0.00  0.00    +0.000 A 
ATOM     33  C   UNL     1      11.848  12.844  19.481  0.00  0.00    +0.000 A 
ATOM     34  C   UNL     1      10.962  13.636  20.211  0.00  0.00    +0.000 A 
ATOM     35  F   UNL     1      11.301  14.912  20.443  0.00  0.00    +0.000 F 
ENDBRANCH  28  29
ENDBRANCH  17  28
TORSDOF 4
ENDMDL
MODEL 8
REMARK VINA RESULT:      -6.0      4.045      8.903
REMARK  Name = 
REMARK  9 active torsions:
REMARK  status: ('A' for Active; 'I' for Inactive)
REMARK    1  A    between atoms: C_1  and  O_2
REMARK    2  A    between atoms: O_2  and  C_3
REMARK    3  A    between atoms: N_5  and  C_6
REMARK    4  A    between atoms: C_12  and  N_13
REMARK    5  A    between atoms: C_14  and  C_15
REMARK    6  A    between atoms: C_21  and  C_22
REMARK    7  A    between atoms: N_23  and  C_24
REMARK    8  A    between atoms: C_24  and  C_25
REMARK    9  A    between atoms: C_33  and  C_34
REMARK                            x       y       z     vdW  Elec       q    Type
REMARK                         _______ _______ _______ _____ _____    ______ ____
ROOT
ATOM      1  C   UNL     1      -0.559  11.532  18.760  0.00  0.00    +0.000 C 
ATOM      2  C   UNL     1      -1.432  11.040  19.949  0.00  0.00    +0.000 C 
ATOM      3  N   UNL     1      -2.092  12.087  20.723  0.00  0.00    +0.000 N 
ATOM      4  C   UNL     1      -3.212  12.807  20.121  0.00  0.00    +0.000 C 
ATOM      5  C   UNL     1      -1.757  12.192  22.073  0.00  0.00    +0.000 C 
ATOM      6  O   UNL     1      -1.055  11.386  22.676  0.00  0.00    +0.000 OA
ATOM      7  C   UNL     1      -2.332  13.286  22.869  0.00  0.00    +0.000 A 
ATOM      8  C   UNL     1      -3.166  12.894  23.909  0.00  0.00    +0.000 A 
ATOM      9  C   UNL     1      -3.749  13.852  24.732  0.00  0.00    +0.000 A 
ATOM     10  C   UNL     1      -3.542  15.206  24.502  0.00  0.00    +0.000 A 
ATOM     11  C   UNL     1      -2.652  15.591  23.469  0.00  0.00    +0.000 A 
ATOM     12  C   UNL     1      -2.016  14.638  22.665  0.00  0.00    +0.000 A 
ATOM     13  O   UNL     1      -1.049  14.894  21.735  0.00  0.00    +0.000 OA
ATOM     14  C   UNL     1      -0.829  16.223  21.270  0.00  0.00    +0.000 C 
ATOM     15  C   UNL     1       0.177  16.340  20.037  0.00  0.00    +0.000 C 
ATOM     16  C   UNL     1       1.074  17.546  20.400  0.00  0.00    +0.000 C 
ATOM     17  N   UNL     1       0.930  15.118  19.604  0.00  0.00    +0.000 NA
ATOM     18  C   UNL     1      -0.000  14.046  19.148  0.00  0.00    +0.000 C 
ATOM     19  C   UNL     1       0.549  12.592  19.106  0.00  0.00    +0.000 C 
ATOM     20  C   UNL     1       1.352  12.218  20.357  0.00  0.00    +0.000 C 
ENDROOT
BRANCH  10  21
ATOM     21  N   UNL     1      -4.157  16.247  25.219  0.00  0.00    +0.000 N 
ATOM     22  C   UNL     1      -5.091  17.200  24.969  0.00  0.00    +0.000 C 
ATOM     23  C   UNL     1      -5.862  17.373  23.692  0.00  0.00    +0.000 C 
ATOM     24  O   UNL     1      -5.329  17.976  25.912  0.00  0.00    +0.000 OA
ATOM     25  H   UNL     1      -3.825  16.371  26.170  0.00  0.00    +0.000 HD
ENDBRANCH  10  21
BRANCH   1  27
ATOM     26  C   UNL     1      -2.262  11.076  17.118  0.00  0.00    +0.000 C 
ATOM     27  O   UNL     1      -1.366  12.031  17.675  0.00  0.00    +0.000 OA
ENDBRANCH   1  27
BRANCH  17  28
ATOM     28  C   UNL     1       2.010  15.346  18.592  0.00  0.00    +0.000 C 
BRANCH  28  29
ATOM     29  C   UNL     1       3.431  15.079  19.056  0.00  0.00    +0.000 A 
ATOM     30  C   UNL     1       3.730  14.825  20.402  0.00  0.00    +0.000 A 
ATOM     31  C   UNL     1       5.036  14.916  20.878  0.00  0.00    +0.000 A 
ATOM     32  C   UNL     1       6.079  15.179  19.996  0.00  0.00    +0.000 A 
ATOM     33  C   UNL     1       5.821  15.259  18.632  0.00  0.00    +0.000 A 
ATOM     34  C   UNL     1       4.506  15.191  18.171  0.00  0.00    +0.000 A 
ATOM     35  F   UNL     1       4.296  15.275  16.851  0.00  0.00    +0.000 F 
ENDBRANCH  28  29
ENDBRANCH  17  28
TORSDOF 4
ENDMDL
MODEL 9
REMARK VINA RESULT:      -5.9      7.722     11.921
REMARK  Name = 
REMARK  9 active torsions:
REMARK  status: ('A' for Active; 'I' for Inactive)
REMARK    1  A    between atoms: C_1  and  O_2
REMARK    2  A    between atoms: O_2  and  C_3
REMARK    3  A    between atoms: N_5  and  C_6
REMARK    4  A    between atoms: C_12  and  N_13
REMARK    5  A    between atoms: C_14  and  C_15
REMARK    6  A    between atoms: C_21  and  C_22
REMARK    7  A    between atoms: N_23  and  C_24
REMARK    8  A    between atoms: C_24  and  C_25
REMARK    9  A    between atoms: C_33  and  C_34
REMARK                            x       y       z     vdW  Elec       q    Type
REMARK                         _______ _______ _______ _____ _____    ______ ____
ROOT
ATOM      1  C   UNL     1       7.993  17.020  19.068  0.00  0.00    +0.000 C 
ATOM      2  C   UNL     1       6.598  17.220  18.410  0.00  0.00    +0.000 C 
ATOM      3  N   UNL     1       5.455  16.800  19.215  0.00  0.00    +0.000 N 
ATOM      4  C   UNL     1       5.085  17.598  20.382  0.00  0.00    +0.000 C 
ATOM      5  C   UNL     1       4.648  15.785  18.701  0.00  0.00    +0.000 C 
ATOM      6  O   UNL     1       4.756  15.322  17.569  0.00  0.00    +0.000 OA
ATOM      7  C   UNL     1       3.538  15.272  19.517  0.00  0.00    +0.000 A 
ATOM      8  C   UNL     1       2.267  15.480  18.995  0.00  0.00    +0.000 A 
ATOM      9  C   UNL     1       1.149  15.019  19.681  0.00  0.00    +0.000 A 
ATOM     10  C   UNL     1       1.282  14.387  20.911  0.00  0.00    +0.000 A 
ATOM     11  C   UNL     1       2.585  14.139  21.410  0.00  0.00    +0.000 A 
ATOM     12  C   UNL     1       3.723  14.549  20.705  0.00  0.00    +0.000 A 
ATOM     13  O   UNL     1       5.015  14.249  21.030  0.00  0.00    +0.000 OA
ATOM     14  C   UNL     1       5.336  13.747  22.324  0.00  0.00    +0.000 C 
ATOM     15  C   UNL     1       6.898  13.645  22.631  0.00  0.00    +0.000 C 
ATOM     16  C   UNL     1       7.056  12.268  23.318  0.00  0.00    +0.000 C 
ATOM     17  N   UNL     1       7.869  13.892  21.516  0.00  0.00    +0.000 NA
ATOM     18  C   UNL     1       7.743  15.283  20.991  0.00  0.00    +0.000 C 
ATOM     19  C   UNL     1       8.318  15.569  19.575  0.00  0.00    +0.000 C 
ATOM     20  C   UNL     1       7.951  14.490  18.550  0.00  0.00    +0.000 C 
ENDROOT
BRANCH  10  21
ATOM     21  N   UNL     1       0.212  13.969  21.721  0.00  0.00    +0.000 N 
ATOM     22  C   UNL     1      -0.534  14.500  22.724  0.00  0.00    +0.000 C 
ATOM     23  C   UNL     1      -0.429  15.898  23.261  0.00  0.00    +0.000 C 
ATOM     24  O   UNL     1      -1.394  13.744  23.208  0.00  0.00    +0.000 OA
ATOM     25  H   UNL     1      -0.098  13.015  21.567  0.00  0.00    +0.000 HD
ENDBRANCH  10  21
BRANCH   1  27
ATOM     26  C   UNL     1       9.507  18.556  20.142  0.00  0.00    +0.000 C 
ATOM     27  O   UNL     1       8.217  17.957  20.140  0.00  0.00    +0.000 OA
ENDBRANCH   1  27
BRANCH  17  28
ATOM     28  C   UNL     1       9.300  13.569  21.816  0.00  0.00    +0.000 C 
BRANCH  28  29
ATOM     29  C   UNL     1      10.096  12.940  20.687  0.00  0.00    +0.000 A 
ATOM     30  C   UNL     1       9.798  11.659  20.201  0.00  0.00    +0.000 A 
ATOM     31  C   UNL     1      10.713  10.954  19.421  0.00  0.00    +0.000 A 
ATOM     32  C   UNL     1      11.909  11.556  19.041  0.00  0.00    +0.000 A 
ATOM     33  C   UNL     1      12.142  12.887  19.367  0.00  0.00    +0.000 A 
ATOM     34  C   UNL     1      11.229  13.573  20.169  0.00  0.00    +0.000 A 
ATOM     35  F   UNL     1      11.489  14.854  20.466  0.00  0.00    +0.000 F 
ENDBRANCH  28  29
ENDBRANCH  17  28
TORSDOF 4
ENDMDL
