MODEL 1
REMARK VINA RESULT:      -8.0      0.000      0.000
REMARK  Name = 
REMARK  7 active torsions:
REMARK  status: ('A' for Active; 'I' for Inactive)
REMARK    1  A    between atoms: C_1  and  O_2
REMARK    2  A    between atoms: O_2  and  C_3
REMARK    3  A    between atoms: C_7  and  O_8
REMARK    4  A    between atoms: O_8  and  C_9
REMARK    5  A    between atoms: C_10  and  N_11
REMARK    6  A    between atoms: C_12  and  C_14
REMARK    7  A    between atoms: C_17  and  C_18
REMARK                            x       y       z     vdW  Elec       q    Type
REMARK                         _______ _______ _______ _____ _____    ______ ____
ROOT
ATOM      1  N   UNL     1       0.881   9.085  19.519  0.00  0.00    +0.000 N 
ATOM      2  C   UNL     1       1.840   8.836  18.552  0.00  0.00    +0.000 C 
ATOM      3  O   UNL     1       2.163   9.599  17.647  0.00  0.00    +0.000 OA
ATOM      4  H   UNL     1       0.928   8.493  20.344  0.00  0.00    +0.000 HD
ENDROOT
BRANCH   1  10
ATOM      5  C   UNL     1      -0.077  10.863  20.849  0.00  0.00    +0.000 A 
ATOM      6  C   UNL     1      -0.974  11.923  21.043  0.00  0.00    +0.000 A 
ATOM      7  C   UNL     1      -1.816  12.332  20.017  0.00  0.00    +0.000 A 
ATOM      8  C   UNL     1      -1.786  11.665  18.801  0.00  0.00    +0.000 A 
ATOM      9  C   UNL     1      -0.910  10.587  18.585  0.00  0.00    +0.000 A 
ATOM     10  C   UNL     1      -0.036  10.170  19.611  0.00  0.00    +0.000 A 
BRANCH   5  12
ATOM     11  C   UNL     1       0.192   9.732  22.913  0.00  0.00    +0.000 C 
ATOM     12  O   UNL     1       0.798  10.446  21.833  0.00  0.00    +0.000 OA
ENDBRANCH   5  12
BRANCH   9  13
ATOM     13  O   UNL     1      -1.019   9.851  17.432  0.00  0.00    +0.000 OA
ATOM     14  C   UNL     1      -2.309   9.887  16.822  0.00  0.00    +0.000 C 
ENDBRANCH   9  13
ENDBRANCH   1  10
BRANCH   2  15
ATOM     15  C   UNL     1       2.545   7.570  18.727  0.00  0.00    +0.000 A 
ATOM     16  C   UNL     1       2.365   6.574  19.665  0.00  0.00    +0.000 A 
ATOM     17  C   UNL     1       3.298   5.554  19.370  0.00  0.00    +0.000 A 
ATOM     18  C   UNL     1       4.001   5.965  18.257  0.00  0.00    +0.000 A 
ATOM     19  O   UNL     1       3.552   7.204  17.869  0.00  0.00    +0.000 OA
BRANCH  18  20
ATOM     20  C   UNL     1       5.093   5.399  17.452  0.00  0.00    +0.000 A 
ATOM     21  C   UNL     1       4.808   5.031  16.120  0.00  0.00    +0.000 A 
ATOM     22  C   UNL     1       5.793   4.501  15.289  0.00  0.00    +0.000 A 
ATOM     23 CL   UNL     1       5.406   4.059  13.672  0.00  0.00    +0.000 Cl
ATOM     24  C   UNL     1       7.090   4.330  15.760  0.00  0.00    +0.000 A 
ATOM     25  C   UNL     1       7.394   4.683  17.074  0.00  0.00    +0.000 A 
ATOM     26  C   UNL     1       6.404   5.209  17.918  0.00  0.00    +0.000 A 
ATOM     27 CL   UNL     1       6.896   5.550  19.541  0.00  0.00    +0.000 Cl
ENDBRANCH  18  20
ENDBRANCH   2  15
TORSDOF 5
ENDMDL
MODEL 2
REMARK VINA RESULT:      -7.4      2.091      3.245
REMARK  Name = 
REMARK  7 active torsions:
REMARK  status: ('A' for Active; 'I' for Inactive)
REMARK    1  A    between atoms: C_1  and  O_2
REMARK    2  A    between atoms: O_2  and  C_3
REMARK    3  A    between atoms: C_7  and  O_8
REMARK    4  A    between atoms: O_8  and  C_9
REMARK    5  A    between atoms: C_10  and  N_11
REMARK    6  A    between atoms: C_12  and  C_14
REMARK    7  A    between atoms: C_17  and  C_18
REMARK                            x       y       z     vdW  Elec       q    Type
REMARK                         _______ _______ _______ _____ _____    ______ ____
ROOT
ATOM      1  N   UNL     1       1.016   9.175  19.086  0.00  0.00    +0.000 N 
ATOM      2  C   UNL     1       1.969   9.273  18.086  0.00  0.00    +0.000 C 
ATOM      3  O   UNL     1       2.205  10.272  17.414  0.00  0.00    +0.000 OA
ATOM      4  H   UNL     1       1.132   8.394  19.726  0.00  0.00    +0.000 HD
ENDROOT
BRANCH   1  10
ATOM      5  C   UNL     1       0.107  10.651  20.772  0.00  0.00    +0.000 A 
ATOM      6  C   UNL     1      -0.856  11.556  21.242  0.00  0.00    +0.000 A 
ATOM      7  C   UNL     1      -1.899  11.965  20.421  0.00  0.00    +0.000 A 
ATOM      8  C   UNL     1      -2.003  11.449  19.137  0.00  0.00    +0.000 A 
ATOM      9  C   UNL     1      -1.063  10.526  18.647  0.00  0.00    +0.000 A 
ATOM     10  C   UNL     1       0.013  10.114  19.462  0.00  0.00    +0.000 A 
BRANCH   5  12
ATOM     11  C   UNL     1       0.847   9.326  22.591  0.00  0.00    +0.000 C 
ATOM     12  O   UNL     1       1.176  10.244  21.545  0.00  0.00    +0.000 OA
ENDBRANCH   5  12
BRANCH   9  13
ATOM     13  O   UNL     1      -1.283   9.917  17.438  0.00  0.00    +0.000 OA
ATOM     14  C   UNL     1      -2.346  10.483  16.672  0.00  0.00    +0.000 C 
ENDBRANCH   9  13
ENDBRANCH   1  10
BRANCH   2  15
ATOM     15  C   UNL     1       2.782   8.072  17.921  0.00  0.00    +0.000 A 
ATOM     16  C   UNL     1       4.052   7.923  17.401  0.00  0.00    +0.000 A 
ATOM     17  C   UNL     1       4.378   6.551  17.494  0.00  0.00    +0.000 A 
ATOM     18  C   UNL     1       3.298   5.922  18.077  0.00  0.00    +0.000 A 
ATOM     19  O   UNL     1       2.314   6.848  18.326  0.00  0.00    +0.000 OA
BRANCH  18  20
ATOM     20  C   UNL     1       2.981   4.534  18.446  0.00  0.00    +0.000 A 
ATOM     21  C   UNL     1       2.281   4.317  19.652  0.00  0.00    +0.000 A 
ATOM     22  C   UNL     1       1.931   3.033  20.063  0.00  0.00    +0.000 A 
ATOM     23 CL   UNL     1       1.082   2.806  21.543  0.00  0.00    +0.000 Cl
ATOM     24  C   UNL     1       2.261   1.932  19.282  0.00  0.00    +0.000 A 
ATOM     25  C   UNL     1       2.956   2.122  18.088  0.00  0.00    +0.000 A 
ATOM     26  C   UNL     1       3.319   3.412  17.673  0.00  0.00    +0.000 A 
ATOM     27 CL   UNL     1       4.229   3.507  16.205  0.00  0.00    +0.000 Cl
ENDBRANCH  18  20
ENDBRANCH   2  15
TORSDOF 5
ENDMDL
MODEL 3
REMARK VINA RESULT:      -7.4      3.541      8.539
REMARK  Name = 
REMARK  7 active torsions:
REMARK  status: ('A' for Active; 'I' for Inactive)
REMARK    1  A    between atoms: C_1  and  O_2
REMARK    2  A    between atoms: O_2  and  C_3
REMARK    3  A    between atoms: C_7  and  O_8
REMARK    4  A    between atoms: O_8  and  C_9
REMARK    5  A    between atoms: C_10  and  N_11
REMARK    6  A    between atoms: C_12  and  C_14
REMARK    7  A    between atoms: C_17  and  C_18
REMARK                            x       y       z     vdW  Elec       q    Type
REMARK                         _______ _______ _______ _____ _____    ______ ____
ROOT
ATOM      1  N   UNL     1       3.774   6.325  18.225  0.00  0.00    +0.000 N 
ATOM      2  C   UNL     1       2.991   7.452  18.038  0.00  0.00    +0.000 C 
ATOM      3  O   UNL     1       2.884   8.088  16.994  0.00  0.00    +0.000 OA
ATOM      4  H   UNL     1       3.543   5.761  19.038  0.00  0.00    +0.000 HD
ENDROOT
BRANCH   1  10
ATOM      5  C   UNL     1       4.422   4.446  16.849  0.00  0.00    +0.000 A 
ATOM      6  C   UNL     1       5.318   3.777  16.001  0.00  0.00    +0.000 A 
ATOM      7  C   UNL     1       6.502   4.385  15.604  0.00  0.00    +0.000 A 
ATOM      8  C   UNL     1       6.811   5.653  16.077  0.00  0.00    +0.000 A 
ATOM      9  C   UNL     1       5.941   6.338  16.943  0.00  0.00    +0.000 A 
ATOM     10  C   UNL     1       4.726   5.741  17.341  0.00  0.00    +0.000 A 
BRANCH   5  12
ATOM     11  C   UNL     1       3.325   2.590  17.831  0.00  0.00    +0.000 C 
ATOM     12  O   UNL     1       3.221   3.888  17.241  0.00  0.00    +0.000 OA
ENDBRANCH   5  12
BRANCH   9  13
ATOM     13  O   UNL     1       6.350   7.515  17.516  0.00  0.00    +0.000 OA
ATOM     14  C   UNL     1       7.765   7.684  17.586  0.00  0.00    +0.000 C 
ENDBRANCH   9  13
ENDBRANCH   1  10
BRANCH   2  15
ATOM     15  C   UNL     1       2.188   7.816  19.201  0.00  0.00    +0.000 A 
ATOM     16  C   UNL     1       1.892   7.094  20.339  0.00  0.00    +0.000 A 
ATOM     17  C   UNL     1       1.095   7.923  21.160  0.00  0.00    +0.000 A 
ATOM     18  C   UNL     1       0.946   9.121  20.493  0.00  0.00    +0.000 A 
ATOM     19  O   UNL     1       1.602   9.054  19.288  0.00  0.00    +0.000 OA
BRANCH  18  20
ATOM     20  C   UNL     1       0.247  10.384  20.773  0.00  0.00    +0.000 A 
ATOM     21  C   UNL     1       0.169  11.338  19.736  0.00  0.00    +0.000 A 
ATOM     22  C   UNL     1      -0.489  12.552  19.918  0.00  0.00    +0.000 A 
ATOM     23 CL   UNL     1      -0.558  13.693  18.632  0.00  0.00    +0.000 Cl
ATOM     24  C   UNL     1      -1.094  12.846  21.135  0.00  0.00    +0.000 A 
ATOM     25  C   UNL     1      -1.026  11.920  22.175  0.00  0.00    +0.000 A 
ATOM     26  C   UNL     1      -0.358  10.700  22.000  0.00  0.00    +0.000 A 
ATOM     27 CL   UNL     1      -0.296   9.665  23.386  0.00  0.00    +0.000 Cl
ENDBRANCH  18  20
ENDBRANCH   2  15
TORSDOF 5
ENDMDL
MODEL 4
REMARK VINA RESULT:      -7.4      0.954      1.046
REMARK  Name = 
REMARK  7 active torsions:
REMARK  status: ('A' for Active; 'I' for Inactive)
REMARK    1  A    between atoms: C_1  and  O_2
REMARK    2  A    between atoms: O_2  and  C_3
REMARK    3  A    between atoms: C_7  and  O_8
REMARK    4  A    between atoms: O_8  and  C_9
REMARK    5  A    between atoms: C_10  and  N_11
REMARK    6  A    between atoms: C_12  and  C_14
REMARK    7  A    between atoms: C_17  and  C_18
REMARK                            x       y       z     vdW  Elec       q    Type
REMARK                         _______ _______ _______ _____ _____    ______ ____
ROOT
ATOM      1  N   UNL     1       0.826   9.478  19.071  0.00  0.00    +0.000 N 
ATOM      2  C   UNL     1       1.821   9.153  18.166  0.00  0.00    +0.000 C 
ATOM      3  O   UNL     1       2.187   9.843  17.219  0.00  0.00    +0.000 OA
ATOM      4  H   UNL     1       0.834   8.951  19.940  0.00  0.00    +0.000 HD
ENDROOT
BRANCH   1  10
ATOM      5  C   UNL     1       0.196  11.656  19.912  0.00  0.00    +0.000 A 
ATOM      6  C   UNL     1      -0.666  12.761  19.979  0.00  0.00    +0.000 A 
ATOM      7  C   UNL     1      -1.793  12.825  19.170  0.00  0.00    +0.000 A 
ATOM      8  C   UNL     1      -2.081  11.773  18.312  0.00  0.00    +0.000 A 
ATOM      9  C   UNL     1      -1.245  10.644  18.241  0.00  0.00    +0.000 A 
ATOM     10  C   UNL     1      -0.087  10.571  19.042  0.00  0.00    +0.000 A 
BRANCH   5  12
ATOM     11  C   UNL     1       2.096  12.780  20.773  0.00  0.00    +0.000 C 
ATOM     12  O   UNL     1       1.343  11.568  20.677  0.00  0.00    +0.000 OA
ENDBRANCH   5  12
BRANCH   9  13
ATOM     13  O   UNL     1      -1.643   9.557  17.505  0.00  0.00    +0.000 OA
ATOM     14  C   UNL     1      -2.386   9.873  16.329  0.00  0.00    +0.000 C 
ENDBRANCH   9  13
ENDBRANCH   1  10
BRANCH   2  15
ATOM     15  C   UNL     1       2.510   7.900  18.465  0.00  0.00    +0.000 A 
ATOM     16  C   UNL     1       2.315   7.004  19.496  0.00  0.00    +0.000 A 
ATOM     17  C   UNL     1       3.235   5.948  19.303  0.00  0.00    +0.000 A 
ATOM     18  C   UNL     1       3.945   6.239  18.157  0.00  0.00    +0.000 A 
ATOM     19  O   UNL     1       3.513   7.440  17.650  0.00  0.00    +0.000 OA
BRANCH  18  20
ATOM     20  C   UNL     1       5.030   5.582  17.414  0.00  0.00    +0.000 A 
ATOM     21  C   UNL     1       4.780   5.206  16.077  0.00  0.00    +0.000 A 
ATOM     22  C   UNL     1       5.763   4.594  15.303  0.00  0.00    +0.000 A 
ATOM     23 CL   UNL     1       5.419   4.145  13.677  0.00  0.00    +0.000 Cl
ATOM     24  C   UNL     1       7.022   4.345  15.836  0.00  0.00    +0.000 A 
ATOM     25  C   UNL     1       7.291   4.703  17.156  0.00  0.00    +0.000 A 
ATOM     26  C   UNL     1       6.302   5.313  17.944  0.00  0.00    +0.000 A 
ATOM     27 CL   UNL     1       6.743   5.655  19.581  0.00  0.00    +0.000 Cl
ENDBRANCH  18  20
ENDBRANCH   2  15
TORSDOF 5
ENDMDL
MODEL 5
REMARK VINA RESULT:      -7.3      0.536      2.502
REMARK  Name = 
REMARK  7 active torsions:
REMARK  status: ('A' for Active; 'I' for Inactive)
REMARK    1  A    between atoms: C_1  and  O_2
REMARK    2  A    between atoms: O_2  and  C_3
REMARK    3  A    between atoms: C_7  and  O_8
REMARK    4  A    between atoms: O_8  and  C_9
REMARK    5  A    between atoms: C_10  and  N_11
REMARK    6  A    between atoms: C_12  and  C_14
REMARK    7  A    between atoms: C_17  and  C_18
REMARK                            x       y       z     vdW  Elec       q    Type
REMARK                         _______ _______ _______ _____ _____    ______ ____
ROOT
ATOM      1  N   UNL     1       0.908   8.917  19.307  0.00  0.00    +0.000 N 
ATOM      2  C   UNL     1       1.914   8.745  18.372  0.00  0.00    +0.000 C 
ATOM      3  O   UNL     1       2.449   9.636  17.718  0.00  0.00    +0.000 OA
ATOM      4  H   UNL     1       0.773   8.143  19.952  0.00  0.00    +0.000 HD
ENDROOT
BRANCH   1  10
ATOM      5  C   UNL     1      -0.746  10.546  18.633  0.00  0.00    +0.000 A 
ATOM      6  C   UNL     1      -1.492  11.716  18.837  0.00  0.00    +0.000 A 
ATOM      7  C   UNL     1      -1.372  12.433  20.021  0.00  0.00    +0.000 A 
ATOM      8  C   UNL     1      -0.483  12.000  20.994  0.00  0.00    +0.000 A 
ATOM      9  C   UNL     1       0.292  10.842  20.808  0.00  0.00    +0.000 A 
ATOM     10  C   UNL     1       0.169  10.093  19.619  0.00  0.00    +0.000 A 
BRANCH   5  12
ATOM     11  C   UNL     1      -2.107   9.922  16.796  0.00  0.00    +0.000 C 
ATOM     12  O   UNL     1      -0.860   9.789  17.484  0.00  0.00    +0.000 OA
ENDBRANCH   5  12
BRANCH   9  13
ATOM     13  O   UNL     1       1.272  10.535  21.717  0.00  0.00    +0.000 OA
ATOM     14  C   UNL     1       0.946   9.469  22.608  0.00  0.00    +0.000 C 
ENDBRANCH   9  13
ENDBRANCH   1  10
BRANCH   2  15
ATOM     15  C   UNL     1       2.389   7.369  18.256  0.00  0.00    +0.000 A 
ATOM     16  C   UNL     1       1.803   6.189  18.667  0.00  0.00    +0.000 A 
ATOM     17  C   UNL     1       2.674   5.142  18.290  0.00  0.00    +0.000 A 
ATOM     18  C   UNL     1       3.751   5.726  17.656  0.00  0.00    +0.000 A 
ATOM     19  O   UNL     1       3.586   7.090  17.646  0.00  0.00    +0.000 OA
BRANCH  18  20
ATOM     20  C   UNL     1       4.990   5.226  17.042  0.00  0.00    +0.000 A 
ATOM     21  C   UNL     1       4.941   4.827  15.689  0.00  0.00    +0.000 A 
ATOM     22  C   UNL     1       6.075   4.357  15.033  0.00  0.00    +0.000 A 
ATOM     23 CL   UNL     1       5.976   3.875  13.384  0.00  0.00    +0.000 Cl
ATOM     24  C   UNL     1       7.291   4.277  15.702  0.00  0.00    +0.000 A 
ATOM     25  C   UNL     1       7.362   4.661  17.041  0.00  0.00    +0.000 A 
ATOM     26  C   UNL     1       6.221   5.128  17.710  0.00  0.00    +0.000 A 
ATOM     27 CL   UNL     1       6.430   5.517  19.383  0.00  0.00    +0.000 Cl
ENDBRANCH  18  20
ENDBRANCH   2  15
TORSDOF 5
ENDMDL
MODEL 6
REMARK VINA RESULT:      -7.3      1.325      1.708
REMARK  Name = 
REMARK  7 active torsions:
REMARK  status: ('A' for Active; 'I' for Inactive)
REMARK    1  A    between atoms: C_1  and  O_2
REMARK    2  A    between atoms: O_2  and  C_3
REMARK    3  A    between atoms: C_7  and  O_8
REMARK    4  A    between atoms: O_8  and  C_9
REMARK    5  A    between atoms: C_10  and  N_11
REMARK    6  A    between atoms: C_12  and  C_14
REMARK    7  A    between atoms: C_17  and  C_18
REMARK                            x       y       z     vdW  Elec       q    Type
REMARK                         _______ _______ _______ _____ _____    ______ ____
ROOT
ATOM      1  N   UNL     1       1.608   9.411  19.750  0.00  0.00    +0.000 N 
ATOM      2  C   UNL     1       1.716   8.628  18.614  0.00  0.00    +0.000 C 
ATOM      3  O   UNL     1       1.280   8.910  17.501  0.00  0.00    +0.000 OA
ATOM      4  H   UNL     1       2.248   9.180  20.504  0.00  0.00    +0.000 HD
ENDROOT
BRANCH   1  10
ATOM      5  C   UNL     1      -0.276  10.523  20.780  0.00  0.00    +0.000 A 
ATOM      6  C   UNL     1      -1.089  11.645  20.998  0.00  0.00    +0.000 A 
ATOM      7  C   UNL     1      -0.772  12.869  20.423  0.00  0.00    +0.000 A 
ATOM      8  C   UNL     1       0.342  12.970  19.602  0.00  0.00    +0.000 A 
ATOM      9  C   UNL     1       1.163  11.857  19.350  0.00  0.00    +0.000 A 
ATOM     10  C   UNL     1       0.865  10.611  19.941  0.00  0.00    +0.000 A 
BRANCH   5  12
ATOM     11  C   UNL     1      -0.491   9.283  22.788  0.00  0.00    +0.000 C 
ATOM     12  O   UNL     1      -0.540   9.297  21.359  0.00  0.00    +0.000 OA
ENDBRANCH   5  12
BRANCH   9  13
ATOM     13  O   UNL     1       2.158  11.953  18.411  0.00  0.00    +0.000 OA
ATOM     14  C   UNL     1       2.640  13.277  18.187  0.00  0.00    +0.000 C 
ENDBRANCH   9  13
ENDBRANCH   1  10
BRANCH   2  15
ATOM     15  C   UNL     1       2.495   7.408  18.805  0.00  0.00    +0.000 A 
ATOM     16  C   UNL     1       2.399   6.436  19.781  0.00  0.00    +0.000 A 
ATOM     17  C   UNL     1       3.377   5.459  19.487  0.00  0.00    +0.000 A 
ATOM     18  C   UNL     1       4.021   5.869  18.339  0.00  0.00    +0.000 A 
ATOM     19  O   UNL     1       3.493   7.068  17.927  0.00  0.00    +0.000 OA
BRANCH  18  20
ATOM     20  C   UNL     1       5.116   5.335  17.516  0.00  0.00    +0.000 A 
ATOM     21  C   UNL     1       4.819   4.952  16.191  0.00  0.00    +0.000 A 
ATOM     22  C   UNL     1       5.806   4.451  15.345  0.00  0.00    +0.000 A 
ATOM     23 CL   UNL     1       5.405   3.989  13.737  0.00  0.00    +0.000 Cl
ATOM     24  C   UNL     1       7.116   4.325  15.793  0.00  0.00    +0.000 A 
ATOM     25  C   UNL     1       7.432   4.693  17.100  0.00  0.00    +0.000 A 
ATOM     26  C   UNL     1       6.441   5.190  17.960  0.00  0.00    +0.000 A 
ATOM     27 CL   UNL     1       6.950   5.555  19.572  0.00  0.00    +0.000 Cl
ENDBRANCH  18  20
ENDBRANCH   2  15
TORSDOF 5
ENDMDL
MODEL 7
REMARK VINA RESULT:      -7.3      3.178      8.451
REMARK  Name = 
REMARK  7 active torsions:
REMARK  status: ('A' for Active; 'I' for Inactive)
REMARK    1  A    between atoms: C_1  and  O_2
REMARK    2  A    between atoms: O_2  and  C_3
REMARK    3  A    between atoms: C_7  and  O_8
REMARK    4  A    between atoms: O_8  and  C_9
REMARK    5  A    between atoms: C_10  and  N_11
REMARK    6  A    between atoms: C_12  and  C_14
REMARK    7  A    between atoms: C_17  and  C_18
REMARK                            x       y       z     vdW  Elec       q    Type
REMARK                         _______ _______ _______ _____ _____    ______ ____
ROOT
ATOM      1  N   UNL     1       4.003   5.806  17.747  0.00  0.00    +0.000 N 
ATOM      2  C   UNL     1       4.064   5.742  19.129  0.00  0.00    +0.000 C 
ATOM      3  O   UNL     1       5.024   5.356  19.789  0.00  0.00    +0.000 OA
ATOM      4  H   UNL     1       3.269   6.398  17.368  0.00  0.00    +0.000 HD
ENDROOT
BRANCH   1  10
ATOM      5  C   UNL     1       4.711   4.005  16.297  0.00  0.00    +0.000 A 
ATOM      6  C   UNL     1       5.596   3.427  15.376  0.00  0.00    +0.000 A 
ATOM      7  C   UNL     1       6.689   4.142  14.904  0.00  0.00    +0.000 A 
ATOM      8  C   UNL     1       6.920   5.428  15.372  0.00  0.00    +0.000 A 
ATOM      9  C   UNL     1       6.059   6.024  16.311  0.00  0.00    +0.000 A 
ATOM     10  C   UNL     1       4.935   5.318  16.787  0.00  0.00    +0.000 A 
BRANCH   5  12
ATOM     11  C   UNL     1       3.858   2.373  17.789  0.00  0.00    +0.000 C 
ATOM     12  O   UNL     1       3.596   3.338  16.767  0.00  0.00    +0.000 OA
ENDBRANCH   5  12
BRANCH   9  13
ATOM     13  O   UNL     1       6.404   7.227  16.871  0.00  0.00    +0.000 OA
ATOM     14  C   UNL     1       7.528   7.176  17.748  0.00  0.00    +0.000 C 
ENDBRANCH   9  13
ENDBRANCH   1  10
BRANCH   2  15
ATOM     15  C   UNL     1       2.879   6.266  19.801  0.00  0.00    +0.000 A 
ATOM     16  C   UNL     1       1.981   5.637  20.639  0.00  0.00    +0.000 A 
ATOM     17  C   UNL     1       1.032   6.608  21.031  0.00  0.00    +0.000 A 
ATOM     18  C   UNL     1       1.396   7.792  20.424  0.00  0.00    +0.000 A 
ATOM     19  O   UNL     1       2.518   7.583  19.659  0.00  0.00    +0.000 OA
BRANCH  18  20
ATOM     20  C   UNL     1       0.851   9.157  20.401  0.00  0.00    +0.000 A 
ATOM     21  C   UNL     1       0.205   9.629  21.563  0.00  0.00    +0.000 A 
ATOM     22  C   UNL     1      -0.324  10.916  21.624  0.00  0.00    +0.000 A 
ATOM     23 CL   UNL     1      -1.110  11.454  23.057  0.00  0.00    +0.000 Cl
ATOM     24  C   UNL     1      -0.218  11.770  20.533  0.00  0.00    +0.000 A 
ATOM     25  C   UNL     1       0.412  11.325  19.372  0.00  0.00    +0.000 A 
ATOM     26  C   UNL     1       0.940  10.026  19.301  0.00  0.00    +0.000 A 
ATOM     27 CL   UNL     1       1.644   9.577  17.786  0.00  0.00    +0.000 Cl
ENDBRANCH  18  20
ENDBRANCH   2  15
TORSDOF 5
ENDMDL
MODEL 8
REMARK VINA RESULT:      -7.3      3.408      8.738
REMARK  Name = 
REMARK  7 active torsions:
REMARK  status: ('A' for Active; 'I' for Inactive)
REMARK    1  A    between atoms: C_1  and  O_2
REMARK    2  A    between atoms: O_2  and  C_3
REMARK    3  A    between atoms: C_7  and  O_8
REMARK    4  A    between atoms: O_8  and  C_9
REMARK    5  A    between atoms: C_10  and  N_11
REMARK    6  A    between atoms: C_12  and  C_14
REMARK    7  A    between atoms: C_17  and  C_18
REMARK                            x       y       z     vdW  Elec       q    Type
REMARK                         _______ _______ _______ _____ _____    ______ ____
ROOT
ATOM      1  N   UNL     1       3.631   6.409  18.168  0.00  0.00    +0.000 N 
ATOM      2  C   UNL     1       2.943   7.593  17.958  0.00  0.00    +0.000 C 
ATOM      3  O   UNL     1       2.937   8.246  16.919  0.00  0.00    +0.000 OA
ATOM      4  H   UNL     1       3.318   5.856  18.961  0.00  0.00    +0.000 HD
ENDROOT
BRANCH   1  10
ATOM      5  C   UNL     1       4.260   4.452  16.896  0.00  0.00    +0.000 A 
ATOM      6  C   UNL     1       5.152   3.726  16.093  0.00  0.00    +0.000 A 
ATOM      7  C   UNL     1       6.349   4.294  15.678  0.00  0.00    +0.000 A 
ATOM      8  C   UNL     1       6.676   5.578  16.088  0.00  0.00    +0.000 A 
ATOM      9  C   UNL     1       5.810   6.321  16.910  0.00  0.00    +0.000 A 
ATOM     10  C   UNL     1       4.581   5.766  17.325  0.00  0.00    +0.000 A 
BRANCH   5  12
ATOM     11  C   UNL     1       3.132   2.733  18.074  0.00  0.00    +0.000 C 
ATOM     12  O   UNL     1       3.046   3.934  17.304  0.00  0.00    +0.000 OA
ENDBRANCH   5  12
BRANCH   9  13
ATOM     13  O   UNL     1       6.233   7.519  17.426  0.00  0.00    +0.000 OA
ATOM     14  C   UNL     1       7.640   7.609  17.647  0.00  0.00    +0.000 C 
ENDBRANCH   9  13
ENDBRANCH   1  10
BRANCH   2  15
ATOM     15  C   UNL     1       2.111   8.004  19.085  0.00  0.00    +0.000 A 
ATOM     16  C   UNL     1       1.980   7.450  20.342  0.00  0.00    +0.000 A 
ATOM     17  C   UNL     1       1.059   8.252  21.053  0.00  0.00    +0.000 A 
ATOM     18  C   UNL     1       0.674   9.269  20.204  0.00  0.00    +0.000 A 
ATOM     19  O   UNL     1       1.306   9.111  18.994  0.00  0.00    +0.000 OA
BRANCH  18  20
ATOM     20  C   UNL     1      -0.242  10.414  20.304  0.00  0.00    +0.000 A 
ATOM     21  C   UNL     1      -0.272  11.131  21.519  0.00  0.00    +0.000 A 
ATOM     22  C   UNL     1      -1.102  12.236  21.686  0.00  0.00    +0.000 A 
ATOM     23 CL   UNL     1      -1.115  13.082  23.184  0.00  0.00    +0.000 Cl
ATOM     24  C   UNL     1      -1.921  12.662  20.647  0.00  0.00    +0.000 A 
ATOM     25  C   UNL     1      -1.913  11.966  19.438  0.00  0.00    +0.000 A 
ATOM     26  C   UNL     1      -1.084  10.847  19.267  0.00  0.00    +0.000 A 
ATOM     27 CL   UNL     1      -1.210  10.038  17.742  0.00  0.00    +0.000 Cl
ENDBRANCH  18  20
ENDBRANCH   2  15
TORSDOF 5
ENDMDL
MODEL 9
REMARK VINA RESULT:      -7.3      3.309      8.598
REMARK  Name = 
REMARK  7 active torsions:
REMARK  status: ('A' for Active; 'I' for Inactive)
REMARK    1  A    between atoms: C_1  and  O_2
REMARK    2  A    between atoms: O_2  and  C_3
REMARK    3  A    between atoms: C_7  and  O_8
REMARK    4  A    between atoms: O_8  and  C_9
REMARK    5  A    between atoms: C_10  and  N_11
REMARK    6  A    between atoms: C_12  and  C_14
REMARK    7  A    between atoms: C_17  and  C_18
REMARK                            x       y       z     vdW  Elec       q    Type
REMARK                         _______ _______ _______ _____ _____    ______ ____
ROOT
ATOM      1  N   UNL     1       3.706   6.979  17.486  0.00  0.00    +0.000 N 
ATOM      2  C   UNL     1       2.987   7.114  18.662  0.00  0.00    +0.000 C 
ATOM      3  O   UNL     1       3.095   6.404  19.657  0.00  0.00    +0.000 OA
ATOM      4  H   UNL     1       3.708   7.792  16.878  0.00  0.00    +0.000 HD
ENDROOT
BRANCH   1  10
ATOM      5  C   UNL     1       5.941   6.312  16.851  0.00  0.00    +0.000 A 
ATOM      6  C   UNL     1       6.881   5.360  16.429  0.00  0.00    +0.000 A 
ATOM      7  C   UNL     1       6.517   4.028  16.277  0.00  0.00    +0.000 A 
ATOM      8  C   UNL     1       5.204   3.646  16.516  0.00  0.00    +0.000 A 
ATOM      9  C   UNL     1       4.237   4.583  16.921  0.00  0.00    +0.000 A 
ATOM     10  C   UNL     1       4.595   5.936  17.097  0.00  0.00    +0.000 A 
BRANCH   5  12
ATOM     11  C   UNL     1       7.609   7.867  17.494  0.00  0.00    +0.000 C 
ATOM     12  O   UNL     1       6.271   7.639  17.043  0.00  0.00    +0.000 OA
ENDBRANCH   5  12
BRANCH   9  13
ATOM     13  O   UNL     1       2.921   4.204  16.993  0.00  0.00    +0.000 OA
ATOM     14  C   UNL     1       2.613   3.326  18.074  0.00  0.00    +0.000 C 
ENDBRANCH   9  13
ENDBRANCH   1  10
BRANCH   2  15
ATOM     15  C   UNL     1       2.095   8.270  18.682  0.00  0.00    +0.000 A 
ATOM     16  C   UNL     1       1.561   8.999  17.639  0.00  0.00    +0.000 A 
ATOM     17  C   UNL     1       0.744  10.001  18.211  0.00  0.00    +0.000 A 
ATOM     18  C   UNL     1       0.806   9.835  19.579  0.00  0.00    +0.000 A 
ATOM     19  O   UNL     1       1.643   8.785  19.871  0.00  0.00    +0.000 OA
BRANCH  18  20
ATOM     20  C   UNL     1       0.216  10.524  20.736  0.00  0.00    +0.000 A 
ATOM     21  C   UNL     1       0.309  11.931  20.783  0.00  0.00    +0.000 A 
ATOM     22  C   UNL     1      -0.238  12.657  21.838  0.00  0.00    +0.000 A 
ATOM     23 CL   UNL     1      -0.099  14.372  21.863  0.00  0.00    +0.000 Cl
ATOM     24  C   UNL     1      -0.899  12.003  22.871  0.00  0.00    +0.000 A 
ATOM     25  C   UNL     1      -1.000  10.613  22.848  0.00  0.00    +0.000 A 
ATOM     26  C   UNL     1      -0.444   9.875  21.792  0.00  0.00    +0.000 A 
ATOM     27 CL   UNL     1      -0.586   8.155  21.913  0.00  0.00    +0.000 Cl
ENDBRANCH  18  20
ENDBRANCH   2  15
TORSDOF 5
ENDMDL
