MODEL 1
REMARK VINA RESULT:      -8.0      0.000      0.000
REMARK  Name = 
REMARK  3 active torsions:
REMARK  status: ('A' for Active; 'I' for Inactive)
REMARK    1  A    between atoms: C_2  and  C_10
REMARK    2  A    between atoms: N_3  and  C_4
REMARK    3  A    between atoms: C_13  and  C_14
REMARK                            x       y       z     vdW  Elec       q    Type
REMARK                         _______ _______ _______ _____ _____    ______ ____
ROOT
ATOM      1  C   UNL     1       2.554   7.468  18.858  0.00  0.00    +0.000 A 
ATOM      2  C   UNL     1       2.280   8.319  17.798  0.00  0.00    +0.000 A 
ATOM      3  C   UNL     1       1.398   9.382  18.002  0.00  0.00    +0.000 A 
ATOM      4  C   UNL     1       0.791   9.585  19.251  0.00  0.00    +0.000 A 
ATOM      5  C   UNL     1       1.126   8.646  20.239  0.00  0.00    +0.000 A 
ATOM      6  N   UNL     1       1.987   7.600  20.084  0.00  0.00    +0.000 NA
ENDROOT
BRANCH   4   7
ATOM      7  C   UNL     1      -0.126  10.728  19.497  0.00  0.00    +0.000 A 
ATOM      8  C   UNL     1       0.245  11.798  20.342  0.00  0.00    +0.000 A 
ATOM      9  C   UNL     1      -0.624  12.867  20.604  0.00  0.00    +0.000 A 
ATOM     10  C   UNL     1      -1.880  12.891  20.013  0.00  0.00    +0.000 A 
ATOM     11  F   UNL     1      -2.705  13.917  20.264  0.00  0.00    +0.000 F 
ATOM     12  C   UNL     1      -2.275  11.864  19.174  0.00  0.00    +0.000 A 
ATOM     13  F   UNL     1      -3.488  11.889  18.606  0.00  0.00    +0.000 F 
ATOM     14  C   UNL     1      -1.412  10.796  18.926  0.00  0.00    +0.000 A 
ATOM     15  F   UNL     1      -1.852   9.806  18.133  0.00  0.00    +0.000 F 
ENDBRANCH   4   7
BRANCH   1  17
ATOM     16  O   UNL     1       3.552   5.390  19.429  0.00  0.00    +0.000 OA
ATOM     17  C   UNL     1       3.532   6.350  18.662  0.00  0.00    +0.000 C 
ATOM     18  N   UNL     1       4.379   6.476  17.579  0.00  0.00    +0.000 N 
ATOM     19  H   UNL     1       4.184   7.249  16.947  0.00  0.00    +0.000 HD
BRANCH  18  20
ATOM     20  C   UNL     1       5.306   5.419  17.197  0.00  0.00    +0.000 C 
ATOM     21  C   UNL     1       6.630   5.552  17.949  0.00  0.00    +0.000 C 
ATOM     22  C   UNL     1       7.634   4.524  17.449  0.00  0.00    +0.000 C 
ATOM     23  O   UNL     1       7.813   4.638  16.038  0.00  0.00    +0.000 OA
ATOM     24  C   UNL     1       6.605   4.377  15.323  0.00  0.00    +0.000 C 
ATOM     25  C   UNL     1       5.537   5.400  15.683  0.00  0.00    +0.000 C 
ENDBRANCH  18  20
ENDBRANCH   1  17
TORSDOF 3
ENDMDL
MODEL 2
REMARK VINA RESULT:      -7.8      1.985      2.064
REMARK  Name = 
REMARK  3 active torsions:
REMARK  status: ('A' for Active; 'I' for Inactive)
REMARK    1  A    between atoms: C_2  and  C_10
REMARK    2  A    between atoms: N_3  and  C_4
REMARK    3  A    between atoms: C_13  and  C_14
REMARK                            x       y       z     vdW  Elec       q    Type
REMARK                         _______ _______ _______ _____ _____    ______ ____
ROOT
ATOM      1  C   UNL     1       2.367   7.267  18.831  0.00  0.00    +0.000 A 
ATOM      2  C   UNL     1       2.009   8.408  18.129  0.00  0.00    +0.000 A 
ATOM      3  C   UNL     1       1.369   9.443  18.814  0.00  0.00    +0.000 A 
ATOM      4  C   UNL     1       1.086   9.333  20.185  0.00  0.00    +0.000 A 
ATOM      5  C   UNL     1       1.475   8.124  20.781  0.00  0.00    +0.000 A 
ATOM      6  N   UNL     1       2.106   7.093  20.151  0.00  0.00    +0.000 NA
ENDROOT
BRANCH   4   7
ATOM      7  C   UNL     1       0.434  10.437  20.938  0.00  0.00    +0.000 A 
ATOM      8  C   UNL     1       0.752  11.789  20.681  0.00  0.00    +0.000 A 
ATOM      9  C   UNL     1       0.166  12.836  21.405  0.00  0.00    +0.000 A 
ATOM     10  C   UNL     1      -0.764  12.548  22.396  0.00  0.00    +0.000 A 
ATOM     11  F   UNL     1      -1.324  13.553  23.084  0.00  0.00    +0.000 F 
ATOM     12  C   UNL     1      -1.104  11.236  22.671  0.00  0.00    +0.000 A 
ATOM     13  F   UNL     1      -2.001  10.960  23.629  0.00  0.00    +0.000 F 
ATOM     14  C   UNL     1      -0.509  10.196  21.956  0.00  0.00    +0.000 A 
ATOM     15  F   UNL     1      -0.846   8.938  22.281  0.00  0.00    +0.000 F 
ENDBRANCH   4   7
BRANCH   1  17
ATOM     16  O   UNL     1       2.504   5.147  17.770  0.00  0.00    +0.000 OA
ATOM     17  C   UNL     1       3.093   6.168  18.116  0.00  0.00    +0.000 C 
ATOM     18  N   UNL     1       4.434   6.391  17.877  0.00  0.00    +0.000 N 
ATOM     19  H   UNL     1       4.779   7.322  18.097  0.00  0.00    +0.000 HD
BRANCH  18  20
ATOM     20  C   UNL     1       5.243   5.464  17.096  0.00  0.00    +0.000 C 
ATOM     21  C   UNL     1       6.639   5.312  17.699  0.00  0.00    +0.000 C 
ATOM     22  C   UNL     1       7.515   4.446  16.806  0.00  0.00    +0.000 C 
ATOM     23  O   UNL     1       7.566   4.975  15.482  0.00  0.00    +0.000 OA
ATOM     24  C   UNL     1       6.280   4.990  14.863  0.00  0.00    +0.000 C 
ATOM     25  C   UNL     1       5.327   5.896  15.629  0.00  0.00    +0.000 C 
ENDBRANCH  18  20
ENDBRANCH   1  17
TORSDOF 3
ENDMDL
MODEL 3
REMARK VINA RESULT:      -7.7      0.595      1.004
REMARK  Name = 
REMARK  3 active torsions:
REMARK  status: ('A' for Active; 'I' for Inactive)
REMARK    1  A    between atoms: C_2  and  C_10
REMARK    2  A    between atoms: N_3  and  C_4
REMARK    3  A    between atoms: C_13  and  C_14
REMARK                            x       y       z     vdW  Elec       q    Type
REMARK                         _______ _______ _______ _____ _____    ______ ____
ROOT
ATOM      1  C   UNL     1       2.471   7.552  18.962  0.00  0.00    +0.000 A 
ATOM      2  C   UNL     1       1.900   7.670  20.220  0.00  0.00    +0.000 A 
ATOM      3  C   UNL     1       1.009   8.718  20.456  0.00  0.00    +0.000 A 
ATOM      4  C   UNL     1       0.698   9.642  19.445  0.00  0.00    +0.000 A 
ATOM      5  C   UNL     1       1.354   9.433  18.223  0.00  0.00    +0.000 A 
ATOM      6  N   UNL     1       2.225   8.421  17.948  0.00  0.00    +0.000 NA
ENDROOT
BRANCH   4   7
ATOM      7  C   UNL     1      -0.272  10.746  19.667  0.00  0.00    +0.000 A 
ATOM      8  C   UNL     1      -0.035  11.748  20.634  0.00  0.00    +0.000 A 
ATOM      9  C   UNL     1      -0.957  12.777  20.872  0.00  0.00    +0.000 A 
ATOM     10  C   UNL     1      -2.132  12.829  20.134  0.00  0.00    +0.000 A 
ATOM     11  F   UNL     1      -3.008  13.817  20.363  0.00  0.00    +0.000 F 
ATOM     12  C   UNL     1      -2.395  11.869  19.174  0.00  0.00    +0.000 A 
ATOM     13  F   UNL     1      -3.530  11.921  18.464  0.00  0.00    +0.000 F 
ATOM     14  C   UNL     1      -1.480  10.839  18.948  0.00  0.00    +0.000 A 
ATOM     15  F   UNL     1      -1.794   9.911  18.031  0.00  0.00    +0.000 F 
ENDBRANCH   4   7
BRANCH   1  17
ATOM     16  O   UNL     1       3.318   5.364  19.330  0.00  0.00    +0.000 OA
ATOM     17  C   UNL     1       3.396   6.405  18.684  0.00  0.00    +0.000 C 
ATOM     18  N   UNL     1       4.310   6.605  17.669  0.00  0.00    +0.000 N 
ATOM     19  H   UNL     1       4.195   7.457  17.125  0.00  0.00    +0.000 HD
BRANCH  18  20
ATOM     20  C   UNL     1       5.198   5.545  17.211  0.00  0.00    +0.000 C 
ATOM     21  C   UNL     1       6.530   5.584  17.959  0.00  0.00    +0.000 C 
ATOM     22  C   UNL     1       7.496   4.558  17.384  0.00  0.00    +0.000 C 
ATOM     23  O   UNL     1       7.669   4.757  15.982  0.00  0.00    +0.000 OA
ATOM     24  C   UNL     1       6.448   4.584  15.262  0.00  0.00    +0.000 C 
ATOM     25  C   UNL     1       5.419   5.617  15.697  0.00  0.00    +0.000 C 
ENDBRANCH  18  20
ENDBRANCH   1  17
TORSDOF 3
ENDMDL
MODEL 4
REMARK VINA RESULT:      -7.7      1.180      1.734
REMARK  Name = 
REMARK  3 active torsions:
REMARK  status: ('A' for Active; 'I' for Inactive)
REMARK    1  A    between atoms: C_2  and  C_10
REMARK    2  A    between atoms: N_3  and  C_4
REMARK    3  A    between atoms: C_13  and  C_14
REMARK                            x       y       z     vdW  Elec       q    Type
REMARK                         _______ _______ _______ _____ _____    ______ ____
ROOT
ATOM      1  C   UNL     1       2.509   7.481  18.826  0.00  0.00    +0.000 A 
ATOM      2  C   UNL     1       2.239   8.352  17.781  0.00  0.00    +0.000 A 
ATOM      3  C   UNL     1       1.403   9.444  18.018  0.00  0.00    +0.000 A 
ATOM      4  C   UNL     1       0.839   9.659  19.285  0.00  0.00    +0.000 A 
ATOM      5  C   UNL     1       1.166   8.699  20.256  0.00  0.00    +0.000 A 
ATOM      6  N   UNL     1       1.982   7.623  20.068  0.00  0.00    +0.000 NA
ENDROOT
BRANCH   4   7
ATOM      7  C   UNL     1      -0.028  10.833  19.566  0.00  0.00    +0.000 A 
ATOM      8  C   UNL     1      -1.376  10.867  19.146  0.00  0.00    +0.000 A 
ATOM      9  C   UNL     1      -2.194  11.982  19.379  0.00  0.00    +0.000 A 
ATOM     10  C   UNL     1      -1.679  13.082  20.053  0.00  0.00    +0.000 A 
ATOM     11  F   UNL     1      -2.466  14.143  20.277  0.00  0.00    +0.000 F 
ATOM     12  C   UNL     1      -0.365  13.081  20.485  0.00  0.00    +0.000 A 
ATOM     13  F   UNL     1       0.131  14.144  21.134  0.00  0.00    +0.000 F 
ATOM     14  C   UNL     1       0.450  11.974  20.240  0.00  0.00    +0.000 A 
ATOM     15  F   UNL     1       1.727  12.033  20.649  0.00  0.00    +0.000 F 
ENDBRANCH   4   7
BRANCH   1  17
ATOM     16  O   UNL     1       3.323   5.288  19.236  0.00  0.00    +0.000 OA
ATOM     17  C   UNL     1       3.439   6.329  18.594  0.00  0.00    +0.000 C 
ATOM     18  N   UNL     1       4.404   6.522  17.625  0.00  0.00    +0.000 N 
ATOM     19  H   UNL     1       4.322   7.374  17.077  0.00  0.00    +0.000 HD
BRANCH  18  20
ATOM     20  C   UNL     1       5.307   5.456  17.212  0.00  0.00    +0.000 C 
ATOM     21  C   UNL     1       6.633   5.537  17.966  0.00  0.00    +0.000 C 
ATOM     22  C   UNL     1       7.614   4.501  17.435  0.00  0.00    +0.000 C 
ATOM     23  O   UNL     1       7.794   4.652  16.028  0.00  0.00    +0.000 OA
ATOM     24  C   UNL     1       6.581   4.439  15.307  0.00  0.00    +0.000 C 
ATOM     25  C   UNL     1       5.537   5.475  15.698  0.00  0.00    +0.000 C 
ENDBRANCH  18  20
ENDBRANCH   1  17
TORSDOF 3
ENDMDL
MODEL 5
REMARK VINA RESULT:      -7.7      4.370      9.080
REMARK  Name = 
REMARK  3 active torsions:
REMARK  status: ('A' for Active; 'I' for Inactive)
REMARK    1  A    between atoms: C_2  and  C_10
REMARK    2  A    between atoms: N_3  and  C_4
REMARK    3  A    between atoms: C_13  and  C_14
REMARK                            x       y       z     vdW  Elec       q    Type
REMARK                         _______ _______ _______ _____ _____    ______ ____
ROOT
ATOM      1  C   UNL     1       0.795   9.701  19.397  0.00  0.00    +0.000 A 
ATOM      2  C   UNL     1       1.172   9.716  18.063  0.00  0.00    +0.000 A 
ATOM      3  C   UNL     1       1.987   8.689  17.585  0.00  0.00    +0.000 A 
ATOM      4  C   UNL     1       2.426   7.661  18.436  0.00  0.00    +0.000 A 
ATOM      5  C   UNL     1       1.999   7.765  19.768  0.00  0.00    +0.000 A 
ATOM      6  N   UNL     1       1.199   8.746  20.274  0.00  0.00    +0.000 NA
ENDROOT
BRANCH   4   7
ATOM      7  C   UNL     1       3.268   6.542  17.939  0.00  0.00    +0.000 A 
ATOM      8  C   UNL     1       4.600   6.756  17.519  0.00  0.00    +0.000 A 
ATOM      9  C   UNL     1       5.393   5.712  17.022  0.00  0.00    +0.000 A 
ATOM     10  C   UNL     1       4.871   4.428  16.947  0.00  0.00    +0.000 A 
ATOM     11  F   UNL     1       5.635   3.434  16.474  0.00  0.00    +0.000 F 
ATOM     12  C   UNL     1       3.572   4.180  17.356  0.00  0.00    +0.000 A 
ATOM     13  F   UNL     1       3.070   2.940  17.281  0.00  0.00    +0.000 F 
ATOM     14  C   UNL     1       2.782   5.223  17.839  0.00  0.00    +0.000 A 
ATOM     15  F   UNL     1       1.518   4.941  18.191  0.00  0.00    +0.000 F 
ENDBRANCH   4   7
BRANCH   1  17
ATOM     16  O   UNL     1      -1.281  10.848  19.529  0.00  0.00    +0.000 OA
ATOM     17  C   UNL     1      -0.115  10.775  19.911  0.00  0.00    +0.000 C 
ATOM     18  N   UNL     1       0.442  11.646  20.826  0.00  0.00    +0.000 N 
ATOM     19  H   UNL     1       1.374  11.410  21.158  0.00  0.00    +0.000 HD
BRANCH  18  20
ATOM     20  C   UNL     1      -0.348  12.670  21.496  0.00  0.00    +0.000 C 
ATOM     21  C   UNL     1       0.489  13.920  21.764  0.00  0.00    +0.000 C 
ATOM     22  C   UNL     1      -0.306  14.931  22.577  0.00  0.00    +0.000 C 
ATOM     23  O   UNL     1      -0.782  14.343  23.787  0.00  0.00    +0.000 OA
ATOM     24  C   UNL     1      -1.677  13.259  23.539  0.00  0.00    +0.000 C 
ATOM     25  C   UNL     1      -0.967  12.139  22.792  0.00  0.00    +0.000 C 
ENDBRANCH  18  20
ENDBRANCH   1  17
TORSDOF 3
ENDMDL
MODEL 6
REMARK VINA RESULT:      -7.5      4.750      9.269
REMARK  Name = 
REMARK  3 active torsions:
REMARK  status: ('A' for Active; 'I' for Inactive)
REMARK    1  A    between atoms: C_2  and  C_10
REMARK    2  A    between atoms: N_3  and  C_4
REMARK    3  A    between atoms: C_13  and  C_14
REMARK                            x       y       z     vdW  Elec       q    Type
REMARK                         _______ _______ _______ _____ _____    ______ ____
ROOT
ATOM      1  C   UNL     1       1.371   9.423  19.425  0.00  0.00    +0.000 A 
ATOM      2  C   UNL     1       1.808   9.135  18.141  0.00  0.00    +0.000 A 
ATOM      3  C   UNL     1       2.239   7.839  17.854  0.00  0.00    +0.000 A 
ATOM      4  C   UNL     1       2.239   6.843  18.844  0.00  0.00    +0.000 A 
ATOM      5  C   UNL     1       1.798   7.259  20.109  0.00  0.00    +0.000 A 
ATOM      6  N   UNL     1       1.363   8.510  20.430  0.00  0.00    +0.000 NA
ENDROOT
BRANCH   4   7
ATOM      7  C   UNL     1       2.664   5.450  18.550  0.00  0.00    +0.000 A 
ATOM      8  C   UNL     1       1.867   4.591  17.760  0.00  0.00    +0.000 A 
ATOM      9  C   UNL     1       2.245   3.266  17.501  0.00  0.00    +0.000 A 
ATOM     10  C   UNL     1       3.437   2.778  18.018  0.00  0.00    +0.000 A 
ATOM     11  F   UNL     1       3.794   1.511  17.764  0.00  0.00    +0.000 F 
ATOM     12  C   UNL     1       4.246   3.592  18.790  0.00  0.00    +0.000 A 
ATOM     13  F   UNL     1       5.396   3.119  19.290  0.00  0.00    +0.000 F 
ATOM     14  C   UNL     1       3.861   4.907  19.056  0.00  0.00    +0.000 A 
ATOM     15  F   UNL     1       4.661   5.649  19.838  0.00  0.00    +0.000 F 
ENDBRANCH   4   7
BRANCH   1  17
ATOM     16  O   UNL     1       1.193  11.759  19.041  0.00  0.00    +0.000 OA
ATOM     17  C   UNL     1       0.866  10.800  19.734  0.00  0.00    +0.000 C 
ATOM     18  N   UNL     1       0.023  10.899  20.823  0.00  0.00    +0.000 N 
ATOM     19  H   UNL     1      -0.273  10.020  21.240  0.00  0.00    +0.000 HD
BRANCH  18  20
ATOM     20  C   UNL     1      -0.635  12.149  21.178  0.00  0.00    +0.000 C 
ATOM     21  C   UNL     1      -0.949  12.199  22.673  0.00  0.00    +0.000 C 
ATOM     22  C   UNL     1      -1.749  13.448  23.010  0.00  0.00    +0.000 C 
ATOM     23  O   UNL     1      -2.933  13.518  22.217  0.00  0.00    +0.000 OA
ATOM     24  C   UNL     1      -2.639  13.612  20.823  0.00  0.00    +0.000 C 
ATOM     25  C   UNL     1      -1.901  12.370  20.346  0.00  0.00    +0.000 C 
ENDBRANCH  18  20
ENDBRANCH   1  17
TORSDOF 3
ENDMDL
MODEL 7
REMARK VINA RESULT:      -7.4      4.387      9.144
REMARK  Name = 
REMARK  3 active torsions:
REMARK  status: ('A' for Active; 'I' for Inactive)
REMARK    1  A    between atoms: C_2  and  C_10
REMARK    2  A    between atoms: N_3  and  C_4
REMARK    3  A    between atoms: C_13  and  C_14
REMARK                            x       y       z     vdW  Elec       q    Type
REMARK                         _______ _______ _______ _____ _____    ______ ____
ROOT
ATOM      1  C   UNL     1       1.408   9.180  19.626  0.00  0.00    +0.000 A 
ATOM      2  C   UNL     1       1.759   8.896  18.315  0.00  0.00    +0.000 A 
ATOM      3  C   UNL     1       2.175   7.602  17.999  0.00  0.00    +0.000 A 
ATOM      4  C   UNL     1       2.244   6.605  18.985  0.00  0.00    +0.000 A 
ATOM      5  C   UNL     1       1.886   7.017  20.278  0.00  0.00    +0.000 A 
ATOM      6  N   UNL     1       1.470   8.267  20.628  0.00  0.00    +0.000 NA
ENDROOT
BRANCH   4   7
ATOM      7  C   UNL     1       2.654   5.213  18.662  0.00  0.00    +0.000 A 
ATOM      8  C   UNL     1       3.788   4.949  17.862  0.00  0.00    +0.000 A 
ATOM      9  C   UNL     1       4.166   3.641  17.527  0.00  0.00    +0.000 A 
ATOM     10  C   UNL     1       3.421   2.569  17.999  0.00  0.00    +0.000 A 
ATOM     11  F   UNL     1       3.789   1.321  17.679  0.00  0.00    +0.000 F 
ATOM     12  C   UNL     1       2.307   2.790  18.790  0.00  0.00    +0.000 A 
ATOM     13  F   UNL     1       1.589   1.753  19.244  0.00  0.00    +0.000 F 
ATOM     14  C   UNL     1       1.927   4.093  19.112  0.00  0.00    +0.000 A 
ATOM     15  F   UNL     1       0.821   4.259  19.854  0.00  0.00    +0.000 F 
ENDBRANCH   4   7
BRANCH   1  17
ATOM     16  O   UNL     1       1.370  11.544  19.398  0.00  0.00    +0.000 OA
ATOM     17  C   UNL     1       0.919  10.555  19.970  0.00  0.00    +0.000 C 
ATOM     18  N   UNL     1      -0.055  10.619  20.946  0.00  0.00    +0.000 N 
ATOM     19  H   UNL     1      -0.437   9.728  21.256  0.00  0.00    +0.000 HD
BRANCH  18  20
ATOM     20  C   UNL     1      -0.706  11.872  21.307  0.00  0.00    +0.000 C 
ATOM     21  C   UNL     1      -1.072  11.892  22.790  0.00  0.00    +0.000 C 
ATOM     22  C   UNL     1      -1.864  13.147  23.127  0.00  0.00    +0.000 C 
ATOM     23  O   UNL     1      -3.018  13.254  22.295  0.00  0.00    +0.000 OA
ATOM     24  C   UNL     1      -2.673  13.375  20.915  0.00  0.00    +0.000 C 
ATOM     25  C   UNL     1      -1.938  12.131  20.436  0.00  0.00    +0.000 C 
ENDBRANCH  18  20
ENDBRANCH   1  17
TORSDOF 3
ENDMDL
MODEL 8
REMARK VINA RESULT:      -7.4      1.544      1.903
REMARK  Name = 
REMARK  3 active torsions:
REMARK  status: ('A' for Active; 'I' for Inactive)
REMARK    1  A    between atoms: C_2  and  C_10
REMARK    2  A    between atoms: N_3  and  C_4
REMARK    3  A    between atoms: C_13  and  C_14
REMARK                            x       y       z     vdW  Elec       q    Type
REMARK                         _______ _______ _______ _____ _____    ______ ____
ROOT
ATOM      1  C   UNL     1       2.439   7.267  19.225  0.00  0.00    +0.000 A 
ATOM      2  C   UNL     1       2.174   8.283  18.320  0.00  0.00    +0.000 A 
ATOM      3  C   UNL     1       1.313   9.313  18.701  0.00  0.00    +0.000 A 
ATOM      4  C   UNL     1       0.718   9.322  19.973  0.00  0.00    +0.000 A 
ATOM      5  C   UNL     1       1.043   8.230  20.792  0.00  0.00    +0.000 A 
ATOM      6  N   UNL     1       1.883   7.209  20.462  0.00  0.00    +0.000 NA
ENDROOT
BRANCH   4   7
ATOM      7  C   UNL     1      -0.176  10.426  20.409  0.00  0.00    +0.000 A 
ATOM      8  C   UNL     1      -0.946  11.159  19.478  0.00  0.00    +0.000 A 
ATOM      9  C   UNL     1      -1.770  12.220  19.875  0.00  0.00    +0.000 A 
ATOM     10  C   UNL     1      -1.850  12.562  21.219  0.00  0.00    +0.000 A 
ATOM     11  F   UNL     1      -2.643  13.575  21.594  0.00  0.00    +0.000 F 
ATOM     12  C   UNL     1      -1.117  11.861  22.160  0.00  0.00    +0.000 A 
ATOM     13  F   UNL     1      -1.195  12.193  23.457  0.00  0.00    +0.000 F 
ATOM     14  C   UNL     1      -0.288  10.812  21.759  0.00  0.00    +0.000 A 
ATOM     15  F   UNL     1       0.430  10.185  22.703  0.00  0.00    +0.000 F 
ENDBRANCH   4   7
BRANCH   1  17
ATOM     16  O   UNL     1       3.377   5.093  19.417  0.00  0.00    +0.000 OA
ATOM     17  C   UNL     1       3.396   6.179  18.842  0.00  0.00    +0.000 C 
ATOM     18  N   UNL     1       4.270   6.482  17.816  0.00  0.00    +0.000 N 
ATOM     19  H   UNL     1       4.107   7.363  17.336  0.00  0.00    +0.000 HD
BRANCH  18  20
ATOM     20  C   UNL     1       5.181   5.490  17.261  0.00  0.00    +0.000 C 
ATOM     21  C   UNL     1       6.522   5.506  17.992  0.00  0.00    +0.000 C 
ATOM     22  C   UNL     1       7.507   4.560  17.322  0.00  0.00    +0.000 C 
ATOM     23  O   UNL     1       7.654   4.880  15.939  0.00  0.00    +0.000 OA
ATOM     24  C   UNL     1       6.428   4.731  15.223  0.00  0.00    +0.000 C 
ATOM     25  C   UNL     1       5.376   5.693  15.756  0.00  0.00    +0.000 C 
ENDBRANCH  18  20
ENDBRANCH   1  17
TORSDOF 3
ENDMDL
MODEL 9
REMARK VINA RESULT:      -7.4      4.302      9.232
REMARK  Name = 
REMARK  3 active torsions:
REMARK  status: ('A' for Active; 'I' for Inactive)
REMARK    1  A    between atoms: C_2  and  C_10
REMARK    2  A    between atoms: N_3  and  C_4
REMARK    3  A    between atoms: C_13  and  C_14
REMARK                            x       y       z     vdW  Elec       q    Type
REMARK                         _______ _______ _______ _____ _____    ______ ____
ROOT
ATOM      1  C   UNL     1       1.144   9.656  19.970  0.00  0.00    +0.000 A 
ATOM      2  C   UNL     1       1.386   8.498  20.694  0.00  0.00    +0.000 A 
ATOM      3  C   UNL     1       2.032   7.435  20.061  0.00  0.00    +0.000 A 
ATOM      4  C   UNL     1       2.425   7.527  18.717  0.00  0.00    +0.000 A 
ATOM      5  C   UNL     1       2.106   8.738  18.082  0.00  0.00    +0.000 A 
ATOM      6  N   UNL     1       1.484   9.802  18.664  0.00  0.00    +0.000 NA
ENDROOT
BRANCH   4   7
ATOM      7  C   UNL     1       3.142   6.418  18.034  0.00  0.00    +0.000 A 
ATOM      8  C   UNL     1       4.388   6.629  17.402  0.00  0.00    +0.000 A 
ATOM      9  C   UNL     1       5.058   5.597  16.731  0.00  0.00    +0.000 A 
ATOM     10  C   UNL     1       4.499   4.327  16.691  0.00  0.00    +0.000 A 
ATOM     11  F   UNL     1       5.146   3.343  16.052  0.00  0.00    +0.000 F 
ATOM     12  C   UNL     1       3.283   4.082  17.305  0.00  0.00    +0.000 A 
ATOM     13  F   UNL     1       2.745   2.855  17.265  0.00  0.00    +0.000 F 
ATOM     14  C   UNL     1       2.613   5.115  17.962  0.00  0.00    +0.000 A 
ATOM     15  F   UNL     1       1.421   4.837  18.514  0.00  0.00    +0.000 F 
ENDBRANCH   4   7
BRANCH   1  17
ATOM     16  O   UNL     1       1.153  11.615  21.313  0.00  0.00    +0.000 OA
ATOM     17  C   UNL     1       0.490  10.820  20.651  0.00  0.00    +0.000 C 
ATOM     18  N   UNL     1      -0.875  10.929  20.474  0.00  0.00    +0.000 N 
ATOM     19  H   UNL     1      -1.292  10.285  19.806  0.00  0.00    +0.000 HD
BRANCH  18  20
ATOM     20  C   UNL     1      -1.631  12.066  20.981  0.00  0.00    +0.000 C 
ATOM     21  C   UNL     1      -2.067  11.834  22.427  0.00  0.00    +0.000 C 
ATOM     22  C   UNL     1      -2.963  12.968  22.903  0.00  0.00    +0.000 C 
ATOM     23  O   UNL     1      -4.081  13.128  22.031  0.00  0.00    +0.000 OA
ATOM     24  C   UNL     1      -3.682  13.482  20.708  0.00  0.00    +0.000 C 
ATOM     25  C   UNL     1      -2.836  12.377  20.090  0.00  0.00    +0.000 C 
ENDBRANCH  18  20
ENDBRANCH   1  17
TORSDOF 3
ENDMDL
