MODEL 1
REMARK VINA RESULT:      -6.7      0.000      0.000
REMARK  Name = 
REMARK  5 active torsions:
REMARK  status: ('A' for Active; 'I' for Inactive)
REMARK    1  A    between atoms: C_2  and  C_13
REMARK    2  A    between atoms: N_3  and  C_4
REMARK    3  A    between atoms: N_7  and  C_8
REMARK    4  A    between atoms: C_8  and  C_9
REMARK    5  A    between atoms: C_9  and  O_10
REMARK                            x       y       z     vdW  Elec       q    Type
REMARK                         _______ _______ _______ _____ _____    ______ ____
ROOT
ATOM      1  O   UNL     1       2.732   5.169  20.403  0.00  0.00    +0.000 OA
ATOM      2  C   UNL     1       3.081   6.011  19.583  0.00  0.00    +0.000 C 
ATOM      3  N   UNL     1       4.185   5.873  18.768  0.00  0.00    +0.000 N 
ATOM      4  H   UNL     1       4.540   6.697  18.305  0.00  0.00    +0.000 HD
ENDROOT
BRANCH   2   5
ATOM      5  C   UNL     1       2.318   7.285  19.450  0.00  0.00    +0.000 A 
ATOM      6  C   UNL     1       2.315   7.932  18.206  0.00  0.00    +0.000 A 
ATOM      7  C   UNL     1       1.613   9.127  18.035  0.00  0.00    +0.000 A 
ATOM      8  C   UNL     1       0.921   9.684  19.111  0.00  0.00    +0.000 A 
ATOM      9  I   UNL     1      -0.127  11.461  18.856  0.00  0.00    +0.000 I 
ATOM     10  C   UNL     1       0.933   9.059  20.359  0.00  0.00    +0.000 A 
ATOM     11  C   UNL     1       1.636   7.861  20.531  0.00  0.00    +0.000 A 
ENDBRANCH   2   5
BRANCH   3  12
ATOM     12  C   UNL     1       5.060   4.703  18.852  0.00  0.00    +0.000 C 
ATOM     13  C   UNL     1       6.532   5.075  18.667  0.00  0.00    +0.000 C 
ATOM     14  C   UNL     1       6.869   5.409  17.212  0.00  0.00    +0.000 C 
ATOM     15  N   UNL     1       6.497   4.316  16.299  0.00  0.00    +0.000 NA
ATOM     16  C   UNL     1       5.056   4.016  16.408  0.00  0.00    +0.000 C 
ATOM     17  C   UNL     1       4.653   3.637  17.833  0.00  0.00    +0.000 C 
BRANCH  15  18
ATOM     18  C   UNL     1       6.817   4.643  14.886  0.00  0.00    +0.000 C 
BRANCH  18  19
ATOM     19  C   UNL     1       5.810   4.084  13.868  0.00  0.00    +0.000 C 
BRANCH  19  20
ATOM     20  O   UNL     1       6.443   3.148  13.000  0.00  0.00    +0.000 OA
ATOM     21  H   UNL     1       7.344   3.032  13.360  0.00  0.00    +0.000 HD
ENDBRANCH  19  20
ENDBRANCH  18  19
ENDBRANCH  15  18
ENDBRANCH   3  12
TORSDOF 5
ENDMDL
MODEL 2
REMARK VINA RESULT:      -6.6      0.280      1.145
REMARK  Name = 
REMARK  5 active torsions:
REMARK  status: ('A' for Active; 'I' for Inactive)
REMARK    1  A    between atoms: C_2  and  C_13
REMARK    2  A    between atoms: N_3  and  C_4
REMARK    3  A    between atoms: N_7  and  C_8
REMARK    4  A    between atoms: C_8  and  C_9
REMARK    5  A    between atoms: C_9  and  O_10
REMARK                            x       y       z     vdW  Elec       q    Type
REMARK                         _______ _______ _______ _____ _____    ______ ____
ROOT
ATOM      1  O   UNL     1       2.363   5.224  20.318  0.00  0.00    +0.000 OA
ATOM      2  C   UNL     1       2.852   6.077  19.586  0.00  0.00    +0.000 C 
ATOM      3  N   UNL     1       4.025   5.899  18.881  0.00  0.00    +0.000 N 
ATOM      4  H   UNL     1       4.481   6.717  18.503  0.00  0.00    +0.000 HD
ENDROOT
BRANCH   2   5
ATOM      5  C   UNL     1       2.197   7.409  19.450  0.00  0.00    +0.000 A 
ATOM      6  C   UNL     1       1.524   7.937  20.561  0.00  0.00    +0.000 A 
ATOM      7  C   UNL     1       0.897   9.182  20.480  0.00  0.00    +0.000 A 
ATOM      8  C   UNL     1       0.931   9.898  19.283  0.00  0.00    +0.000 A 
ATOM      9  I   UNL     1       0.001  11.752  19.163  0.00  0.00    +0.000 I 
ATOM     10  C   UNL     1       1.581   9.374  18.165  0.00  0.00    +0.000 A 
ATOM     11  C   UNL     1       2.211   8.126  18.246  0.00  0.00    +0.000 A 
ENDBRANCH   2   5
BRANCH   3  12
ATOM     12  C   UNL     1       4.804   4.666  18.986  0.00  0.00    +0.000 C 
ATOM     13  C   UNL     1       6.309   4.934  18.934  0.00  0.00    +0.000 C 
ATOM     14  C   UNL     1       6.788   5.292  17.525  0.00  0.00    +0.000 C 
ATOM     15  N   UNL     1       6.415   4.262  16.542  0.00  0.00    +0.000 NA
ATOM     16  C   UNL     1       4.952   4.066  16.524  0.00  0.00    +0.000 C 
ATOM     17  C   UNL     1       4.408   3.668  17.896  0.00  0.00    +0.000 C 
BRANCH  15  18
ATOM     18  C   UNL     1       6.872   4.614  15.174  0.00  0.00    +0.000 C 
BRANCH  18  19
ATOM     19  C   UNL     1       5.878   4.236  14.062  0.00  0.00    +0.000 C 
BRANCH  19  20
ATOM     20  O   UNL     1       6.355   3.114  13.325  0.00  0.00    +0.000 OA
ATOM     21  H   UNL     1       6.270   3.368  12.386  0.00  0.00    +0.000 HD
ENDBRANCH  19  20
ENDBRANCH  18  19
ENDBRANCH  15  18
ENDBRANCH   3  12
TORSDOF 5
ENDMDL
MODEL 3
REMARK VINA RESULT:      -6.5      1.011      1.609
REMARK  Name = 
REMARK  5 active torsions:
REMARK  status: ('A' for Active; 'I' for Inactive)
REMARK    1  A    between atoms: C_2  and  C_13
REMARK    2  A    between atoms: N_3  and  C_4
REMARK    3  A    between atoms: N_7  and  C_8
REMARK    4  A    between atoms: C_8  and  C_9
REMARK    5  A    between atoms: C_9  and  O_10
REMARK                            x       y       z     vdW  Elec       q    Type
REMARK                         _______ _______ _______ _____ _____    ______ ____
ROOT
ATOM      1  O   UNL     1       2.412   5.507  20.636  0.00  0.00    +0.000 OA
ATOM      2  C   UNL     1       2.526   6.105  19.572  0.00  0.00    +0.000 C 
ATOM      3  N   UNL     1       3.128   5.566  18.453  0.00  0.00    +0.000 N 
ATOM      4  H   UNL     1       3.397   6.195  17.709  0.00  0.00    +0.000 HD
ENDROOT
BRANCH   2   5
ATOM      5  C   UNL     1       2.033   7.507  19.445  0.00  0.00    +0.000 A 
ATOM      6  C   UNL     1       1.442   8.108  20.566  0.00  0.00    +0.000 A 
ATOM      7  C   UNL     1       0.969   9.419  20.494  0.00  0.00    +0.000 A 
ATOM      8  C   UNL     1       1.075  10.130  19.298  0.00  0.00    +0.000 A 
ATOM      9  I   UNL     1       0.373  12.083  19.192  0.00  0.00    +0.000 I 
ATOM     10  C   UNL     1       1.644   9.535  18.171  0.00  0.00    +0.000 A 
ATOM     11  C   UNL     1       2.119   8.220  18.243  0.00  0.00    +0.000 A 
ENDBRANCH   2   5
BRANCH   3  12
ATOM     12  C   UNL     1       3.718   4.228  18.468  0.00  0.00    +0.000 C 
ATOM     13  C   UNL     1       5.090   4.215  19.145  0.00  0.00    +0.000 C 
ATOM     14  C   UNL     1       6.176   4.847  18.271  0.00  0.00    +0.000 C 
ATOM     15  N   UNL     1       6.251   4.211  16.946  0.00  0.00    +0.000 NA
ATOM     16  C   UNL     1       4.952   4.303  16.251  0.00  0.00    +0.000 C 
ATOM     17  C   UNL     1       3.823   3.656  17.053  0.00  0.00    +0.000 C 
BRANCH  15  18
ATOM     18  C   UNL     1       7.299   4.829  16.095  0.00  0.00    +0.000 C 
BRANCH  18  19
ATOM     19  C   UNL     1       6.952   4.866  14.597  0.00  0.00    +0.000 C 
BRANCH  19  20
ATOM     20  O   UNL     1       7.955   5.567  13.869  0.00  0.00    +0.000 OA
ATOM     21  H   UNL     1       8.739   4.984  13.883  0.00  0.00    +0.000 HD
ENDBRANCH  19  20
ENDBRANCH  18  19
ENDBRANCH  15  18
ENDBRANCH   3  12
TORSDOF 5
ENDMDL
MODEL 4
REMARK VINA RESULT:      -6.4      0.974      1.102
REMARK  Name = 
REMARK  5 active torsions:
REMARK  status: ('A' for Active; 'I' for Inactive)
REMARK    1  A    between atoms: C_2  and  C_13
REMARK    2  A    between atoms: N_3  and  C_4
REMARK    3  A    between atoms: N_7  and  C_8
REMARK    4  A    between atoms: C_8  and  C_9
REMARK    5  A    between atoms: C_9  and  O_10
REMARK                            x       y       z     vdW  Elec       q    Type
REMARK                         _______ _______ _______ _____ _____    ______ ____
ROOT
ATOM      1  O   UNL     1       2.120   5.580  20.634  0.00  0.00    +0.000 OA
ATOM      2  C   UNL     1       2.406   6.235  19.638  0.00  0.00    +0.000 C 
ATOM      3  N   UNL     1       3.175   5.751  18.599  0.00  0.00    +0.000 N 
ATOM      4  H   UNL     1       3.563   6.417  17.946  0.00  0.00    +0.000 HD
ENDROOT
BRANCH   2   5
ATOM      5  C   UNL     1       1.948   7.649  19.517  0.00  0.00    +0.000 A 
ATOM      6  C   UNL     1       2.142   8.309  18.295  0.00  0.00    +0.000 A 
ATOM      7  C   UNL     1       1.726   9.633  18.136  0.00  0.00    +0.000 A 
ATOM      8  C   UNL     1       1.126  10.303  19.201  0.00  0.00    +0.000 A 
ATOM      9  I   UNL     1       0.505  12.272  18.963  0.00  0.00    +0.000 I 
ATOM     10  C   UNL     1       0.945   9.662  20.428  0.00  0.00    +0.000 A 
ATOM     11  C   UNL     1       1.361   8.335  20.588  0.00  0.00    +0.000 A 
ENDBRANCH   2   5
BRANCH   3  12
ATOM     12  C   UNL     1       3.748   4.406  18.630  0.00  0.00    +0.000 C 
ATOM     13  C   UNL     1       5.168   4.401  19.198  0.00  0.00    +0.000 C 
ATOM     14  C   UNL     1       6.190   4.975  18.214  0.00  0.00    +0.000 C 
ATOM     15  N   UNL     1       6.153   4.279  16.918  0.00  0.00    +0.000 NA
ATOM     16  C   UNL     1       4.805   4.361  16.322  0.00  0.00    +0.000 C 
ATOM     17  C   UNL     1       3.734   3.769  17.239  0.00  0.00    +0.000 C 
BRANCH  15  18
ATOM     18  C   UNL     1       7.139   4.842  15.960  0.00  0.00    +0.000 C 
BRANCH  18  19
ATOM     19  C   UNL     1       6.769   4.634  14.482  0.00  0.00    +0.000 C 
BRANCH  19  20
ATOM     20  O   UNL     1       7.561   5.472  13.646  0.00  0.00    +0.000 OA
ATOM     21  H   UNL     1       8.205   4.876  13.218  0.00  0.00    +0.000 HD
ENDBRANCH  19  20
ENDBRANCH  18  19
ENDBRANCH  15  18
ENDBRANCH   3  12
TORSDOF 5
ENDMDL
MODEL 5
REMARK VINA RESULT:      -6.2      3.409      4.760
REMARK  Name = 
REMARK  5 active torsions:
REMARK  status: ('A' for Active; 'I' for Inactive)
REMARK    1  A    between atoms: C_2  and  C_13
REMARK    2  A    between atoms: N_3  and  C_4
REMARK    3  A    between atoms: N_7  and  C_8
REMARK    4  A    between atoms: C_8  and  C_9
REMARK    5  A    between atoms: C_9  and  O_10
REMARK                            x       y       z     vdW  Elec       q    Type
REMARK                         _______ _______ _______ _____ _____    ______ ____
ROOT
ATOM      1  O   UNL     1       2.074   8.975  17.420  0.00  0.00    +0.000 OA
ATOM      2  C   UNL     1       1.841   8.537  18.541  0.00  0.00    +0.000 C 
ATOM      3  N   UNL     1       2.206   7.274  18.959  0.00  0.00    +0.000 N 
ATOM      4  H   UNL     1       1.771   6.906  19.793  0.00  0.00    +0.000 HD
ENDROOT
BRANCH   2   5
ATOM      5  C   UNL     1       1.091   9.367  19.527  0.00  0.00    +0.000 A 
ATOM      6  C   UNL     1       0.463  10.535  19.072  0.00  0.00    +0.000 A 
ATOM      7  C   UNL     1      -0.252  11.342  19.959  0.00  0.00    +0.000 A 
ATOM      8  C   UNL     1      -0.331  10.990  21.307  0.00  0.00    +0.000 A 
ATOM      9  I   UNL     1      -1.397  12.189  22.627  0.00  0.00    +0.000 I 
ATOM     10  C   UNL     1       0.307   9.840  21.775  0.00  0.00    +0.000 A 
ATOM     11  C   UNL     1       1.023   9.030  20.885  0.00  0.00    +0.000 A 
ENDBRANCH   2   5
BRANCH   3  12
ATOM     12  C   UNL     1       2.880   6.334  18.065  0.00  0.00    +0.000 C 
ATOM     13  C   UNL     1       2.004   5.123  17.742  0.00  0.00    +0.000 C 
ATOM     14  C   UNL     1       1.895   4.153  18.920  0.00  0.00    +0.000 C 
ATOM     15  N   UNL     1       3.218   3.718  19.396  0.00  0.00    +0.000 NA
ATOM     16  C   UNL     1       4.035   4.880  19.796  0.00  0.00    +0.000 C 
ATOM     17  C   UNL     1       4.217   5.877  18.651  0.00  0.00    +0.000 C 
BRANCH  15  18
ATOM     18  C   UNL     1       3.112   2.783  20.545  0.00  0.00    +0.000 C 
BRANCH  18  19
ATOM     19  C   UNL     1       2.265   3.317  21.713  0.00  0.00    +0.000 C 
BRANCH  19  20
ATOM     20  O   UNL     1       1.423   2.290  22.229  0.00  0.00    +0.000 OA
ATOM     21  H   UNL     1       1.835   2.016  23.071  0.00  0.00    +0.000 HD
ENDBRANCH  19  20
ENDBRANCH  18  19
ENDBRANCH  15  18
ENDBRANCH   3  12
TORSDOF 5
ENDMDL
MODEL 6
REMARK VINA RESULT:      -6.2      3.361      4.810
REMARK  Name = 
REMARK  5 active torsions:
REMARK  status: ('A' for Active; 'I' for Inactive)
REMARK    1  A    between atoms: C_2  and  C_13
REMARK    2  A    between atoms: N_3  and  C_4
REMARK    3  A    between atoms: N_7  and  C_8
REMARK    4  A    between atoms: C_8  and  C_9
REMARK    5  A    between atoms: C_9  and  O_10
REMARK                            x       y       z     vdW  Elec       q    Type
REMARK                         _______ _______ _______ _____ _____    ______ ____
ROOT
ATOM      1  O   UNL     1       2.238   8.745  17.413  0.00  0.00    +0.000 OA
ATOM      2  C   UNL     1       2.035   8.360  18.558  0.00  0.00    +0.000 C 
ATOM      3  N   UNL     1       2.488   7.154  19.051  0.00  0.00    +0.000 N 
ATOM      4  H   UNL     1       2.078   6.807  19.907  0.00  0.00    +0.000 HD
ENDROOT
BRANCH   2   5
ATOM      5  C   UNL     1       1.226   9.194  19.494  0.00  0.00    +0.000 A 
ATOM      6  C   UNL     1       1.113   8.777  20.828  0.00  0.00    +0.000 A 
ATOM      7  C   UNL     1       0.368   9.527  21.740  0.00  0.00    +0.000 A 
ATOM      8  C   UNL     1      -0.275  10.691  21.318  0.00  0.00    +0.000 A 
ATOM      9  I   UNL     1      -1.380  11.810  22.676  0.00  0.00    +0.000 I 
ATOM     10  C   UNL     1      -0.184  11.106  19.989  0.00  0.00    +0.000 A 
ATOM     11  C   UNL     1       0.563  10.354  19.074  0.00  0.00    +0.000 A 
ENDBRANCH   2   5
BRANCH   3  12
ATOM     12  C   UNL     1       3.228   6.211  18.214  0.00  0.00    +0.000 C 
ATOM     13  C   UNL     1       2.297   5.241  17.484  0.00  0.00    +0.000 C 
ATOM     14  C   UNL     1       1.714   4.181  18.420  0.00  0.00    +0.000 C 
ATOM     15  N   UNL     1       2.767   3.442  19.136  0.00  0.00    +0.000 NA
ATOM     16  C   UNL     1       3.612   4.368  19.915  0.00  0.00    +0.000 C 
ATOM     17  C   UNL     1       4.260   5.436  19.035  0.00  0.00    +0.000 C 
BRANCH  15  18
ATOM     18  C   UNL     1       2.200   2.419  20.050  0.00  0.00    +0.000 C 
BRANCH  18  19
ATOM     19  C   UNL     1       1.236   2.984  21.106  0.00  0.00    +0.000 C 
BRANCH  19  20
ATOM     20  O   UNL     1       1.523   2.437  22.390  0.00  0.00    +0.000 OA
ATOM     21  H   UNL     1       1.771   3.201  22.946  0.00  0.00    +0.000 HD
ENDBRANCH  19  20
ENDBRANCH  18  19
ENDBRANCH  15  18
ENDBRANCH   3  12
TORSDOF 5
ENDMDL
MODEL 7
REMARK VINA RESULT:      -6.1      1.118      1.616
REMARK  Name = 
REMARK  5 active torsions:
REMARK  status: ('A' for Active; 'I' for Inactive)
REMARK    1  A    between atoms: C_2  and  C_13
REMARK    2  A    between atoms: N_3  and  C_4
REMARK    3  A    between atoms: N_7  and  C_8
REMARK    4  A    between atoms: C_8  and  C_9
REMARK    5  A    between atoms: C_9  and  O_10
REMARK                            x       y       z     vdW  Elec       q    Type
REMARK                         _______ _______ _______ _____ _____    ______ ____
ROOT
ATOM      1  O   UNL     1       2.220   5.237  20.889  0.00  0.00    +0.000 OA
ATOM      2  C   UNL     1       2.546   6.095  20.077  0.00  0.00    +0.000 C 
ATOM      3  N   UNL     1       3.566   5.933  19.161  0.00  0.00    +0.000 N 
ATOM      4  H   UNL     1       3.928   6.758  18.703  0.00  0.00    +0.000 HD
ENDROOT
BRANCH   2   5
ATOM      5  C   UNL     1       1.853   7.416  20.065  0.00  0.00    +0.000 A 
ATOM      6  C   UNL     1       1.117   7.790  21.199  0.00  0.00    +0.000 A 
ATOM      7  C   UNL     1       0.454   9.019  21.233  0.00  0.00    +0.000 A 
ATOM      8  C   UNL     1       0.515   9.871  20.131  0.00  0.00    +0.000 A 
ATOM      9  I   UNL     1      -0.469  11.700  20.184  0.00  0.00    +0.000 I 
ATOM     10  C   UNL     1       1.229   9.500  18.990  0.00  0.00    +0.000 A 
ATOM     11  C   UNL     1       1.895   8.269  18.955  0.00  0.00    +0.000 A 
ENDBRANCH   2   5
BRANCH   3  12
ATOM     12  C   UNL     1       4.373   4.714  19.118  0.00  0.00    +0.000 C 
ATOM     13  C   UNL     1       5.827   5.003  18.744  0.00  0.00    +0.000 C 
ATOM     14  C   UNL     1       5.990   5.341  17.261  0.00  0.00    +0.000 C 
ATOM     15  N   UNL     1       5.437   4.288  16.395  0.00  0.00    +0.000 NA
ATOM     16  C   UNL     1       4.007   4.070  16.690  0.00  0.00    +0.000 C 
ATOM     17  C   UNL     1       3.773   3.691  18.152  0.00  0.00    +0.000 C 
BRANCH  15  18
ATOM     18  C   UNL     1       5.587   4.620  14.955  0.00  0.00    +0.000 C 
BRANCH  18  19
ATOM     19  C   UNL     1       6.989   4.338  14.389  0.00  0.00    +0.000 C 
BRANCH  19  20
ATOM     20  O   UNL     1       7.749   5.540  14.314  0.00  0.00    +0.000 OA
ATOM     21  H   UNL     1       7.100   6.246  14.130  0.00  0.00    +0.000 HD
ENDBRANCH  19  20
ENDBRANCH  18  19
ENDBRANCH  15  18
ENDBRANCH   3  12
TORSDOF 5
ENDMDL
MODEL 8
REMARK VINA RESULT:      -6.0      1.842      2.500
REMARK  Name = 
REMARK  5 active torsions:
REMARK  status: ('A' for Active; 'I' for Inactive)
REMARK    1  A    between atoms: C_2  and  C_13
REMARK    2  A    between atoms: N_3  and  C_4
REMARK    3  A    between atoms: N_7  and  C_8
REMARK    4  A    between atoms: C_8  and  C_9
REMARK    5  A    between atoms: C_9  and  O_10
REMARK                            x       y       z     vdW  Elec       q    Type
REMARK                         _______ _______ _______ _____ _____    ______ ____
ROOT
ATOM      1  O   UNL     1       2.098   5.818  20.559  0.00  0.00    +0.000 OA
ATOM      2  C   UNL     1       2.243   6.399  19.489  0.00  0.00    +0.000 C 
ATOM      3  N   UNL     1       2.790   5.811  18.367  0.00  0.00    +0.000 N 
ATOM      4  H   UNL     1       3.095   6.413  17.616  0.00  0.00    +0.000 HD
ENDROOT
BRANCH   2   5
ATOM      5  C   UNL     1       1.853   7.833  19.358  0.00  0.00    +0.000 A 
ATOM      6  C   UNL     1       1.273   8.468  20.466  0.00  0.00    +0.000 A 
ATOM      7  C   UNL     1       0.894   9.810  20.389  0.00  0.00    +0.000 A 
ATOM      8  C   UNL     1       1.083  10.517  19.202  0.00  0.00    +0.000 A 
ATOM      9  I   UNL     1       0.522  12.514  19.090  0.00  0.00    +0.000 I 
ATOM     10  C   UNL     1       1.642   9.890  18.087  0.00  0.00    +0.000 A 
ATOM     11  C   UNL     1       2.023   8.545  18.163  0.00  0.00    +0.000 A 
ENDBRANCH   2   5
BRANCH   3  12
ATOM     12  C   UNL     1       3.281   4.433  18.385  0.00  0.00    +0.000 C 
ATOM     13  C   UNL     1       4.342   4.218  19.465  0.00  0.00    +0.000 C 
ATOM     14  C   UNL     1       5.686   4.849  19.094  0.00  0.00    +0.000 C 
ATOM     15  N   UNL     1       6.174   4.371  17.790  0.00  0.00    +0.000 NA
ATOM     16  C   UNL     1       5.191   4.660  16.729  0.00  0.00    +0.000 C 
ATOM     17  C   UNL     1       3.830   4.026  17.016  0.00  0.00    +0.000 C 
BRANCH  15  18
ATOM     18  C   UNL     1       7.474   4.990  17.427  0.00  0.00    +0.000 C 
BRANCH  18  19
ATOM     19  C   UNL     1       7.667   6.414  17.974  0.00  0.00    +0.000 C 
BRANCH  19  20
ATOM     20  O   UNL     1       7.622   7.366  16.915  0.00  0.00    +0.000 OA
ATOM     21  H   UNL     1       8.075   6.938  16.163  0.00  0.00    +0.000 HD
ENDBRANCH  19  20
ENDBRANCH  18  19
ENDBRANCH  15  18
ENDBRANCH   3  12
TORSDOF 5
ENDMDL
MODEL 9
REMARK VINA RESULT:      -6.0      2.218      2.915
REMARK  Name = 
REMARK  5 active torsions:
REMARK  status: ('A' for Active; 'I' for Inactive)
REMARK    1  A    between atoms: C_2  and  C_13
REMARK    2  A    between atoms: N_3  and  C_4
REMARK    3  A    between atoms: N_7  and  C_8
REMARK    4  A    between atoms: C_8  and  C_9
REMARK    5  A    between atoms: C_9  and  O_10
REMARK                            x       y       z     vdW  Elec       q    Type
REMARK                         _______ _______ _______ _____ _____    ______ ____
ROOT
ATOM      1  O   UNL     1       2.094   5.676  20.330  0.00  0.00    +0.000 OA
ATOM      2  C   UNL     1       2.284   6.290  19.286  0.00  0.00    +0.000 C 
ATOM      3  N   UNL     1       2.859   5.730  18.164  0.00  0.00    +0.000 N 
ATOM      4  H   UNL     1       3.199   6.352  17.444  0.00  0.00    +0.000 HD
ENDROOT
BRANCH   2   5
ATOM      5  C   UNL     1       1.921   7.733  19.192  0.00  0.00    +0.000 A 
ATOM      6  C   UNL     1       1.295   8.335  20.293  0.00  0.00    +0.000 A 
ATOM      7  C   UNL     1       0.939   9.685  20.249  0.00  0.00    +0.000 A 
ATOM      8  C   UNL     1       1.198  10.433  19.101  0.00  0.00    +0.000 A 
ATOM      9  I   UNL     1       0.672  12.442  19.038  0.00  0.00    +0.000 I 
ATOM     10  C   UNL     1       1.804   9.839  17.993  0.00  0.00    +0.000 A 
ATOM     11  C   UNL     1       2.161   8.487  18.035  0.00  0.00    +0.000 A 
ENDBRANCH   2   5
BRANCH   3  12
ATOM     12  C   UNL     1       3.327   4.344  18.151  0.00  0.00    +0.000 C 
ATOM     13  C   UNL     1       4.173   4.015  19.382  0.00  0.00    +0.000 C 
ATOM     14  C   UNL     1       5.567   4.643  19.315  0.00  0.00    +0.000 C 
ATOM     15  N   UNL     1       6.280   4.263  18.084  0.00  0.00    +0.000 NA
ATOM     16  C   UNL     1       5.508   4.663  16.892  0.00  0.00    +0.000 C 
ATOM     17  C   UNL     1       4.112   4.040  16.874  0.00  0.00    +0.000 C 
BRANCH  15  18
ATOM     18  C   UNL     1       7.629   4.879  18.015  0.00  0.00    +0.000 C 
BRANCH  18  19
ATOM     19  C   UNL     1       7.915   5.893  19.136  0.00  0.00    +0.000 C 
BRANCH  19  20
ATOM     20  O   UNL     1       8.617   5.269  20.207  0.00  0.00    +0.000 OA
ATOM     21  H   UNL     1       9.376   4.818  19.790  0.00  0.00    +0.000 HD
ENDBRANCH  19  20
ENDBRANCH  18  19
ENDBRANCH  15  18
ENDBRANCH   3  12
TORSDOF 5
ENDMDL
