MODEL 1
REMARK VINA RESULT:      -7.5      0.000      0.000
REMARK  Name = 
REMARK  14 active torsions:
REMARK  status: ('A' for Active; 'I' for Inactive)
REMARK    1  A    between atoms: N_1  and  C_2
REMARK    2  A    between atoms: C_6  and  C_7
REMARK    3  A    between atoms: C_7  and  O_8
REMARK    4  A    between atoms: C_7  and  C_9
REMARK    5  A    between atoms: C_9  and  N_10
REMARK    6  A    between atoms: N_10  and  C_11
REMARK    7  A    between atoms: C_11  and  C_12
REMARK    8  A    between atoms: C_12  and  C_13
REMARK    9  A    between atoms: C_13  and  C_14
REMARK   10  A    between atoms: C_14  and  C_15
REMARK   11  A    between atoms: C_15  and  O_16
REMARK   12  A    between atoms: O_16  and  C_17
REMARK   13  A    between atoms: C_17  and  C_18
REMARK   14  A    between atoms: C_18  and  C_19
REMARK                            x       y       z     vdW  Elec       q    Type
REMARK                         _______ _______ _______ _____ _____    ______ ____
ROOT
ATOM      1  C   UNL     1       2.962   6.556  18.949  0.00  0.00    +0.000 C 
ENDROOT
BRANCH   1   2
ATOM      2  N   UNL     1       2.307   7.527  18.074  0.00  0.00    +0.000 NA
ATOM      3  H   UNL     1       3.005   7.926  17.441  0.00  0.00    +0.000 HD
BRANCH   2   4
ATOM      4  C   UNL     1       1.709   8.610  18.880  0.00  0.00    +0.000 C 
BRANCH   4   5
ATOM      5  C   UNL     1       1.013   9.659  17.977  0.00  0.00    +0.000 C 
BRANCH   5  10
ATOM      6  C   UNL     1      -2.093  11.967  20.017  0.00  0.00    +0.000 A 
ATOM      7  C   UNL     1      -0.810  11.825  20.573  0.00  0.00    +0.000 A 
ATOM      8 CL   UNL     1      -0.429  12.538  22.104  0.00  0.00    +0.000 Cl
ATOM      9  C   UNL     1       0.185  11.079  19.930  0.00  0.00    +0.000 A 
ATOM     10  C   UNL     1      -0.056  10.471  18.689  0.00  0.00    +0.000 A 
ATOM     11  C   UNL     1      -1.317  10.651  18.102  0.00  0.00    +0.000 A 
ATOM     12  C   UNL     1      -2.311  11.396  18.751  0.00  0.00    +0.000 A 
ATOM     13 CL   UNL     1      -3.843  11.564  17.960  0.00  0.00    +0.000 Cl
BRANCH   6  14
ATOM     14  N   UNL     1      -3.042  12.838  20.597  0.00  0.00    +0.000 N 
ATOM     15  H   UNL     1      -2.968  12.895  21.610  0.00  0.00    +0.000 HD
ATOM     16  H   UNL     1      -3.990  12.696  20.259  0.00  0.00    +0.000 HD
ENDBRANCH   6  14
ENDBRANCH   5  10
BRANCH   5  17
ATOM     17  O   UNL     1       2.022  10.520  17.441  0.00  0.00    +0.000 OA
ATOM     18  H   UNL     1       2.615   9.924  16.938  0.00  0.00    +0.000 HD
ENDBRANCH   5  17
ENDBRANCH   4   5
ENDBRANCH   2   4
ENDBRANCH   1   2
BRANCH   1  19
ATOM     19  C   UNL     1       2.064   6.243  20.143  0.00  0.00    +0.000 C 
BRANCH  19  20
ATOM     20  C   UNL     1       2.285   4.803  20.599  0.00  0.00    +0.000 C 
BRANCH  20  21
ATOM     21  C   UNL     1       0.971   4.025  20.644  0.00  0.00    +0.000 C 
BRANCH  21  22
ATOM     22  C   UNL     1       0.762   3.212  19.375  0.00  0.00    +0.000 C 
BRANCH  22  23
ATOM     23  O   UNL     1       1.668   2.109  19.361  0.00  0.00    +0.000 OA
BRANCH  23  24
ATOM     24  C   UNL     1       2.474   2.134  18.181  0.00  0.00    +0.000 C 
BRANCH  24  25
ATOM     25  C   UNL     1       3.949   2.123  18.563  0.00  0.00    +0.000 C 
BRANCH  25  26
ATOM     26  C   UNL     1       4.622   3.364  18.042  0.00  0.00    +0.000 A 
ATOM     27  C   UNL     1       4.296   3.889  16.800  0.00  0.00    +0.000 A 
ATOM     28  C   UNL     1       4.982   5.014  16.354  0.00  0.00    +0.000 A 
ATOM     29  C   UNL     1       5.971   5.594  17.160  0.00  0.00    +0.000 A 
ATOM     30  C   UNL     1       6.697   6.726  16.751  0.00  0.00    +0.000 A 
ATOM     31  C   UNL     1       7.679   7.269  17.578  0.00  0.00    +0.000 A 
ATOM     32  C   UNL     1       7.941   6.683  18.811  0.00  0.00    +0.000 A 
ATOM     33  C   UNL     1       7.214   5.560  19.215  0.00  0.00    +0.000 A 
ATOM     34  C   UNL     1       6.231   4.999  18.411  0.00  0.00    +0.000 A 
ATOM     35  N   UNL     1       5.570   3.914  18.840  0.00  0.00    +0.000 NA
ENDBRANCH  25  26
ENDBRANCH  24  25
ENDBRANCH  23  24
ENDBRANCH  22  23
ENDBRANCH  21  22
ENDBRANCH  20  21
ENDBRANCH  19  20
ENDBRANCH   1  19
TORSDOF 14
ENDMDL
MODEL 2
REMARK VINA RESULT:      -7.2      1.917      2.342
REMARK  Name = 
REMARK  14 active torsions:
REMARK  status: ('A' for Active; 'I' for Inactive)
REMARK    1  A    between atoms: N_1  and  C_2
REMARK    2  A    between atoms: C_6  and  C_7
REMARK    3  A    between atoms: C_7  and  O_8
REMARK    4  A    between atoms: C_7  and  C_9
REMARK    5  A    between atoms: C_9  and  N_10
REMARK    6  A    between atoms: N_10  and  C_11
REMARK    7  A    between atoms: C_11  and  C_12
REMARK    8  A    between atoms: C_12  and  C_13
REMARK    9  A    between atoms: C_13  and  C_14
REMARK   10  A    between atoms: C_14  and  C_15
REMARK   11  A    between atoms: C_15  and  O_16
REMARK   12  A    between atoms: O_16  and  C_17
REMARK   13  A    between atoms: C_17  and  C_18
REMARK   14  A    between atoms: C_18  and  C_19
REMARK                            x       y       z     vdW  Elec       q    Type
REMARK                         _______ _______ _______ _____ _____    ______ ____
ROOT
ATOM      1  C   UNL     1       1.832   7.034  19.940  0.00  0.00    +0.000 C 
ENDROOT
BRANCH   1   2
ATOM      2  N   UNL     1       1.860   7.792  21.192  0.00  0.00    +0.000 NA
ATOM      3  H   UNL     1       2.007   7.142  21.968  0.00  0.00    +0.000 HD
BRANCH   2   4
ATOM      4  C   UNL     1       0.575   8.495  21.384  0.00  0.00    +0.000 C 
BRANCH   4   5
ATOM      5  C   UNL     1       0.779   9.833  22.136  0.00  0.00    +0.000 C 
BRANCH   5  10
ATOM      6  C   UNL     1      -1.859  13.064  20.819  0.00  0.00    +0.000 A 
ATOM      7  C   UNL     1      -0.839  12.574  19.987  0.00  0.00    +0.000 A 
ATOM      8 CL   UNL     1      -0.575  13.260  18.419  0.00  0.00    +0.000 Cl
ATOM      9  C   UNL     1       0.015  11.548  20.406  0.00  0.00    +0.000 A 
ATOM     10  C   UNL     1      -0.138  10.949  21.665  0.00  0.00    +0.000 A 
ATOM     11  C   UNL     1      -1.187  11.396  22.482  0.00  0.00    +0.000 A 
ATOM     12  C   UNL     1      -2.038  12.427  22.060  0.00  0.00    +0.000 A 
ATOM     13 CL   UNL     1      -3.303  12.923  23.133  0.00  0.00    +0.000 Cl
BRANCH   6  14
ATOM     14  N   UNL     1      -2.805  13.995  20.336  0.00  0.00    +0.000 N 
ATOM     15  H   UNL     1      -2.777  14.887  20.825  0.00  0.00    +0.000 HD
ATOM     16  H   UNL     1      -3.741  13.612  20.229  0.00  0.00    +0.000 HD
ENDBRANCH   6  14
ENDBRANCH   5  10
BRANCH   5  17
ATOM     17  O   UNL     1       0.594   9.588  23.534  0.00  0.00    +0.000 OA
ATOM     18  H   UNL     1       0.531   8.614  23.608  0.00  0.00    +0.000 HD
ENDBRANCH   5  17
ENDBRANCH   4   5
ENDBRANCH   2   4
ENDBRANCH   1   2
BRANCH   1  19
ATOM     19  C   UNL     1       2.887   5.932  19.976  0.00  0.00    +0.000 C 
BRANCH  19  20
ATOM     20  C   UNL     1       2.413   4.785  20.865  0.00  0.00    +0.000 C 
BRANCH  20  21
ATOM     21  C   UNL     1       0.957   4.423  20.577  0.00  0.00    +0.000 C 
BRANCH  21  22
ATOM     22  C   UNL     1       0.856   3.237  19.628  0.00  0.00    +0.000 C 
BRANCH  22  23
ATOM     23  O   UNL     1       1.725   3.442  18.515  0.00  0.00    +0.000 OA
BRANCH  23  24
ATOM     24  C   UNL     1       2.287   2.202  18.080  0.00  0.00    +0.000 C 
BRANCH  24  25
ATOM     25  C   UNL     1       3.753   2.127  18.491  0.00  0.00    +0.000 C 
BRANCH  25  26
ATOM     26  C   UNL     1       4.484   3.351  18.007  0.00  0.00    +0.000 A 
ATOM     27  C   UNL     1       4.210   3.905  16.765  0.00  0.00    +0.000 A 
ATOM     28  C   UNL     1       4.948   5.011  16.356  0.00  0.00    +0.000 A 
ATOM     29  C   UNL     1       5.935   5.543  17.197  0.00  0.00    +0.000 A 
ATOM     30  C   UNL     1       6.712   6.654  16.825  0.00  0.00    +0.000 A 
ATOM     31  C   UNL     1       7.690   7.149  17.686  0.00  0.00    +0.000 A 
ATOM     32  C   UNL     1       7.896   6.536  18.917  0.00  0.00    +0.000 A 
ATOM     33  C   UNL     1       7.120   5.434  19.284  0.00  0.00    +0.000 A 
ATOM     34  C   UNL     1       6.140   4.921  18.445  0.00  0.00    +0.000 A 
ATOM     35  N   UNL     1       5.429   3.854  18.839  0.00  0.00    +0.000 NA
ENDBRANCH  25  26
ENDBRANCH  24  25
ENDBRANCH  23  24
ENDBRANCH  22  23
ENDBRANCH  21  22
ENDBRANCH  20  21
ENDBRANCH  19  20
ENDBRANCH   1  19
TORSDOF 14
ENDMDL
MODEL 3
REMARK VINA RESULT:      -7.2      1.080      1.251
REMARK  Name = 
REMARK  14 active torsions:
REMARK  status: ('A' for Active; 'I' for Inactive)
REMARK    1  A    between atoms: N_1  and  C_2
REMARK    2  A    between atoms: C_6  and  C_7
REMARK    3  A    between atoms: C_7  and  O_8
REMARK    4  A    between atoms: C_7  and  C_9
REMARK    5  A    between atoms: C_9  and  N_10
REMARK    6  A    between atoms: N_10  and  C_11
REMARK    7  A    between atoms: C_11  and  C_12
REMARK    8  A    between atoms: C_12  and  C_13
REMARK    9  A    between atoms: C_13  and  C_14
REMARK   10  A    between atoms: C_14  and  C_15
REMARK   11  A    between atoms: C_15  and  O_16
REMARK   12  A    between atoms: O_16  and  C_17
REMARK   13  A    between atoms: C_17  and  C_18
REMARK   14  A    between atoms: C_18  and  C_19
REMARK                            x       y       z     vdW  Elec       q    Type
REMARK                         _______ _______ _______ _____ _____    ______ ____
ROOT
ATOM      1  C   UNL     1       2.389   5.737  20.771  0.00  0.00    +0.000 C 
ENDROOT
BRANCH   1   2
ATOM      2  N   UNL     1       2.664   6.752  19.755  0.00  0.00    +0.000 NA
ATOM      3  H   UNL     1       3.658   6.992  19.787  0.00  0.00    +0.000 HD
BRANCH   2   4
ATOM      4  C   UNL     1       1.864   7.964  20.024  0.00  0.00    +0.000 C 
BRANCH   4   5
ATOM      5  C   UNL     1       1.513   8.703  18.709  0.00  0.00    +0.000 C 
BRANCH   5  10
ATOM      6  C   UNL     1      -1.059  12.196  19.277  0.00  0.00    +0.000 A 
ATOM      7  C   UNL     1       0.140  12.052  19.994  0.00  0.00    +0.000 A 
ATOM      8 CL   UNL     1       0.623  13.245  21.153  0.00  0.00    +0.000 Cl
ATOM      9  C   UNL     1       0.962  10.932  19.825  0.00  0.00    +0.000 A 
ATOM     10  C   UNL     1       0.631   9.925  18.906  0.00  0.00    +0.000 A 
ATOM     11  C   UNL     1      -0.538  10.086  18.148  0.00  0.00    +0.000 A 
ATOM     12  C   UNL     1      -1.360  11.207  18.324  0.00  0.00    +0.000 A 
ATOM     13 CL   UNL     1      -2.789  11.324  17.353  0.00  0.00    +0.000 Cl
BRANCH   6  14
ATOM     14  N   UNL     1      -1.807  13.392  19.346  0.00  0.00    +0.000 N 
ATOM     15  H   UNL     1      -1.311  14.149  19.811  0.00  0.00    +0.000 HD
ATOM     16  H   UNL     1      -2.761  13.263  19.671  0.00  0.00    +0.000 HD
ENDBRANCH   6  14
ENDBRANCH   5  10
BRANCH   5  17
ATOM     17  O   UNL     1       2.738   9.068  18.065  0.00  0.00    +0.000 OA
ATOM     18  H   UNL     1       2.954   9.953  18.426  0.00  0.00    +0.000 HD
ENDBRANCH   5  17
ENDBRANCH   4   5
ENDBRANCH   2   4
ENDBRANCH   1   2
BRANCH   1  19
ATOM     19  C   UNL     1       1.033   5.089  20.506  0.00  0.00    +0.000 C 
BRANCH  19  20
ATOM     20  C   UNL     1       1.158   3.569  20.575  0.00  0.00    +0.000 C 
BRANCH  20  21
ATOM     21  C   UNL     1       0.590   2.906  19.322  0.00  0.00    +0.000 C 
BRANCH  21  22
ATOM     22  C   UNL     1       1.414   1.694  18.913  0.00  0.00    +0.000 C 
BRANCH  22  23
ATOM     23  O   UNL     1       2.270   2.043  17.826  0.00  0.00    +0.000 OA
BRANCH  23  24
ATOM     24  C   UNL     1       3.612   1.629  18.089  0.00  0.00    +0.000 C 
BRANCH  24  25
ATOM     25  C   UNL     1       4.217   2.499  19.185  0.00  0.00    +0.000 C 
BRANCH  25  26
ATOM     26  C   UNL     1       4.749   3.774  18.590  0.00  0.00    +0.000 A 
ATOM     27  C   UNL     1       4.112   4.388  17.521  0.00  0.00    +0.000 A 
ATOM     28  C   UNL     1       4.676   5.543  16.987  0.00  0.00    +0.000 A 
ATOM     29  C   UNL     1       5.857   6.062  17.535  0.00  0.00    +0.000 A 
ATOM     30  C   UNL     1       6.470   7.219  17.026  0.00  0.00    +0.000 A 
ATOM     31  C   UNL     1       7.648   7.700  17.594  0.00  0.00    +0.000 A 
ATOM     32  C   UNL     1       8.219   7.026  18.667  0.00  0.00    +0.000 A 
ATOM     33  C   UNL     1       7.605   5.878  19.173  0.00  0.00    +0.000 A 
ATOM     34  C   UNL     1       6.431   5.377  18.625  0.00  0.00    +0.000 A 
ATOM     35  N   UNL     1       5.888   4.264  19.140  0.00  0.00    +0.000 NA
ENDBRANCH  25  26
ENDBRANCH  24  25
ENDBRANCH  23  24
ENDBRANCH  22  23
ENDBRANCH  21  22
ENDBRANCH  20  21
ENDBRANCH  19  20
ENDBRANCH   1  19
TORSDOF 14
ENDMDL
MODEL 4
REMARK VINA RESULT:      -7.1      3.501      9.038
REMARK  Name = 
REMARK  14 active torsions:
REMARK  status: ('A' for Active; 'I' for Inactive)
REMARK    1  A    between atoms: N_1  and  C_2
REMARK    2  A    between atoms: C_6  and  C_7
REMARK    3  A    between atoms: C_7  and  O_8
REMARK    4  A    between atoms: C_7  and  C_9
REMARK    5  A    between atoms: C_9  and  N_10
REMARK    6  A    between atoms: N_10  and  C_11
REMARK    7  A    between atoms: C_11  and  C_12
REMARK    8  A    between atoms: C_12  and  C_13
REMARK    9  A    between atoms: C_13  and  C_14
REMARK   10  A    between atoms: C_14  and  C_15
REMARK   11  A    between atoms: C_15  and  O_16
REMARK   12  A    between atoms: O_16  and  C_17
REMARK   13  A    between atoms: C_17  and  C_18
REMARK   14  A    between atoms: C_18  and  C_19
REMARK                            x       y       z     vdW  Elec       q    Type
REMARK                         _______ _______ _______ _____ _____    ______ ____
ROOT
ATOM      1  C   UNL     1       2.056   3.279  20.715  0.00  0.00    +0.000 C 
ENDROOT
BRANCH   1   2
ATOM      2  N   UNL     1       3.055   2.329  21.204  0.00  0.00    +0.000 NA
ATOM      3  H   UNL     1       3.314   2.584  22.161  0.00  0.00    +0.000 HD
BRANCH   2   4
ATOM      4  C   UNL     1       4.257   2.375  20.348  0.00  0.00    +0.000 C 
BRANCH   4   5
ATOM      5  C   UNL     1       3.875   2.597  18.863  0.00  0.00    +0.000 C 
BRANCH   5  10
ATOM      6  C   UNL     1       6.624   5.254  16.737  0.00  0.00    +0.000 A 
ATOM      7  C   UNL     1       5.649   4.514  16.048  0.00  0.00    +0.000 A 
ATOM      8 CL   UNL     1       5.526   4.611  14.323  0.00  0.00    +0.000 Cl
ATOM      9  C   UNL     1       4.773   3.655  16.720  0.00  0.00    +0.000 A 
ATOM     10  C   UNL     1       4.819   3.524  18.116  0.00  0.00    +0.000 A 
ATOM     11  C   UNL     1       5.755   4.298  18.818  0.00  0.00    +0.000 A 
ATOM     12  C   UNL     1       6.632   5.154  18.140  0.00  0.00    +0.000 A 
ATOM     13 CL   UNL     1       7.762   6.068  19.082  0.00  0.00    +0.000 Cl
BRANCH   6  14
ATOM     14  N   UNL     1       7.404   6.225  16.072  0.00  0.00    +0.000 N 
ATOM     15  H   UNL     1       8.311   5.874  15.770  0.00  0.00    +0.000 HD
ATOM     16  H   UNL     1       7.447   7.119  16.553  0.00  0.00    +0.000 HD
ENDBRANCH   6  14
ENDBRANCH   5  10
BRANCH   5  17
ATOM     17  O   UNL     1       3.820   1.317  18.224  0.00  0.00    +0.000 OA
ATOM     18  H   UNL     1       2.918   0.986  18.408  0.00  0.00    +0.000 HD
ENDBRANCH   5  17
ENDBRANCH   4   5
ENDBRANCH   2   4
ENDBRANCH   1   2
BRANCH   1  19
ATOM     19  C   UNL     1       2.366   4.677  21.243  0.00  0.00    +0.000 C 
BRANCH  19  20
ATOM     20  C   UNL     1       1.777   5.730  20.308  0.00  0.00    +0.000 C 
BRANCH  20  21
ATOM     21  C   UNL     1       1.961   5.339  18.843  0.00  0.00    +0.000 C 
BRANCH  21  22
ATOM     22  C   UNL     1       2.734   6.403  18.077  0.00  0.00    +0.000 C 
BRANCH  22  23
ATOM     23  O   UNL     1       2.523   7.677  18.685  0.00  0.00    +0.000 OA
BRANCH  23  24
ATOM     24  C   UNL     1       1.548   8.427  17.958  0.00  0.00    +0.000 C 
BRANCH  24  25
ATOM     25  C   UNL     1       1.622   9.896  18.360  0.00  0.00    +0.000 C 
BRANCH  25  26
ATOM     26  C   UNL     1       0.903  10.106  19.665  0.00  0.00    +0.000 A 
ATOM     27  C   UNL     1       1.120   9.264  20.747  0.00  0.00    +0.000 A 
ATOM     28  C   UNL     1       0.395   9.484  21.914  0.00  0.00    +0.000 A 
ATOM     29  C   UNL     1      -0.523  10.540  21.977  0.00  0.00    +0.000 A 
ATOM     30  C   UNL     1      -1.285  10.798  23.130  0.00  0.00    +0.000 A 
ATOM     31  C   UNL     1      -2.194  11.854  23.152  0.00  0.00    +0.000 A 
ATOM     32  C   UNL     1      -2.347  12.653  22.025  0.00  0.00    +0.000 A 
ATOM     33  C   UNL     1      -1.585  12.396  20.882  0.00  0.00    +0.000 A 
ATOM     34  C   UNL     1      -0.673  11.350  20.834  0.00  0.00    +0.000 A 
ATOM     35  N   UNL     1       0.025  11.139  19.708  0.00  0.00    +0.000 NA
ENDBRANCH  25  26
ENDBRANCH  24  25
ENDBRANCH  23  24
ENDBRANCH  22  23
ENDBRANCH  21  22
ENDBRANCH  20  21
ENDBRANCH  19  20
ENDBRANCH   1  19
TORSDOF 14
ENDMDL
MODEL 5
REMARK VINA RESULT:      -7.1      1.535      2.475
REMARK  Name = 
REMARK  14 active torsions:
REMARK  status: ('A' for Active; 'I' for Inactive)
REMARK    1  A    between atoms: N_1  and  C_2
REMARK    2  A    between atoms: C_6  and  C_7
REMARK    3  A    between atoms: C_7  and  O_8
REMARK    4  A    between atoms: C_7  and  C_9
REMARK    5  A    between atoms: C_9  and  N_10
REMARK    6  A    between atoms: N_10  and  C_11
REMARK    7  A    between atoms: C_11  and  C_12
REMARK    8  A    between atoms: C_12  and  C_13
REMARK    9  A    between atoms: C_13  and  C_14
REMARK   10  A    between atoms: C_14  and  C_15
REMARK   11  A    between atoms: C_15  and  O_16
REMARK   12  A    between atoms: O_16  and  C_17
REMARK   13  A    between atoms: C_17  and  C_18
REMARK   14  A    between atoms: C_18  and  C_19
REMARK                            x       y       z     vdW  Elec       q    Type
REMARK                         _______ _______ _______ _____ _____    ______ ____
ROOT
ATOM      1  C   UNL     1       2.805   7.703  17.914  0.00  0.00    +0.000 C 
ENDROOT
BRANCH   1   2
ATOM      2  N   UNL     1       2.038   8.948  17.974  0.00  0.00    +0.000 NA
ATOM      3  H   UNL     1       2.687   9.738  17.941  0.00  0.00    +0.000 HD
BRANCH   2   4
ATOM      4  C   UNL     1       1.268   9.005  19.232  0.00  0.00    +0.000 C 
BRANCH   4   5
ATOM      5  C   UNL     1       0.888  10.464  19.587  0.00  0.00    +0.000 C 
BRANCH   5  10
ATOM      6  C   UNL     1      -3.144  11.633  18.355  0.00  0.00    +0.000 A 
ATOM      7  C   UNL     1      -2.423  10.655  17.650  0.00  0.00    +0.000 A 
ATOM      8 CL   UNL     1      -3.102   9.901  16.247  0.00  0.00    +0.000 Cl
ATOM      9  C   UNL     1      -1.129  10.284  18.032  0.00  0.00    +0.000 A 
ATOM     10  C   UNL     1      -0.516  10.856  19.157  0.00  0.00    +0.000 A 
ATOM     11  C   UNL     1      -1.248  11.796  19.898  0.00  0.00    +0.000 A 
ATOM     12  C   UNL     1      -2.542  12.167  19.509  0.00  0.00    +0.000 A 
ATOM     13 CL   UNL     1      -3.373  13.339  20.475  0.00  0.00    +0.000 Cl
BRANCH   6  14
ATOM     14  N   UNL     1      -4.498  11.896  18.052  0.00  0.00    +0.000 N 
ATOM     15  H   UNL     1      -4.637  12.250  17.109  0.00  0.00    +0.000 HD
ATOM     16  H   UNL     1      -4.984  12.429  18.769  0.00  0.00    +0.000 HD
ENDBRANCH   6  14
ENDBRANCH   5  10
BRANCH   5  17
ATOM     17  O   UNL     1       1.044  10.630  21.000  0.00  0.00    +0.000 OA
ATOM     18  H   UNL     1       1.778  11.271  21.094  0.00  0.00    +0.000 HD
ENDBRANCH   5  17
ENDBRANCH   4   5
ENDBRANCH   2   4
ENDBRANCH   1   2
BRANCH   1  19
ATOM     19  C   UNL     1       2.770   7.005  19.270  0.00  0.00    +0.000 C 
BRANCH  19  20
ATOM     20  C   UNL     1       1.896   5.756  19.192  0.00  0.00    +0.000 C 
BRANCH  20  21
ATOM     21  C   UNL     1       1.574   5.214  20.584  0.00  0.00    +0.000 C 
BRANCH  21  22
ATOM     22  C   UNL     1       1.016   3.800  20.514  0.00  0.00    +0.000 C 
BRANCH  22  23
ATOM     23  O   UNL     1       0.983   3.367  19.155  0.00  0.00    +0.000 OA
BRANCH  23  24
ATOM     24  C   UNL     1       1.636   2.103  19.013  0.00  0.00    +0.000 C 
BRANCH  24  25
ATOM     25  C   UNL     1       2.516   2.113  17.768  0.00  0.00    +0.000 C 
BRANCH  25  26
ATOM     26  C   UNL     1       3.674   3.054  17.968  0.00  0.00    +0.000 A 
ATOM     27  C   UNL     1       4.378   3.083  19.163  0.00  0.00    +0.000 A 
ATOM     28  C   UNL     1       5.411   4.004  19.302  0.00  0.00    +0.000 A 
ATOM     29  C   UNL     1       5.723   4.869  18.245  0.00  0.00    +0.000 A 
ATOM     30  C   UNL     1       6.751   5.822  18.340  0.00  0.00    +0.000 A 
ATOM     31  C   UNL     1       7.026   6.671  17.270  0.00  0.00    +0.000 A 
ATOM     32  C   UNL     1       6.275   6.573  16.104  0.00  0.00    +0.000 A 
ATOM     33  C   UNL     1       5.255   5.622  16.012  0.00  0.00    +0.000 A 
ATOM     34  C   UNL     1       4.961   4.765  17.064  0.00  0.00    +0.000 A 
ATOM     35  N   UNL     1       3.964   3.878  16.930  0.00  0.00    +0.000 NA
ENDBRANCH  25  26
ENDBRANCH  24  25
ENDBRANCH  23  24
ENDBRANCH  22  23
ENDBRANCH  21  22
ENDBRANCH  20  21
ENDBRANCH  19  20
ENDBRANCH   1  19
TORSDOF 14
ENDMDL
MODEL 6
REMARK VINA RESULT:      -7.0      1.722      2.106
REMARK  Name = 
REMARK  14 active torsions:
REMARK  status: ('A' for Active; 'I' for Inactive)
REMARK    1  A    between atoms: N_1  and  C_2
REMARK    2  A    between atoms: C_6  and  C_7
REMARK    3  A    between atoms: C_7  and  O_8
REMARK    4  A    between atoms: C_7  and  C_9
REMARK    5  A    between atoms: C_9  and  N_10
REMARK    6  A    between atoms: N_10  and  C_11
REMARK    7  A    between atoms: C_11  and  C_12
REMARK    8  A    between atoms: C_12  and  C_13
REMARK    9  A    between atoms: C_13  and  C_14
REMARK   10  A    between atoms: C_14  and  C_15
REMARK   11  A    between atoms: C_15  and  O_16
REMARK   12  A    between atoms: O_16  and  C_17
REMARK   13  A    between atoms: C_17  and  C_18
REMARK   14  A    between atoms: C_18  and  C_19
REMARK                            x       y       z     vdW  Elec       q    Type
REMARK                         _______ _______ _______ _____ _____    ______ ____
ROOT
ATOM      1  C   UNL     1       1.092   8.119  20.523  0.00  0.00    +0.000 C 
ENDROOT
BRANCH   1   2
ATOM      2  N   UNL     1       1.537   8.753  21.764  0.00  0.00    +0.000 NA
ATOM      3  H   UNL     1       1.404   8.097  22.538  0.00  0.00    +0.000 HD
BRANCH   2   4
ATOM      4  C   UNL     1       0.743   9.972  22.020  0.00  0.00    +0.000 C 
BRANCH   4   5
ATOM      5  C   UNL     1       0.876  10.980  20.852  0.00  0.00    +0.000 C 
BRANCH   5  10
ATOM      6  C   UNL     1      -2.872  11.674  18.705  0.00  0.00    +0.000 A 
ATOM      7  C   UNL     1      -2.579  12.358  19.897  0.00  0.00    +0.000 A 
ATOM      8 CL   UNL     1      -3.714  13.480  20.570  0.00  0.00    +0.000 Cl
ATOM      9  C   UNL     1      -1.387  12.133  20.594  0.00  0.00    +0.000 A 
ATOM     10  C   UNL     1      -0.424  11.235  20.108  0.00  0.00    +0.000 A 
ATOM     11  C   UNL     1      -0.685  10.586  18.892  0.00  0.00    +0.000 A 
ATOM     12  C   UNL     1      -1.882  10.812  18.200  0.00  0.00    +0.000 A 
ATOM     13 CL   UNL     1      -2.127   9.965  16.709  0.00  0.00    +0.000 Cl
BRANCH   6  14
ATOM     14  N   UNL     1      -4.006  12.012  17.934  0.00  0.00    +0.000 N 
ATOM     15  H   UNL     1      -4.772  11.350  18.036  0.00  0.00    +0.000 HD
ATOM     16  H   UNL     1      -3.791  12.250  16.969  0.00  0.00    +0.000 HD
ENDBRANCH   6  14
ENDBRANCH   5  10
BRANCH   5  17
ATOM     17  O   UNL     1       1.400  12.203  21.380  0.00  0.00    +0.000 OA
ATOM     18  H   UNL     1       0.610  12.725  21.626  0.00  0.00    +0.000 HD
ENDBRANCH   5  17
ENDBRANCH   4   5
ENDBRANCH   2   4
ENDBRANCH   1   2
BRANCH   1  19
ATOM     19  C   UNL     1       2.300   7.710  19.686  0.00  0.00    +0.000 C 
BRANCH  19  20
ATOM     20  C   UNL     1       2.387   6.188  19.603  0.00  0.00    +0.000 C 
BRANCH  20  21
ATOM     21  C   UNL     1       1.535   5.522  20.682  0.00  0.00    +0.000 C 
BRANCH  21  22
ATOM     22  C   UNL     1       1.880   4.048  20.832  0.00  0.00    +0.000 C 
BRANCH  22  23
ATOM     23  O   UNL     1       3.282   3.864  20.641  0.00  0.00    +0.000 OA
BRANCH  23  24
ATOM     24  C   UNL     1       3.583   2.488  20.403  0.00  0.00    +0.000 C 
BRANCH  24  25
ATOM     25  C   UNL     1       3.954   2.286  18.938  0.00  0.00    +0.000 C 
BRANCH  25  26
ATOM     26  C   UNL     1       4.538   3.555  18.379  0.00  0.00    +0.000 A 
ATOM     27  C   UNL     1       3.972   4.180  17.277  0.00  0.00    +0.000 A 
ATOM     28  C   UNL     1       4.582   5.327  16.779  0.00  0.00    +0.000 A 
ATOM     29  C   UNL     1       5.736   5.828  17.396  0.00  0.00    +0.000 A 
ATOM     30  C   UNL     1       6.393   6.978  16.926  0.00  0.00    +0.000 A 
ATOM     31  C   UNL     1       7.544   7.441  17.562  0.00  0.00    +0.000 A 
ATOM     32  C   UNL     1       8.043   6.756  18.664  0.00  0.00    +0.000 A 
ATOM     33  C   UNL     1       7.385   5.615  19.130  0.00  0.00    +0.000 A 
ATOM     34  C   UNL     1       6.237   5.133  18.515  0.00  0.00    +0.000 A 
ATOM     35  N   UNL     1       5.650   4.027  18.994  0.00  0.00    +0.000 NA
ENDBRANCH  25  26
ENDBRANCH  24  25
ENDBRANCH  23  24
ENDBRANCH  22  23
ENDBRANCH  21  22
ENDBRANCH  20  21
ENDBRANCH  19  20
ENDBRANCH   1  19
TORSDOF 14
ENDMDL
MODEL 7
REMARK VINA RESULT:      -7.0      1.999      2.534
REMARK  Name = 
REMARK  14 active torsions:
REMARK  status: ('A' for Active; 'I' for Inactive)
REMARK    1  A    between atoms: N_1  and  C_2
REMARK    2  A    between atoms: C_6  and  C_7
REMARK    3  A    between atoms: C_7  and  O_8
REMARK    4  A    between atoms: C_7  and  C_9
REMARK    5  A    between atoms: C_9  and  N_10
REMARK    6  A    between atoms: N_10  and  C_11
REMARK    7  A    between atoms: C_11  and  C_12
REMARK    8  A    between atoms: C_12  and  C_13
REMARK    9  A    between atoms: C_13  and  C_14
REMARK   10  A    between atoms: C_14  and  C_15
REMARK   11  A    between atoms: C_15  and  O_16
REMARK   12  A    between atoms: O_16  and  C_17
REMARK   13  A    between atoms: C_17  and  C_18
REMARK   14  A    between atoms: C_18  and  C_19
REMARK                            x       y       z     vdW  Elec       q    Type
REMARK                         _______ _______ _______ _____ _____    ______ ____
ROOT
ATOM      1  C   UNL     1       1.968   7.340  19.930  0.00  0.00    +0.000 C 
ENDROOT
BRANCH   1   2
ATOM      2  N   UNL     1       1.764   7.512  21.369  0.00  0.00    +0.000 NA
ATOM      3  H   UNL     1       1.661   6.590  21.801  0.00  0.00    +0.000 HD
BRANCH   2   4
ATOM      4  C   UNL     1       0.540   8.301  21.613  0.00  0.00    +0.000 C 
BRANCH   4   5
ATOM      5  C   UNL     1       0.863   9.813  21.712  0.00  0.00    +0.000 C 
BRANCH   5  10
ATOM      6  C   UNL     1      -0.769  12.164  18.403  0.00  0.00    +0.000 A 
ATOM      7  C   UNL     1       0.035  12.759  19.390  0.00  0.00    +0.000 A 
ATOM      8 CL   UNL     1       0.381  14.455  19.341  0.00  0.00    +0.000 Cl
ATOM      9  C   UNL     1       0.552  12.015  20.456  0.00  0.00    +0.000 A 
ATOM     10  C   UNL     1       0.309  10.637  20.561  0.00  0.00    +0.000 A 
ATOM     11  C   UNL     1      -0.450  10.025  19.552  0.00  0.00    +0.000 A 
ATOM     12  C   UNL     1      -0.968  10.775  18.488  0.00  0.00    +0.000 A 
ATOM     13 CL   UNL     1      -1.900   9.942  17.289  0.00  0.00    +0.000 Cl
BRANCH   6  14
ATOM     14  N   UNL     1      -1.164  12.888  17.256  0.00  0.00    +0.000 N 
ATOM     15  H   UNL     1      -0.404  13.418  16.834  0.00  0.00    +0.000 HD
ATOM     16  H   UNL     1      -2.020  13.421  17.381  0.00  0.00    +0.000 HD
ENDBRANCH   6  14
ENDBRANCH   5  10
BRANCH   5  17
ATOM     17  O   UNL     1       0.356  10.294  22.961  0.00  0.00    +0.000 OA
ATOM     18  H   UNL     1       0.582   9.593  23.606  0.00  0.00    +0.000 HD
ENDBRANCH   5  17
ENDBRANCH   4   5
ENDBRANCH   2   4
ENDBRANCH   1   2
BRANCH   1  19
ATOM     19  C   UNL     1       2.281   5.879  19.621  0.00  0.00    +0.000 C 
BRANCH  19  20
ATOM     20  C   UNL     1       2.178   5.042  20.893  0.00  0.00    +0.000 C 
BRANCH  20  21
ATOM     21  C   UNL     1       1.096   3.970  20.768  0.00  0.00    +0.000 C 
BRANCH  21  22
ATOM     22  C   UNL     1       0.751   3.697  19.311  0.00  0.00    +0.000 C 
BRANCH  22  23
ATOM     23  O   UNL     1       0.907   2.305  19.038  0.00  0.00    +0.000 OA
BRANCH  23  24
ATOM     24  C   UNL     1       1.954   2.092  18.090  0.00  0.00    +0.000 C 
BRANCH  24  25
ATOM     25  C   UNL     1       3.272   1.857  18.819  0.00  0.00    +0.000 C 
BRANCH  25  26
ATOM     26  C   UNL     1       4.284   2.885  18.392  0.00  0.00    +0.000 A 
ATOM     27  C   UNL     1       5.005   3.614  19.326  0.00  0.00    +0.000 A 
ATOM     28  C   UNL     1       5.896   4.581  18.870  0.00  0.00    +0.000 A 
ATOM     29  C   UNL     1       6.052   4.792  17.494  0.00  0.00    +0.000 A 
ATOM     30  C   UNL     1       6.933   5.762  16.984  0.00  0.00    +0.000 A 
ATOM     31  C   UNL     1       7.055   5.947  15.608  0.00  0.00    +0.000 A 
ATOM     32  C   UNL     1       6.298   5.170  14.739  0.00  0.00    +0.000 A 
ATOM     33  C   UNL     1       5.426   4.205  15.250  0.00  0.00    +0.000 A 
ATOM     34  C   UNL     1       5.285   4.000  16.616  0.00  0.00    +0.000 A 
ATOM     35  N   UNL     1       4.426   3.069  17.056  0.00  0.00    +0.000 NA
ENDBRANCH  25  26
ENDBRANCH  24  25
ENDBRANCH  23  24
ENDBRANCH  22  23
ENDBRANCH  21  22
ENDBRANCH  20  21
ENDBRANCH  19  20
ENDBRANCH   1  19
TORSDOF 14
ENDMDL
MODEL 8
REMARK VINA RESULT:      -7.0      2.404      4.278
REMARK  Name = 
REMARK  14 active torsions:
REMARK  status: ('A' for Active; 'I' for Inactive)
REMARK    1  A    between atoms: N_1  and  C_2
REMARK    2  A    between atoms: C_6  and  C_7
REMARK    3  A    between atoms: C_7  and  O_8
REMARK    4  A    between atoms: C_7  and  C_9
REMARK    5  A    between atoms: C_9  and  N_10
REMARK    6  A    between atoms: N_10  and  C_11
REMARK    7  A    between atoms: C_11  and  C_12
REMARK    8  A    between atoms: C_12  and  C_13
REMARK    9  A    between atoms: C_13  and  C_14
REMARK   10  A    between atoms: C_14  and  C_15
REMARK   11  A    between atoms: C_15  and  O_16
REMARK   12  A    between atoms: O_16  and  C_17
REMARK   13  A    between atoms: C_17  and  C_18
REMARK   14  A    between atoms: C_18  and  C_19
REMARK                            x       y       z     vdW  Elec       q    Type
REMARK                         _______ _______ _______ _____ _____    ______ ____
ROOT
ATOM      1  C   UNL     1       1.889   7.431  19.090  0.00  0.00    +0.000 C 
ENDROOT
BRANCH   1   2
ATOM      2  N   UNL     1       1.839   8.892  19.059  0.00  0.00    +0.000 NA
ATOM      3  H   UNL     1       1.656   9.237  20.005  0.00  0.00    +0.000 HD
BRANCH   2   4
ATOM      4  C   UNL     1       0.755   9.340  18.162  0.00  0.00    +0.000 C 
BRANCH   4   5
ATOM      5  C   UNL     1       0.085  10.630  18.697  0.00  0.00    +0.000 C 
BRANCH   5  10
ATOM      6  C   UNL     1      -4.021  11.165  17.286  0.00  0.00    +0.000 A 
ATOM      7  C   UNL     1      -3.611  11.663  18.534  0.00  0.00    +0.000 A 
ATOM      8 CL   UNL     1      -4.733  12.481  19.569  0.00  0.00    +0.000 Cl
ATOM      9  C   UNL     1      -2.302  11.486  18.996  0.00  0.00    +0.000 A 
ATOM     10  C   UNL     1      -1.341  10.829  18.212  0.00  0.00    +0.000 A 
ATOM     11  C   UNL     1      -1.728  10.375  16.943  0.00  0.00    +0.000 A 
ATOM     12  C   UNL     1      -3.041  10.551  16.486  0.00  0.00    +0.000 A 
ATOM     13 CL   UNL     1      -3.437   9.953  14.909  0.00  0.00    +0.000 Cl
BRANCH   6  14
ATOM     14  N   UNL     1      -5.298  11.473  16.766  0.00  0.00    +0.000 N 
ATOM     15  H   UNL     1      -5.509  10.979  15.902  0.00  0.00    +0.000 HD
ATOM     16  H   UNL     1      -5.499  12.469  16.733  0.00  0.00    +0.000 HD
ENDBRANCH   6  14
ENDBRANCH   5  10
BRANCH   5  17
ATOM     17  O   UNL     1       0.126  10.589  20.127  0.00  0.00    +0.000 OA
ATOM     18  H   UNL     1       0.840  11.213  20.372  0.00  0.00    +0.000 HD
ENDBRANCH   5  17
ENDBRANCH   4   5
ENDBRANCH   2   4
ENDBRANCH   1   2
BRANCH   1  19
ATOM     19  C   UNL     1       3.313   6.954  18.817  0.00  0.00    +0.000 C 
BRANCH  19  20
ATOM     20  C   UNL     1       3.803   7.512  17.483  0.00  0.00    +0.000 C 
BRANCH  20  21
ATOM     21  C   UNL     1       5.160   6.924  17.099  0.00  0.00    +0.000 C 
BRANCH  21  22
ATOM     22  C   UNL     1       5.270   6.717  15.595  0.00  0.00    +0.000 C 
BRANCH  22  23
ATOM     23  O   UNL     1       6.066   5.562  15.330  0.00  0.00    +0.000 OA
BRANCH  23  24
ATOM     24  C   UNL     1       5.248   4.393  15.260  0.00  0.00    +0.000 C 
BRANCH  24  25
ATOM     25  C   UNL     1       5.481   3.525  16.492  0.00  0.00    +0.000 C 
BRANCH  25  26
ATOM     26  C   UNL     1       4.232   3.478  17.329  0.00  0.00    +0.000 A 
ATOM     27  C   UNL     1       2.999   3.831  16.799  0.00  0.00    +0.000 A 
ATOM     28  C   UNL     1       1.886   3.808  17.634  0.00  0.00    +0.000 A 
ATOM     29  C   UNL     1       2.028   3.427  18.975  0.00  0.00    +0.000 A 
ATOM     30  C   UNL     1       0.936   3.397  19.860  0.00  0.00    +0.000 A 
ATOM     31  C   UNL     1       1.118   3.020  21.190  0.00  0.00    +0.000 A 
ATOM     32  C   UNL     1       2.388   2.677  21.639  0.00  0.00    +0.000 A 
ATOM     33  C   UNL     1       3.470   2.705  20.756  0.00  0.00    +0.000 A 
ATOM     34  C   UNL     1       3.316   3.078  19.427  0.00  0.00    +0.000 A 
ATOM     35  N   UNL     1       4.389   3.100  18.622  0.00  0.00    +0.000 NA
ENDBRANCH  25  26
ENDBRANCH  24  25
ENDBRANCH  23  24
ENDBRANCH  22  23
ENDBRANCH  21  22
ENDBRANCH  20  21
ENDBRANCH  19  20
ENDBRANCH   1  19
TORSDOF 14
ENDMDL
MODEL 9
REMARK VINA RESULT:      -7.0      2.517      4.495
REMARK  Name = 
REMARK  14 active torsions:
REMARK  status: ('A' for Active; 'I' for Inactive)
REMARK    1  A    between atoms: N_1  and  C_2
REMARK    2  A    between atoms: C_6  and  C_7
REMARK    3  A    between atoms: C_7  and  O_8
REMARK    4  A    between atoms: C_7  and  C_9
REMARK    5  A    between atoms: C_9  and  N_10
REMARK    6  A    between atoms: N_10  and  C_11
REMARK    7  A    between atoms: C_11  and  C_12
REMARK    8  A    between atoms: C_12  and  C_13
REMARK    9  A    between atoms: C_13  and  C_14
REMARK   10  A    between atoms: C_14  and  C_15
REMARK   11  A    between atoms: C_15  and  O_16
REMARK   12  A    between atoms: O_16  and  C_17
REMARK   13  A    between atoms: C_17  and  C_18
REMARK   14  A    between atoms: C_18  and  C_19
REMARK                            x       y       z     vdW  Elec       q    Type
REMARK                         _______ _______ _______ _____ _____    ______ ____
ROOT
ATOM      1  C   UNL     1       2.241   6.795  19.908  0.00  0.00    +0.000 C 
ENDROOT
BRANCH   1   2
ATOM      2  N   UNL     1       2.019   8.116  20.496  0.00  0.00    +0.000 NA
ATOM      3  H   UNL     1       2.896   8.447  20.905  0.00  0.00    +0.000 HD
BRANCH   2   4
ATOM      4  C   UNL     1       0.992   8.032  21.553  0.00  0.00    +0.000 C 
BRANCH   4   5
ATOM      5  C   UNL     1       0.509   9.442  21.975  0.00  0.00    +0.000 C 
BRANCH   5  10
ATOM      6  C   UNL     1      -0.548  12.034  18.614  0.00  0.00    +0.000 A 
ATOM      7  C   UNL     1      -0.968  10.694  18.659  0.00  0.00    +0.000 A 
ATOM      8 CL   UNL     1      -1.896  10.018  17.362  0.00  0.00    +0.000 Cl
ATOM      9  C   UNL     1      -0.624   9.857  19.726  0.00  0.00    +0.000 A 
ATOM     10  C   UNL     1       0.129  10.337  20.808  0.00  0.00    +0.000 A 
ATOM     11  C   UNL     1       0.508  11.687  20.796  0.00  0.00    +0.000 A 
ATOM     12  C   UNL     1       0.165  12.521  19.724  0.00  0.00    +0.000 A 
ATOM     13 CL   UNL     1       0.679  14.173  19.786  0.00  0.00    +0.000 Cl
BRANCH   6  14
ATOM     14  N   UNL     1      -1.019  12.909  17.610  0.00  0.00    +0.000 N 
ATOM     15  H   UNL     1      -0.775  12.608  16.669  0.00  0.00    +0.000 HD
ATOM     16  H   UNL     1      -0.823  13.889  17.794  0.00  0.00    +0.000 HD
ENDBRANCH   6  14
ENDBRANCH   5  10
BRANCH   5  17
ATOM     17  O   UNL     1      -0.599   9.282  22.867  0.00  0.00    +0.000 OA
ATOM     18  H   UNL     1      -0.544  10.051  23.470  0.00  0.00    +0.000 HD
ENDBRANCH   5  17
ENDBRANCH   4   5
ENDBRANCH   2   4
ENDBRANCH   1   2
BRANCH   1  19
ATOM     19  C   UNL     1       2.034   6.856  18.398  0.00  0.00    +0.000 C 
BRANCH  19  20
ATOM     20  C   UNL     1       2.968   7.897  17.785  0.00  0.00    +0.000 C 
BRANCH  20  21
ATOM     21  C   UNL     1       4.363   7.323  17.547  0.00  0.00    +0.000 C 
BRANCH  21  22
ATOM     22  C   UNL     1       4.637   7.126  16.063  0.00  0.00    +0.000 C 
BRANCH  22  23
ATOM     23  O   UNL     1       5.790   6.302  15.897  0.00  0.00    +0.000 OA
BRANCH  23  24
ATOM     24  C   UNL     1       5.484   5.165  15.088  0.00  0.00    +0.000 C 
BRANCH  24  25
ATOM     25  C   UNL     1       5.852   3.887  15.833  0.00  0.00    +0.000 C 
BRANCH  25  26
ATOM     26  C   UNL     1       5.059   3.792  17.109  0.00  0.00    +0.000 A 
ATOM     27  C   UNL     1       5.670   3.945  18.345  0.00  0.00    +0.000 A 
ATOM     28  C   UNL     1       4.893   3.805  19.491  0.00  0.00    +0.000 A 
ATOM     29  C   UNL     1       3.524   3.524  19.377  0.00  0.00    +0.000 A 
ATOM     30  C   UNL     1       2.699   3.365  20.503  0.00  0.00    +0.000 A 
ATOM     31  C   UNL     1       1.344   3.079  20.348  0.00  0.00    +0.000 A 
ATOM     32  C   UNL     1       0.810   2.947  19.072  0.00  0.00    +0.000 A 
ATOM     33  C   UNL     1       1.633   3.108  17.954  0.00  0.00    +0.000 A 
ATOM     34  C   UNL     1       2.986   3.394  18.080  0.00  0.00    +0.000 A 
ATOM     35  N   UNL     1       3.736   3.528  16.976  0.00  0.00    +0.000 NA
ENDBRANCH  25  26
ENDBRANCH  24  25
ENDBRANCH  23  24
ENDBRANCH  22  23
ENDBRANCH  21  22
ENDBRANCH  20  21
ENDBRANCH  19  20
ENDBRANCH   1  19
TORSDOF 14
ENDMDL
