MODEL 1
REMARK VINA RESULT:      -8.2      0.000      0.000
REMARK  Name = 
REMARK  8 active torsions:
REMARK  status: ('A' for Active; 'I' for Inactive)
REMARK    1  A    between atoms: C_1  and  C_2
REMARK    2  A    between atoms: C_2  and  C_3
REMARK    3  A    between atoms: C_3  and  N_4
REMARK    4  A    between atoms: C_9  and  C_10
REMARK    5  A    between atoms: N_17  and  C_18
REMARK    6  A    between atoms: C_18  and  C_19
REMARK    7  A    between atoms: C_19  and  C_20
REMARK    8  A    between atoms: C_23  and  N_24
REMARK                            x       y       z     vdW  Elec       q    Type
REMARK                         _______ _______ _______ _____ _____    ______ ____
ROOT
ATOM      1  N   UNL     1       1.210   9.237  19.325  0.00  0.00    +0.000 N 
ATOM      2  C   UNL     1       2.082   9.272  18.228  0.00  0.00    +0.000 A 
ATOM      3  O   UNL     1       2.176  10.227  17.457  0.00  0.00    +0.000 OA
ATOM      4  C   UNL     1       2.872   8.071  18.096  0.00  0.00    +0.000 A 
ATOM      5  N   UNL     1       3.830   7.775  17.161  0.00  0.00    +0.000 NA
ATOM      6  C   UNL     1       4.260   6.563  17.462  0.00  0.00    +0.000 A 
ATOM      7  N   UNL     1       3.591   6.071  18.567  0.00  0.00    +0.000 N 
ATOM      8  C   UNL     1       2.710   7.034  18.977  0.00  0.00    +0.000 A 
ATOM      9  N   UNL     1       1.844   7.029  20.061  0.00  0.00    +0.000 N 
ATOM     10  C   UNL     1       1.194   8.252  20.330  0.00  0.00    +0.000 A 
ATOM     11  O   UNL     1       0.625   8.467  21.401  0.00  0.00    +0.000 OA
ATOM     12  H   UNL     1       3.746   5.168  18.992  0.00  0.00    +0.000 HD
ENDROOT
BRANCH   6  13
ATOM     13  C   UNL     1       5.298   5.785  16.720  0.00  0.00    +0.000 C 
ATOM     14  C   UNL     1       5.030   4.281  16.767  0.00  0.00    +0.000 C 
ATOM     15  C   UNL     1       5.855   3.719  15.619  0.00  0.00    +0.000 C 
ATOM     16  C   UNL     1       5.925   4.828  14.573  0.00  0.00    +0.000 C 
ATOM     17  C   UNL     1       5.307   6.070  15.216  0.00  0.00    +0.000 C 
ENDBRANCH   6  13
BRANCH   1  18
ATOM     18  C   UNL     1       0.344  10.395  19.530  0.00  0.00    +0.000 C 
BRANCH  18  20
ATOM     19  C   UNL     1      -1.405  10.421  17.714  0.00  0.00    +0.000 C 
ATOM     20  C   UNL     1      -1.115  10.108  19.173  0.00  0.00    +0.000 C 
ENDBRANCH  18  20
ENDBRANCH   1  18
BRANCH   9  21
ATOM     21  C   UNL     1       1.762   5.920  21.035  0.00  0.00    +0.000 C 
BRANCH  21  22
ATOM     22  C   UNL     1       0.964   4.687  20.571  0.00  0.00    +0.000 C 
BRANCH  22  23
ATOM     23  C   UNL     1       1.813   3.617  19.929  0.00  0.00    +0.000 A 
ATOM     24  C   UNL     1       1.458   3.081  18.686  0.00  0.00    +0.000 A 
ATOM     25  C   UNL     1       2.268   2.124  18.067  0.00  0.00    +0.000 A 
ATOM     26  C   UNL     1       3.463   1.712  18.660  0.00  0.00    +0.000 A 
ATOM     27  C   UNL     1       3.784   2.206  19.928  0.00  0.00    +0.000 A 
ATOM     28  C   UNL     1       2.980   3.163  20.553  0.00  0.00    +0.000 A 
BRANCH  26  29
ATOM     29  N   UNL     1       4.203   0.662  18.104  0.00  0.00    +0.000 N 
ATOM     30  H   UNL     1       4.502  -0.030  18.785  0.00  0.00    +0.000 HD
ATOM     31  H   UNL     1       3.761   0.237  17.295  0.00  0.00    +0.000 HD
ENDBRANCH  26  29
ENDBRANCH  22  23
ENDBRANCH  21  22
ENDBRANCH   9  21
TORSDOF 7
ENDMDL
MODEL 2
REMARK VINA RESULT:      -8.0      0.569      1.219
REMARK  Name = 
REMARK  8 active torsions:
REMARK  status: ('A' for Active; 'I' for Inactive)
REMARK    1  A    between atoms: C_1  and  C_2
REMARK    2  A    between atoms: C_2  and  C_3
REMARK    3  A    between atoms: C_3  and  N_4
REMARK    4  A    between atoms: C_9  and  C_10
REMARK    5  A    between atoms: N_17  and  C_18
REMARK    6  A    between atoms: C_18  and  C_19
REMARK    7  A    between atoms: C_19  and  C_20
REMARK    8  A    between atoms: C_23  and  N_24
REMARK                            x       y       z     vdW  Elec       q    Type
REMARK                         _______ _______ _______ _____ _____    ______ ____
ROOT
ATOM      1  N   UNL     1       1.110   9.294  19.359  0.00  0.00    +0.000 N 
ATOM      2  C   UNL     1       1.901   9.363  18.204  0.00  0.00    +0.000 A 
ATOM      3  O   UNL     1       1.919  10.328  17.441  0.00  0.00    +0.000 OA
ATOM      4  C   UNL     1       2.708   8.182  18.001  0.00  0.00    +0.000 A 
ATOM      5  N   UNL     1       3.604   7.919  16.997  0.00  0.00    +0.000 NA
ATOM      6  C   UNL     1       4.081   6.715  17.251  0.00  0.00    +0.000 A 
ATOM      7  N   UNL     1       3.503   6.194  18.394  0.00  0.00    +0.000 N 
ATOM      8  C   UNL     1       2.632   7.131  18.878  0.00  0.00    +0.000 A 
ATOM      9  N   UNL     1       1.845   7.094  20.020  0.00  0.00    +0.000 N 
ATOM     10  C   UNL     1       1.188   8.297  20.350  0.00  0.00    +0.000 A 
ATOM     11  O   UNL     1       0.691   8.486  21.461  0.00  0.00    +0.000 OA
ATOM     12  H   UNL     1       3.709   5.290  18.795  0.00  0.00    +0.000 HD
ENDROOT
BRANCH   6  13
ATOM     13  C   UNL     1       5.082   5.970  16.427  0.00  0.00    +0.000 C 
ATOM     14  C   UNL     1       6.442   5.881  17.119  0.00  0.00    +0.000 C 
ATOM     15  C   UNL     1       7.148   4.737  16.405  0.00  0.00    +0.000 C 
ATOM     16  C   UNL     1       6.045   3.790  15.941  0.00  0.00    +0.000 C 
ATOM     17  C   UNL     1       4.719   4.497  16.223  0.00  0.00    +0.000 C 
ENDBRANCH   6  13
BRANCH   1  18
ATOM     18  C   UNL     1       0.235  10.429  19.640  0.00  0.00    +0.000 C 
BRANCH  18  20
ATOM     19  C   UNL     1      -1.524  11.821  18.489  0.00  0.00    +0.000 C 
ATOM     20  C   UNL     1      -1.036  10.414  18.790  0.00  0.00    +0.000 C 
ENDBRANCH  18  20
ENDBRANCH   1  18
BRANCH   9  21
ATOM     21  C   UNL     1       1.857   5.972  20.982  0.00  0.00    +0.000 C 
BRANCH  21  22
ATOM     22  C   UNL     1       1.067   4.720  20.553  0.00  0.00    +0.000 C 
BRANCH  22  23
ATOM     23  C   UNL     1       1.906   3.683  19.846  0.00  0.00    +0.000 A 
ATOM     24  C   UNL     1       3.079   3.199  20.435  0.00  0.00    +0.000 A 
ATOM     25  C   UNL     1       3.832   2.204  19.805  0.00  0.00    +0.000 A 
ATOM     26  C   UNL     1       3.410   1.650  18.595  0.00  0.00    +0.000 A 
ATOM     27  C   UNL     1       2.270   2.179  17.980  0.00  0.00    +0.000 A 
ATOM     28  C   UNL     1       1.511   3.172  18.605  0.00  0.00    +0.000 A 
BRANCH  26  29
ATOM     29  N   UNL     1       4.231   0.753  17.903  0.00  0.00    +0.000 N 
ATOM     30  H   UNL     1       4.903   1.205  17.290  0.00  0.00    +0.000 HD
ATOM     31  H   UNL     1       4.665   0.055  18.499  0.00  0.00    +0.000 HD
ENDBRANCH  26  29
ENDBRANCH  22  23
ENDBRANCH  21  22
ENDBRANCH   9  21
TORSDOF 7
ENDMDL
MODEL 3
REMARK VINA RESULT:      -7.0      2.331      6.107
REMARK  Name = 
REMARK  8 active torsions:
REMARK  status: ('A' for Active; 'I' for Inactive)
REMARK    1  A    between atoms: C_1  and  C_2
REMARK    2  A    between atoms: C_2  and  C_3
REMARK    3  A    between atoms: C_3  and  N_4
REMARK    4  A    between atoms: C_9  and  C_10
REMARK    5  A    between atoms: N_17  and  C_18
REMARK    6  A    between atoms: C_18  and  C_19
REMARK    7  A    between atoms: C_19  and  C_20
REMARK    8  A    between atoms: C_23  and  N_24
REMARK                            x       y       z     vdW  Elec       q    Type
REMARK                         _______ _______ _______ _____ _____    ______ ____
ROOT
ATOM      1  N   UNL     1       3.179   3.606  19.635  0.00  0.00    +0.000 N 
ATOM      2  C   UNL     1       3.736   2.942  18.533  0.00  0.00    +0.000 A 
ATOM      3  O   UNL     1       3.815   1.718  18.438  0.00  0.00    +0.000 OA
ATOM      4  C   UNL     1       4.202   3.845  17.506  0.00  0.00    +0.000 A 
ATOM      5  N   UNL     1       4.774   3.543  16.297  0.00  0.00    +0.000 NA
ATOM      6  C   UNL     1       5.024   4.705  15.722  0.00  0.00    +0.000 A 
ATOM      7  N   UNL     1       4.632   5.748  16.541  0.00  0.00    +0.000 N 
ATOM      8  C   UNL     1       4.100   5.200  17.677  0.00  0.00    +0.000 A 
ATOM      9  N   UNL     1       3.536   5.832  18.775  0.00  0.00    +0.000 N 
ATOM     10  C   UNL     1       2.904   4.985  19.710  0.00  0.00    +0.000 A 
ATOM     11  O   UNL     1       2.138   5.419  20.571  0.00  0.00    +0.000 OA
ATOM     12  H   UNL     1       4.715   6.730  16.319  0.00  0.00    +0.000 HD
ENDROOT
BRANCH   6  13
ATOM     13  C   UNL     1       5.669   4.910  14.389  0.00  0.00    +0.000 C 
ATOM     14  C   UNL     1       7.183   5.083  14.505  0.00  0.00    +0.000 C 
ATOM     15  C   UNL     1       7.699   4.802  13.101  0.00  0.00    +0.000 C 
ATOM     16  C   UNL     1       6.712   3.815  12.483  0.00  0.00    +0.000 C 
ATOM     17  C   UNL     1       5.547   3.695  13.465  0.00  0.00    +0.000 C 
ENDBRANCH   6  13
BRANCH   1  18
ATOM     18  C   UNL     1       2.703   2.783  20.743  0.00  0.00    +0.000 C 
BRANCH  18  20
ATOM     19  C   UNL     1       0.639   2.453  19.333  0.00  0.00    +0.000 C 
ATOM     20  C   UNL     1       1.183   2.621  20.743  0.00  0.00    +0.000 C 
ENDBRANCH  18  20
ENDBRANCH   1  18
BRANCH   9  21
ATOM     21  C   UNL     1       3.373   7.297  18.880  0.00  0.00    +0.000 C 
BRANCH  21  22
ATOM     22  C   UNL     1       2.232   7.900  18.039  0.00  0.00    +0.000 C 
BRANCH  22  23
ATOM     23  C   UNL     1       1.350   8.856  18.806  0.00  0.00    +0.000 A 
ATOM     24  C   UNL     1       1.267   8.780  20.200  0.00  0.00    +0.000 A 
ATOM     25  C   UNL     1       0.488   9.694  20.917  0.00  0.00    +0.000 A 
ATOM     26  C   UNL     1      -0.192  10.720  20.258  0.00  0.00    +0.000 A 
ATOM     27  C   UNL     1      -0.154  10.756  18.861  0.00  0.00    +0.000 A 
ATOM     28  C   UNL     1       0.623   9.847  18.138  0.00  0.00    +0.000 A 
BRANCH  26  29
ATOM     29  N   UNL     1      -1.073  11.549  20.961  0.00  0.00    +0.000 N 
ATOM     30  H   UNL     1      -0.754  11.783  21.896  0.00  0.00    +0.000 HD
ATOM     31  H   UNL     1      -1.363  12.371  20.439  0.00  0.00    +0.000 HD
ENDBRANCH  26  29
ENDBRANCH  22  23
ENDBRANCH  21  22
ENDBRANCH   9  21
TORSDOF 7
ENDMDL
MODEL 4
REMARK VINA RESULT:      -6.9      2.237      6.021
REMARK  Name = 
REMARK  8 active torsions:
REMARK  status: ('A' for Active; 'I' for Inactive)
REMARK    1  A    between atoms: C_1  and  C_2
REMARK    2  A    between atoms: C_2  and  C_3
REMARK    3  A    between atoms: C_3  and  N_4
REMARK    4  A    between atoms: C_9  and  C_10
REMARK    5  A    between atoms: N_17  and  C_18
REMARK    6  A    between atoms: C_18  and  C_19
REMARK    7  A    between atoms: C_19  and  C_20
REMARK    8  A    between atoms: C_23  and  N_24
REMARK                            x       y       z     vdW  Elec       q    Type
REMARK                         _______ _______ _______ _____ _____    ______ ____
ROOT
ATOM      1  N   UNL     1       3.065   4.083  19.759  0.00  0.00    +0.000 N 
ATOM      2  C   UNL     1       3.696   3.359  18.738  0.00  0.00    +0.000 A 
ATOM      3  O   UNL     1       3.841   2.138  18.752  0.00  0.00    +0.000 OA
ATOM      4  C   UNL     1       4.155   4.196  17.653  0.00  0.00    +0.000 A 
ATOM      5  N   UNL     1       4.789   3.825  16.495  0.00  0.00    +0.000 NA
ATOM      6  C   UNL     1       5.001   4.946  15.830  0.00  0.00    +0.000 A 
ATOM      7  N   UNL     1       4.525   6.031  16.543  0.00  0.00    +0.000 N 
ATOM      8  C   UNL     1       3.978   5.554  17.703  0.00  0.00    +0.000 A 
ATOM      9  N   UNL     1       3.341   6.244  18.723  0.00  0.00    +0.000 N 
ATOM     10  C   UNL     1       2.718   5.446  19.705  0.00  0.00    +0.000 A 
ATOM     11  O   UNL     1       1.898   5.910  20.499  0.00  0.00    +0.000 OA
ATOM     12  H   UNL     1       4.567   6.994  16.240  0.00  0.00    +0.000 HD
ENDROOT
BRANCH   6  13
ATOM     13  C   UNL     1       5.686   5.072  14.508  0.00  0.00    +0.000 C 
ATOM     14  C   UNL     1       7.208   5.044  14.644  0.00  0.00    +0.000 C 
ATOM     15  C   UNL     1       7.701   4.706  13.245  0.00  0.00    +0.000 C 
ATOM     16  C   UNL     1       6.602   3.861  12.608  0.00  0.00    +0.000 C 
ATOM     17  C   UNL     1       5.418   3.889  13.574  0.00  0.00    +0.000 C 
ENDBRANCH   6  13
BRANCH   1  18
ATOM     18  C   UNL     1       2.589   3.332  20.917  0.00  0.00    +0.000 C 
BRANCH  18  20
ATOM     19  C   UNL     1       0.639   2.593  19.499  0.00  0.00    +0.000 C 
ATOM     20  C   UNL     1       1.082   3.075  20.871  0.00  0.00    +0.000 C 
ENDBRANCH  18  20
ENDBRANCH   1  18
BRANCH   9  21
ATOM     21  C   UNL     1       3.100   7.702  18.695  0.00  0.00    +0.000 C 
BRANCH  21  22
ATOM     22  C   UNL     1       1.885   8.159  17.865  0.00  0.00    +0.000 C 
BRANCH  22  23
ATOM     23  C   UNL     1       0.986   9.135  18.586  0.00  0.00    +0.000 A 
ATOM     24  C   UNL     1       0.003   9.841  17.886  0.00  0.00    +0.000 A 
ATOM     25  C   UNL     1      -0.863  10.710  18.558  0.00  0.00    +0.000 A 
ATOM     26  C   UNL     1      -0.784  10.861  19.944  0.00  0.00    +0.000 A 
ATOM     27  C   UNL     1       0.239  10.200  20.631  0.00  0.00    +0.000 A 
ATOM     28  C   UNL     1       1.106   9.329  19.966  0.00  0.00    +0.000 A 
BRANCH  26  29
ATOM     29  N   UNL     1      -1.560  11.827  20.595  0.00  0.00    +0.000 N 
ATOM     30  H   UNL     1      -2.435  11.466  20.962  0.00  0.00    +0.000 HD
ATOM     31  H   UNL     1      -1.046  12.363  21.287  0.00  0.00    +0.000 HD
ENDBRANCH  26  29
ENDBRANCH  22  23
ENDBRANCH  21  22
ENDBRANCH   9  21
TORSDOF 7
ENDMDL
MODEL 5
REMARK VINA RESULT:      -6.8      2.246      6.043
REMARK  Name = 
REMARK  8 active torsions:
REMARK  status: ('A' for Active; 'I' for Inactive)
REMARK    1  A    between atoms: C_1  and  C_2
REMARK    2  A    between atoms: C_2  and  C_3
REMARK    3  A    between atoms: C_3  and  N_4
REMARK    4  A    between atoms: C_9  and  C_10
REMARK    5  A    between atoms: N_17  and  C_18
REMARK    6  A    between atoms: C_18  and  C_19
REMARK    7  A    between atoms: C_19  and  C_20
REMARK    8  A    between atoms: C_23  and  N_24
REMARK                            x       y       z     vdW  Elec       q    Type
REMARK                         _______ _______ _______ _____ _____    ______ ____
ROOT
ATOM      1  N   UNL     1       1.938   3.537  19.277  0.00  0.00    +0.000 N 
ATOM      2  C   UNL     1       2.583   2.708  18.348  0.00  0.00    +0.000 A 
ATOM      3  O   UNL     1       2.324   1.515  18.197  0.00  0.00    +0.000 OA
ATOM      4  C   UNL     1       3.585   3.403  17.572  0.00  0.00    +0.000 A 
ATOM      5  N   UNL     1       4.384   2.913  16.572  0.00  0.00    +0.000 NA
ATOM      6  C   UNL     1       5.128   3.930  16.179  0.00  0.00    +0.000 A 
ATOM      7  N   UNL     1       4.829   5.063  16.914  0.00  0.00    +0.000 N 
ATOM      8  C   UNL     1       3.839   4.730  17.798  0.00  0.00    +0.000 A 
ATOM      9  N   UNL     1       3.179   5.529  18.719  0.00  0.00    +0.000 N 
ATOM     10  C   UNL     1       2.071   4.936  19.361  0.00  0.00    +0.000 A 
ATOM     11  O   UNL     1       1.242   5.602  19.982  0.00  0.00    +0.000 OA
ATOM     12  H   UNL     1       5.261   5.968  16.796  0.00  0.00    +0.000 HD
ENDROOT
BRANCH   6  13
ATOM     13  C   UNL     1       6.180   3.898  15.118  0.00  0.00    +0.000 C 
ATOM     14  C   UNL     1       5.577   3.826  13.715  0.00  0.00    +0.000 C 
ATOM     15  C   UNL     1       6.708   4.272  12.800  0.00  0.00    +0.000 C 
ATOM     16  C   UNL     1       7.556   5.236  13.624  0.00  0.00    +0.000 C 
ATOM     17  C   UNL     1       7.013   5.180  15.052  0.00  0.00    +0.000 C 
ENDBRANCH   6  13
BRANCH   1  18
ATOM     18  C   UNL     1       0.926   2.923  20.132  0.00  0.00    +0.000 C 
BRANCH  18  20
ATOM     19  C   UNL     1       2.811   2.261  21.669  0.00  0.00    +0.000 C 
ATOM     20  C   UNL     1       1.388   2.787  21.583  0.00  0.00    +0.000 C 
ENDBRANCH  18  20
ENDBRANCH   1  18
BRANCH   9  21
ATOM     21  C   UNL     1       3.430   6.978  18.872  0.00  0.00    +0.000 C 
BRANCH  21  22
ATOM     22  C   UNL     1       2.649   7.892  17.909  0.00  0.00    +0.000 C 
BRANCH  22  23
ATOM     23  C   UNL     1       1.662   8.803  18.598  0.00  0.00    +0.000 A 
ATOM     24  C   UNL     1       0.851   9.664  17.851  0.00  0.00    +0.000 A 
ATOM     25  C   UNL     1      -0.097  10.474  18.483  0.00  0.00    +0.000 A 
ATOM     26  C   UNL     1      -0.278  10.412  19.866  0.00  0.00    +0.000 A 
ATOM     27  C   UNL     1       0.575   9.595  20.615  0.00  0.00    +0.000 A 
ATOM     28  C   UNL     1       1.524   8.782  19.990  0.00  0.00    +0.000 A 
BRANCH  26  29
ATOM     29  N   UNL     1      -1.132  11.316  20.508  0.00  0.00    +0.000 N 
ATOM     30  H   UNL     1      -0.701  12.213  20.707  0.00  0.00    +0.000 HD
ATOM     31  H   UNL     1      -2.034  11.417  20.054  0.00  0.00    +0.000 HD
ENDBRANCH  26  29
ENDBRANCH  22  23
ENDBRANCH  21  22
ENDBRANCH   9  21
TORSDOF 7
ENDMDL
MODEL 6
REMARK VINA RESULT:      -6.6      3.215      7.419
REMARK  Name = 
REMARK  8 active torsions:
REMARK  status: ('A' for Active; 'I' for Inactive)
REMARK    1  A    between atoms: C_1  and  C_2
REMARK    2  A    between atoms: C_2  and  C_3
REMARK    3  A    between atoms: C_3  and  N_4
REMARK    4  A    between atoms: C_9  and  C_10
REMARK    5  A    between atoms: N_17  and  C_18
REMARK    6  A    between atoms: C_18  and  C_19
REMARK    7  A    between atoms: C_19  and  C_20
REMARK    8  A    between atoms: C_23  and  N_24
REMARK                            x       y       z     vdW  Elec       q    Type
REMARK                         _______ _______ _______ _____ _____    ______ ____
ROOT
ATOM      1  N   UNL     1      -0.575  11.339  22.150  0.00  0.00    +0.000 N 
ATOM      2  C   UNL     1       0.075  10.183  22.607  0.00  0.00    +0.000 A 
ATOM      3  O   UNL     1       0.149   9.862  23.792  0.00  0.00    +0.000 OA
ATOM      4  C   UNL     1       0.643   9.395  21.538  0.00  0.00    +0.000 A 
ATOM      5  N   UNL     1       1.322   8.207  21.619  0.00  0.00    +0.000 NA
ATOM      6  C   UNL     1       1.636   7.890  20.376  0.00  0.00    +0.000 A 
ATOM      7  N   UNL     1       1.180   8.857  19.499  0.00  0.00    +0.000 N 
ATOM      8  C   UNL     1       0.540   9.814  20.238  0.00  0.00    +0.000 A 
ATOM      9  N   UNL     1      -0.116  10.959  19.812  0.00  0.00    +0.000 N 
ATOM     10  C   UNL     1      -0.841  11.653  20.804  0.00  0.00    +0.000 A 
ATOM     11  O   UNL     1      -1.679  12.510  20.521  0.00  0.00    +0.000 OA
ATOM     12  H   UNL     1       1.294   8.837  18.495  0.00  0.00    +0.000 HD
ENDROOT
BRANCH   6  13
ATOM     13  C   UNL     1       2.404   6.685  19.939  0.00  0.00    +0.000 C 
ATOM     14  C   UNL     1       1.779   5.389  20.456  0.00  0.00    +0.000 C 
ATOM     15  C   UNL     1       2.369   4.308  19.561  0.00  0.00    +0.000 C 
ATOM     16  C   UNL     1       2.643   4.982  18.219  0.00  0.00    +0.000 C 
ATOM     17  C   UNL     1       2.389   6.475  18.423  0.00  0.00    +0.000 C 
ENDBRANCH   6  13
BRANCH   1  18
ATOM     18  C   UNL     1      -1.160  12.220  23.156  0.00  0.00    +0.000 C 
BRANCH  18  20
ATOM     19  C   UNL     1      -3.506  13.081  23.489  0.00  0.00    +0.000 C 
ATOM     20  C   UNL     1      -2.608  11.856  23.485  0.00  0.00    +0.000 C 
ENDBRANCH  18  20
ENDBRANCH   1  18
BRANCH   9  21
ATOM     21  C   UNL     1      -0.273  11.330  18.390  0.00  0.00    +0.000 C 
BRANCH  21  22
ATOM     22  C   UNL     1      -1.134  10.371  17.545  0.00  0.00    +0.000 C 
BRANCH  22  23
ATOM     23  C   UNL     1      -2.560  10.832  17.364  0.00  0.00    +0.000 A 
ATOM     24  C   UNL     1      -3.341  11.168  18.475  0.00  0.00    +0.000 A 
ATOM     25  C   UNL     1      -4.647  11.640  18.308  0.00  0.00    +0.000 A 
ATOM     26  C   UNL     1      -5.182  11.818  17.031  0.00  0.00    +0.000 A 
ATOM     27  C   UNL     1      -4.420  11.424  15.927  0.00  0.00    +0.000 A 
ATOM     28  C   UNL     1      -3.114  10.953  16.085  0.00  0.00    +0.000 A 
BRANCH  26  29
ATOM     29  N   UNL     1      -6.529  12.163  16.870  0.00  0.00    +0.000 N 
ATOM     30  H   UNL     1      -6.683  12.890  16.179  0.00  0.00    +0.000 HD
ATOM     31  H   UNL     1      -7.140  11.364  16.729  0.00  0.00    +0.000 HD
ENDBRANCH  26  29
ENDBRANCH  22  23
ENDBRANCH  21  22
ENDBRANCH   9  21
TORSDOF 7
ENDMDL
MODEL 7
REMARK VINA RESULT:      -6.5      2.172      6.183
REMARK  Name = 
REMARK  8 active torsions:
REMARK  status: ('A' for Active; 'I' for Inactive)
REMARK    1  A    between atoms: C_1  and  C_2
REMARK    2  A    between atoms: C_2  and  C_3
REMARK    3  A    between atoms: C_3  and  N_4
REMARK    4  A    between atoms: C_9  and  C_10
REMARK    5  A    between atoms: N_17  and  C_18
REMARK    6  A    between atoms: C_18  and  C_19
REMARK    7  A    between atoms: C_19  and  C_20
REMARK    8  A    between atoms: C_23  and  N_24
REMARK                            x       y       z     vdW  Elec       q    Type
REMARK                         _______ _______ _______ _____ _____    ______ ____
ROOT
ATOM      1  N   UNL     1       2.834   4.501  20.391  0.00  0.00    +0.000 N 
ATOM      2  C   UNL     1       3.686   3.802  19.522  0.00  0.00    +0.000 A 
ATOM      3  O   UNL     1       4.086   2.658  19.729  0.00  0.00    +0.000 OA
ATOM      4  C   UNL     1       4.042   4.564  18.348  0.00  0.00    +0.000 A 
ATOM      5  N   UNL     1       4.830   4.188  17.291  0.00  0.00    +0.000 NA
ATOM      6  C   UNL     1       4.852   5.226  16.475  0.00  0.00    +0.000 A 
ATOM      7  N   UNL     1       4.100   6.265  16.992  0.00  0.00    +0.000 N 
ATOM      8  C   UNL     1       3.576   5.842  18.183  0.00  0.00    +0.000 A 
ATOM      9  N   UNL     1       2.727   6.506  19.055  0.00  0.00    +0.000 N 
ATOM     10  C   UNL     1       2.210   5.732  20.115  0.00  0.00    +0.000 A 
ATOM     11  O   UNL     1       1.250   6.105  20.789  0.00  0.00    +0.000 OA
ATOM     12  H   UNL     1       3.960   7.162  16.550  0.00  0.00    +0.000 HD
ENDROOT
BRANCH   6  13
ATOM     13  C   UNL     1       5.598   5.318  15.184  0.00  0.00    +0.000 C 
ATOM     14  C   UNL     1       7.103   5.132  15.376  0.00  0.00    +0.000 C 
ATOM     15  C   UNL     1       7.615   4.785  13.986  0.00  0.00    +0.000 C 
ATOM     16  C   UNL     1       6.463   4.075  13.281  0.00  0.00    +0.000 C 
ATOM     17  C   UNL     1       5.250   4.196  14.203  0.00  0.00    +0.000 C 
ENDBRANCH   6  13
BRANCH   1  18
ATOM     18  C   UNL     1       2.438   3.828  21.625  0.00  0.00    +0.000 C 
BRANCH  18  20
ATOM     19  C   UNL     1       0.624   2.904  20.137  0.00  0.00    +0.000 C 
ATOM     20  C   UNL     1       1.471   2.670  21.377  0.00  0.00    +0.000 C 
ENDBRANCH  18  20
ENDBRANCH   1  18
BRANCH   9  21
ATOM     21  C   UNL     1       2.184   7.856  18.795  0.00  0.00    +0.000 C 
BRANCH  21  22
ATOM     22  C   UNL     1       1.737   8.644  20.042  0.00  0.00    +0.000 C 
BRANCH  22  23
ATOM     23  C   UNL     1       0.628   9.632  19.774  0.00  0.00    +0.000 A 
ATOM     24  C   UNL     1       0.047  10.346  20.827  0.00  0.00    +0.000 A 
ATOM     25  C   UNL     1      -0.948  11.297  20.576  0.00  0.00    +0.000 A 
ATOM     26  C   UNL     1      -1.354  11.576  19.270  0.00  0.00    +0.000 A 
ATOM     27  C   UNL     1      -0.814  10.817  18.227  0.00  0.00    +0.000 A 
ATOM     28  C   UNL     1       0.182   9.867  18.469  0.00  0.00    +0.000 A 
BRANCH  26  29
ATOM     29  N   UNL     1      -2.438  12.428  19.033  0.00  0.00    +0.000 N 
ATOM     30  H   UNL     1      -2.809  12.859  19.874  0.00  0.00    +0.000 HD
ATOM     31  H   UNL     1      -2.269  13.108  18.298  0.00  0.00    +0.000 HD
ENDBRANCH  26  29
ENDBRANCH  22  23
ENDBRANCH  21  22
ENDBRANCH   9  21
TORSDOF 7
ENDMDL
MODEL 8
REMARK VINA RESULT:      -6.5      2.238      6.154
REMARK  Name = 
REMARK  8 active torsions:
REMARK  status: ('A' for Active; 'I' for Inactive)
REMARK    1  A    between atoms: C_1  and  C_2
REMARK    2  A    between atoms: C_2  and  C_3
REMARK    3  A    between atoms: C_3  and  N_4
REMARK    4  A    between atoms: C_9  and  C_10
REMARK    5  A    between atoms: N_17  and  C_18
REMARK    6  A    between atoms: C_18  and  C_19
REMARK    7  A    between atoms: C_19  and  C_20
REMARK    8  A    between atoms: C_23  and  N_24
REMARK                            x       y       z     vdW  Elec       q    Type
REMARK                         _______ _______ _______ _____ _____    ______ ____
ROOT
ATOM      1  N   UNL     1       3.109   4.079  19.918  0.00  0.00    +0.000 N 
ATOM      2  C   UNL     1       3.779   3.133  19.129  0.00  0.00    +0.000 A 
ATOM      3  O   UNL     1       3.833   1.933  19.397  0.00  0.00    +0.000 OA
ATOM      4  C   UNL     1       4.395   3.710  17.958  0.00  0.00    +0.000 A 
ATOM      5  N   UNL     1       5.105   3.081  16.967  0.00  0.00    +0.000 NA
ATOM      6  C   UNL     1       5.458   4.033  16.123  0.00  0.00    +0.000 A 
ATOM      7  N   UNL     1       4.997   5.263  16.556  0.00  0.00    +0.000 N 
ATOM      8  C   UNL     1       4.313   5.057  17.723  0.00  0.00    +0.000 A 
ATOM      9  N   UNL     1       3.635   5.971  18.516  0.00  0.00    +0.000 N 
ATOM     10  C   UNL     1       2.867   5.420  19.564  0.00  0.00    +0.000 A 
ATOM     11  O   UNL     1       2.012   6.075  20.161  0.00  0.00    +0.000 OA
ATOM     12  H   UNL     1       5.136   6.142  16.079  0.00  0.00    +0.000 HD
ENDROOT
BRANCH   6  13
ATOM     13  C   UNL     1       6.270   3.855  14.881  0.00  0.00    +0.000 C 
ATOM     14  C   UNL     1       5.392   3.687  13.641  0.00  0.00    +0.000 C 
ATOM     15  C   UNL     1       6.325   3.994  12.479  0.00  0.00    +0.000 C 
ATOM     16  C   UNL     1       7.351   4.987  13.019  0.00  0.00    +0.000 C 
ATOM     17  C   UNL     1       7.109   5.085  14.525  0.00  0.00    +0.000 C 
ENDBRANCH   6  13
BRANCH   1  18
ATOM     18  C   UNL     1       2.474   3.601  21.143  0.00  0.00    +0.000 C 
BRANCH  18  20
ATOM     19  C   UNL     1       0.704   3.079  19.426  0.00  0.00    +0.000 C 
ATOM     20  C   UNL     1       1.064   3.062  20.902  0.00  0.00    +0.000 C 
ENDBRANCH  18  20
ENDBRANCH   1  18
BRANCH   9  21
ATOM     21  C   UNL     1       3.503   7.404  18.180  0.00  0.00    +0.000 C 
BRANCH  21  22
ATOM     22  C   UNL     1       2.084   7.869  17.800  0.00  0.00    +0.000 C 
BRANCH  22  23
ATOM     23  C   UNL     1       1.687   9.186  18.421  0.00  0.00    +0.000 A 
ATOM     24  C   UNL     1       0.896   9.214  19.575  0.00  0.00    +0.000 A 
ATOM     25  C   UNL     1       0.566  10.431  20.180  0.00  0.00    +0.000 A 
ATOM     26  C   UNL     1       1.049  11.636  19.667  0.00  0.00    +0.000 A 
ATOM     27  C   UNL     1       1.788  11.607  18.480  0.00  0.00    +0.000 A 
ATOM     28  C   UNL     1       2.123  10.396  17.870  0.00  0.00    +0.000 A 
BRANCH  26  29
ATOM     29  N   UNL     1       0.610  12.856  20.194  0.00  0.00    +0.000 N 
ATOM     30  H   UNL     1       1.357  13.426  20.577  0.00  0.00    +0.000 HD
ATOM     31  H   UNL     1       0.012  13.381  19.563  0.00  0.00    +0.000 HD
ENDBRANCH  26  29
ENDBRANCH  22  23
ENDBRANCH  21  22
ENDBRANCH   9  21
TORSDOF 7
ENDMDL
MODEL 9
REMARK VINA RESULT:      -6.4      3.058      7.069
REMARK  Name = 
REMARK  8 active torsions:
REMARK  status: ('A' for Active; 'I' for Inactive)
REMARK    1  A    between atoms: C_1  and  C_2
REMARK    2  A    between atoms: C_2  and  C_3
REMARK    3  A    between atoms: C_3  and  N_4
REMARK    4  A    between atoms: C_9  and  C_10
REMARK    5  A    between atoms: N_17  and  C_18
REMARK    6  A    between atoms: C_18  and  C_19
REMARK    7  A    between atoms: C_19  and  C_20
REMARK    8  A    between atoms: C_23  and  N_24
REMARK                            x       y       z     vdW  Elec       q    Type
REMARK                         _______ _______ _______ _____ _____    ______ ____
ROOT
ATOM      1  N   UNL     1      -0.265  11.011  21.701  0.00  0.00    +0.000 N 
ATOM      2  C   UNL     1       0.504   9.935  22.169  0.00  0.00    +0.000 A 
ATOM      3  O   UNL     1       0.725   9.717  23.359  0.00  0.00    +0.000 OA
ATOM      4  C   UNL     1       1.007   9.097  21.106  0.00  0.00    +0.000 A 
ATOM      5  N   UNL     1       1.767   7.960  21.199  0.00  0.00    +0.000 NA
ATOM      6  C   UNL     1       1.968   7.563  19.956  0.00  0.00    +0.000 A 
ATOM      7  N   UNL     1       1.359   8.427  19.065  0.00  0.00    +0.000 N 
ATOM      8  C   UNL     1       0.739   9.402  19.797  0.00  0.00    +0.000 A 
ATOM      9  N   UNL     1      -0.033  10.469  19.362  0.00  0.00    +0.000 N 
ATOM     10  C   UNL     1      -0.693  11.199  20.374  0.00  0.00    +0.000 A 
ATOM     11  O   UNL     1      -1.611  11.980  20.122  0.00  0.00    +0.000 OA
ATOM     12  H   UNL     1       1.367   8.332  18.060  0.00  0.00    +0.000 HD
ENDROOT
BRANCH   6  13
ATOM     13  C   UNL     1       2.763   6.371  19.528  0.00  0.00    +0.000 C 
ATOM     14  C   UNL     1       1.911   5.104  19.470  0.00  0.00    +0.000 C 
ATOM     15  C   UNL     1       2.716   4.154  18.596  0.00  0.00    +0.000 C 
ATOM     16  C   UNL     1       3.505   5.038  17.634  0.00  0.00    +0.000 C 
ATOM     17  C   UNL     1       3.290   6.480  18.095  0.00  0.00    +0.000 C 
ENDBRANCH   6  13
BRANCH   1  18
ATOM     18  C   UNL     1      -0.798  11.936  22.698  0.00  0.00    +0.000 C 
BRANCH  18  20
ATOM     19  C   UNL     1      -3.129  12.569  23.420  0.00  0.00    +0.000 C 
ATOM     20  C   UNL     1      -2.109  11.447  23.312  0.00  0.00    +0.000 C 
ENDBRANCH  18  20
ENDBRANCH   1  18
BRANCH   9  21
ATOM     21  C   UNL     1      -0.364  10.713  17.943  0.00  0.00    +0.000 C 
BRANCH  21  22
ATOM     22  C   UNL     1      -1.433   9.782  17.340  0.00  0.00    +0.000 C 
BRANCH  22  23
ATOM     23  C   UNL     1      -2.814  10.390  17.290  0.00  0.00    +0.000 A 
ATOM     24  C   UNL     1      -3.181  11.225  16.229  0.00  0.00    +0.000 A 
ATOM     25  C   UNL     1      -4.474  11.753  16.155  0.00  0.00    +0.000 A 
ATOM     26  C   UNL     1      -5.432  11.428  17.117  0.00  0.00    +0.000 A 
ATOM     27  C   UNL     1      -5.043  10.642  18.207  0.00  0.00    +0.000 A 
ATOM     28  C   UNL     1      -3.754  10.110  18.287  0.00  0.00    +0.000 A 
BRANCH  26  29
ATOM     29  N   UNL     1      -6.680  12.059  17.114  0.00  0.00    +0.000 N 
ATOM     30  H   UNL     1      -6.643  13.033  16.830  0.00  0.00    +0.000 HD
ATOM     31  H   UNL     1      -7.397  11.542  16.613  0.00  0.00    +0.000 HD
ENDBRANCH  26  29
ENDBRANCH  22  23
ENDBRANCH  21  22
ENDBRANCH   9  21
TORSDOF 7
ENDMDL
