MODEL 1
REMARK VINA RESULT:      -7.1      0.000      0.000
REMARK  Name = 
REMARK  7 active torsions:
REMARK  status: ('A' for Active; 'I' for Inactive)
REMARK    1  A    between atoms: C_1  and  O_2
REMARK    2  A    between atoms: O_2  and  C_3
REMARK    3  A    between atoms: C_8  and  O_9
REMARK    4  A    between atoms: C_13  and  O_14
REMARK    5  A    between atoms: C_15  and  O_16
REMARK    6  A    between atoms: C_23  and  C_24
REMARK    7  A    between atoms: C_24  and  O_25
REMARK                            x       y       z     vdW  Elec       q    Type
REMARK                         _______ _______ _______ _____ _____    ______ ____
ROOT
ATOM      1  C   UNL     1       1.264   8.881  19.898  0.00  0.00    +0.000 A 
ATOM      2  C   UNL     1       1.874   7.781  20.505  0.00  0.00    +0.000 A 
ATOM      3  C   UNL     1       2.431   6.752  19.731  0.00  0.00    +0.000 A 
ATOM      4  C   UNL     1       2.572   6.901  18.345  0.00  0.00    +0.000 A 
ATOM      5  C   UNL     1       2.003   8.025  17.737  0.00  0.00    +0.000 A 
ATOM      6  C   UNL     1       1.301   8.968  18.505  0.00  0.00    +0.000 A 
ATOM      7  C   UNL     1       3.132   5.750  17.519  0.00  0.00    +0.000 C 
ATOM      8  C   UNL     1       4.624   5.458  17.702  0.00  0.00    +0.000 A 
ATOM      9  C   UNL     1       5.568   6.147  16.929  0.00  0.00    +0.000 A 
ATOM     10  C   UNL     1       6.910   5.789  17.023  0.00  0.00    +0.000 A 
ATOM     11  C   UNL     1       7.329   4.782  17.883  0.00  0.00    +0.000 A 
ATOM     12  C   UNL     1       6.422   4.082  18.659  0.00  0.00    +0.000 A 
ATOM     13  C   UNL     1       5.070   4.416  18.566  0.00  0.00    +0.000 A 
ATOM     14  C   UNL     1       4.092   3.657  19.396  0.00  0.00    +0.000 C 
ATOM     15  O   UNL     1       4.408   2.673  20.054  0.00  0.00    +0.000 OA
ATOM     16  C   UNL     1       2.693   4.236  19.436  0.00  0.00    +0.000 C 
ATOM     17  C   UNL     1       2.830   5.462  20.381  0.00  0.00    +0.000 C 
ATOM     18  C   UNL     1       2.374   4.477  17.935  0.00  0.00    +0.000 C 
ENDROOT
BRANCH   1  20
ATOM     19  C   UNL     1       0.692   9.362  22.168  0.00  0.00    +0.000 C 
ATOM     20  O   UNL     1       0.656   9.718  20.795  0.00  0.00    +0.000 OA
ENDBRANCH   1  20
BRANCH   6  21
ATOM     21  O   UNL     1       0.613   9.940  17.831  0.00  0.00    +0.000 OA
ATOM     22  H   UNL     1       1.030  10.794  18.034  0.00  0.00    +0.000 HD
ENDBRANCH   6  21
BRANCH  10  23
ATOM     23  O   UNL     1       7.869   6.411  16.263  0.00  0.00    +0.000 OA
ATOM     24  H   UNL     1       7.440   7.083  15.708  0.00  0.00    +0.000 HD
ENDBRANCH  10  23
BRANCH  11  25
ATOM     25  O   UNL     1       8.651   4.454  17.967  0.00  0.00    +0.000 OA
ATOM     26  H   UNL     1       9.033   4.706  17.102  0.00  0.00    +0.000 HD
ENDBRANCH  11  25
BRANCH  18  27
ATOM     27  C   UNL     1       0.909   4.469  17.508  0.00  0.00    +0.000 C 
BRANCH  27  28
ATOM     28  O   UNL     1       0.298   3.277  18.016  0.00  0.00    +0.000 OA
ATOM     29  H   UNL     1       0.922   2.845  18.622  0.00  0.00    +0.000 HD
ENDBRANCH  27  28
ENDBRANCH  18  27
TORSDOF 6
ENDMDL
MODEL 2
REMARK VINA RESULT:      -6.8      2.304      6.528
REMARK  Name = 
REMARK  7 active torsions:
REMARK  status: ('A' for Active; 'I' for Inactive)
REMARK    1  A    between atoms: C_1  and  O_2
REMARK    2  A    between atoms: O_2  and  C_3
REMARK    3  A    between atoms: C_8  and  O_9
REMARK    4  A    between atoms: C_13  and  O_14
REMARK    5  A    between atoms: C_15  and  O_16
REMARK    6  A    between atoms: C_23  and  C_24
REMARK    7  A    between atoms: C_24  and  O_25
REMARK                            x       y       z     vdW  Elec       q    Type
REMARK                         _______ _______ _______ _____ _____    ______ ____
ROOT
ATOM      1  C   UNL     1       6.194   3.963  14.271  0.00  0.00    +0.000 A 
ATOM      2  C   UNL     1       5.285   3.600  15.267  0.00  0.00    +0.000 A 
ATOM      3  C   UNL     1       5.124   4.391  16.414  0.00  0.00    +0.000 A 
ATOM      4  C   UNL     1       5.714   5.660  16.492  0.00  0.00    +0.000 A 
ATOM      5  C   UNL     1       6.590   6.047  15.473  0.00  0.00    +0.000 A 
ATOM      6  C   UNL     1       6.872   5.175  14.409  0.00  0.00    +0.000 A 
ATOM      7  C   UNL     1       5.567   6.478  17.767  0.00  0.00    +0.000 C 
ATOM      8  C   UNL     1       4.171   7.042  18.046  0.00  0.00    +0.000 A 
ATOM      9  C   UNL     1       3.799   8.279  17.503  0.00  0.00    +0.000 A 
ATOM     10  C   UNL     1       2.572   8.832  17.858  0.00  0.00    +0.000 A 
ATOM     11  C   UNL     1       1.705   8.171  18.720  0.00  0.00    +0.000 A 
ATOM     12  C   UNL     1       2.044   6.949  19.274  0.00  0.00    +0.000 A 
ATOM     13  C   UNL     1       3.277   6.386  18.941  0.00  0.00    +0.000 A 
ATOM     14  C   UNL     1       3.645   5.074  19.544  0.00  0.00    +0.000 C 
ATOM     15  O   UNL     1       2.971   4.535  20.414  0.00  0.00    +0.000 OA
ATOM     16  C   UNL     1       4.870   4.410  18.948  0.00  0.00    +0.000 C 
ATOM     17  C   UNL     1       4.361   3.857  17.588  0.00  0.00    +0.000 C 
ATOM     18  C   UNL     1       5.919   5.555  18.947  0.00  0.00    +0.000 C 
ENDROOT
BRANCH   1  20
ATOM     19  C   UNL     1       5.595   3.195  12.088  0.00  0.00    +0.000 C 
ATOM     20  O   UNL     1       6.324   3.013  13.293  0.00  0.00    +0.000 OA
ENDBRANCH   1  20
BRANCH   6  21
ATOM     21  O   UNL     1       7.873   5.537  13.550  0.00  0.00    +0.000 OA
ATOM     22  H   UNL     1       7.931   6.507  13.552  0.00  0.00    +0.000 HD
ENDBRANCH   6  21
BRANCH  10  23
ATOM     23  O   UNL     1       2.175  10.055  17.380  0.00  0.00    +0.000 OA
ATOM     24  H   UNL     1       1.347  10.309  17.819  0.00  0.00    +0.000 HD
ENDBRANCH  10  23
BRANCH  11  25
ATOM     25  O   UNL     1       0.503   8.726  19.047  0.00  0.00    +0.000 OA
ATOM     26  H   UNL     1       0.715   9.439  19.683  0.00  0.00    +0.000 HD
ENDBRANCH  11  25
BRANCH  18  27
ATOM     27  C   UNL     1       7.395   5.169  19.004  0.00  0.00    +0.000 C 
BRANCH  27  28
ATOM     28  O   UNL     1       7.882   5.448  20.322  0.00  0.00    +0.000 OA
ATOM     29  H   UNL     1       7.240   5.108  20.967  0.00  0.00    +0.000 HD
ENDBRANCH  27  28
ENDBRANCH  18  27
TORSDOF 6
ENDMDL
MODEL 3
REMARK VINA RESULT:      -6.7      3.853      8.721
REMARK  Name = 
REMARK  7 active torsions:
REMARK  status: ('A' for Active; 'I' for Inactive)
REMARK    1  A    between atoms: C_1  and  O_2
REMARK    2  A    between atoms: O_2  and  C_3
REMARK    3  A    between atoms: C_8  and  O_9
REMARK    4  A    between atoms: C_13  and  O_14
REMARK    5  A    between atoms: C_15  and  O_16
REMARK    6  A    between atoms: C_23  and  C_24
REMARK    7  A    between atoms: C_24  and  O_25
REMARK                            x       y       z     vdW  Elec       q    Type
REMARK                         _______ _______ _______ _____ _____    ______ ____
ROOT
ATOM      1  C   UNL     1       1.899   7.819  19.734  0.00  0.00    +0.000 A 
ATOM      2  C   UNL     1       0.927   8.518  20.453  0.00  0.00    +0.000 A 
ATOM      3  C   UNL     1       0.302   9.646  19.904  0.00  0.00    +0.000 A 
ATOM      4  C   UNL     1       0.484   9.975  18.554  0.00  0.00    +0.000 A 
ATOM      5  C   UNL     1       1.422   9.246  17.815  0.00  0.00    +0.000 A 
ATOM      6  C   UNL     1       2.166   8.223  18.425  0.00  0.00    +0.000 A 
ATOM      7  C   UNL     1      -0.165  11.233  17.993  0.00  0.00    +0.000 C 
ATOM      8  C   UNL     1      -1.688  11.191  17.841  0.00  0.00    +0.000 A 
ATOM      9  C   UNL     1      -2.258  10.673  16.670  0.00  0.00    +0.000 A 
ATOM     10  C   UNL     1      -3.637  10.749  16.499  0.00  0.00    +0.000 A 
ATOM     11  C   UNL     1      -4.456  11.305  17.473  0.00  0.00    +0.000 A 
ATOM     12  C   UNL     1      -3.925  11.826  18.640  0.00  0.00    +0.000 A 
ATOM     13  C   UNL     1      -2.542  11.774  18.823  0.00  0.00    +0.000 A 
ATOM     14  C   UNL     1      -1.969  12.342  20.076  0.00  0.00    +0.000 C 
ATOM     15  O   UNL     1      -2.644  12.965  20.887  0.00  0.00    +0.000 OA
ATOM     16  C   UNL     1      -0.507  12.025  20.319  0.00  0.00    +0.000 C 
ATOM     17  C   UNL     1      -0.526  10.541  20.777  0.00  0.00    +0.000 C 
ATOM     18  C   UNL     1       0.156  12.384  18.961  0.00  0.00    +0.000 C 
ENDROOT
BRANCH   1  20
ATOM     19  C   UNL     1       1.885   5.553  20.497  0.00  0.00    +0.000 C 
ATOM     20  O   UNL     1       2.501   6.832  20.468  0.00  0.00    +0.000 OA
ENDBRANCH   1  20
BRANCH   6  21
ATOM     21  O   UNL     1       3.193   7.678  17.704  0.00  0.00    +0.000 OA
ATOM     22  H   UNL     1       3.633   8.398  17.222  0.00  0.00    +0.000 HD
ENDBRANCH   6  21
BRANCH  10  23
ATOM     23  O   UNL     1      -4.239  10.286  15.356  0.00  0.00    +0.000 OA
ATOM     24  H   UNL     1      -4.886  10.945  15.055  0.00  0.00    +0.000 HD
ENDBRANCH  10  23
BRANCH  11  25
ATOM     25  O   UNL     1      -5.806  11.360  17.289  0.00  0.00    +0.000 OA
ATOM     26  H   UNL     1      -5.989  10.748  16.548  0.00  0.00    +0.000 HD
ENDBRANCH  11  25
BRANCH  18  27
ATOM     27  C   UNL     1       1.629  12.783  18.972  0.00  0.00    +0.000 C 
BRANCH  27  28
ATOM     28  O   UNL     1       2.074  12.898  17.616  0.00  0.00    +0.000 OA
ATOM     29  H   UNL     1       2.491  12.060  17.356  0.00  0.00    +0.000 HD
ENDBRANCH  27  28
ENDBRANCH  18  27
TORSDOF 6
ENDMDL
MODEL 4
REMARK VINA RESULT:      -6.3      3.832      6.581
REMARK  Name = 
REMARK  7 active torsions:
REMARK  status: ('A' for Active; 'I' for Inactive)
REMARK    1  A    between atoms: C_1  and  O_2
REMARK    2  A    between atoms: O_2  and  C_3
REMARK    3  A    between atoms: C_8  and  O_9
REMARK    4  A    between atoms: C_13  and  O_14
REMARK    5  A    between atoms: C_15  and  O_16
REMARK    6  A    between atoms: C_23  and  C_24
REMARK    7  A    between atoms: C_24  and  O_25
REMARK                            x       y       z     vdW  Elec       q    Type
REMARK                         _______ _______ _______ _____ _____    ______ ____
ROOT
ATOM      1  C   UNL     1       3.106  14.546  19.499  0.00  0.00    +0.000 A 
ATOM      2  C   UNL     1       2.567  13.763  20.522  0.00  0.00    +0.000 A 
ATOM      3  C   UNL     1       1.794  12.631  20.228  0.00  0.00    +0.000 A 
ATOM      4  C   UNL     1       1.716  12.143  18.917  0.00  0.00    +0.000 A 
ATOM      5  C   UNL     1       2.295  12.900  17.893  0.00  0.00    +0.000 A 
ATOM      6  C   UNL     1       2.925  14.121  18.182  0.00  0.00    +0.000 A 
ATOM      7  C   UNL     1       0.830  10.943  18.613  0.00  0.00    +0.000 C 
ATOM      8  C   UNL     1       1.319   9.595  19.151  0.00  0.00    +0.000 A 
ATOM      9  C   UNL     1       2.205   8.821  18.389  0.00  0.00    +0.000 A 
ATOM     10  C   UNL     1       2.549   7.550  18.837  0.00  0.00    +0.000 A 
ATOM     11  C   UNL     1       2.050   7.046  20.032  0.00  0.00    +0.000 A 
ATOM     12  C   UNL     1       1.173   7.784  20.807  0.00  0.00    +0.000 A 
ATOM     13  C   UNL     1       0.804   9.056  20.366  0.00  0.00    +0.000 A 
ATOM     14  C   UNL     1      -0.148   9.848  21.196  0.00  0.00    +0.000 C 
ATOM     15  O   UNL     1      -0.715   9.380  22.176  0.00  0.00    +0.000 OA
ATOM     16  C   UNL     1      -0.302  11.300  20.793  0.00  0.00    +0.000 C 
ATOM     17  C   UNL     1       1.001  11.965  21.313  0.00  0.00    +0.000 C 
ATOM     18  C   UNL     1      -0.540  11.210  19.260  0.00  0.00    +0.000 C 
ENDROOT
BRANCH   1  20
ATOM     19  C   UNL     1       5.123  15.663  20.128  0.00  0.00    +0.000 C 
ATOM     20  O   UNL     1       3.714  15.683  19.959  0.00  0.00    +0.000 OA
ENDBRANCH   1  20
BRANCH   6  21
ATOM     21  O   UNL     1       3.303  14.899  17.122  0.00  0.00    +0.000 OA
ATOM     22  H   UNL     1       2.613  15.568  16.981  0.00  0.00    +0.000 HD
ENDBRANCH   6  21
BRANCH  10  23
ATOM     23  O   UNL     1       3.387   6.740  18.112  0.00  0.00    +0.000 OA
ATOM     24  H   UNL     1       3.966   6.259  18.725  0.00  0.00    +0.000 HD
ENDBRANCH  10  23
BRANCH  11  25
ATOM     25  O   UNL     1       2.408   5.800  20.458  0.00  0.00    +0.000 OA
ATOM     26  H   UNL     1       1.568   5.306  20.539  0.00  0.00    +0.000 HD
ENDBRANCH  11  25
BRANCH  18  27
ATOM     27  C   UNL     1      -1.323  12.339  18.594  0.00  0.00    +0.000 C 
BRANCH  27  28
ATOM     28  O   UNL     1      -1.578  11.967  17.234  0.00  0.00    +0.000 OA
ATOM     29  H   UNL     1      -1.115  12.592  16.652  0.00  0.00    +0.000 HD
ENDBRANCH  27  28
ENDBRANCH  18  27
TORSDOF 6
ENDMDL
MODEL 5
REMARK VINA RESULT:      -6.3      5.766     11.441
REMARK  Name = 
REMARK  7 active torsions:
REMARK  status: ('A' for Active; 'I' for Inactive)
REMARK    1  A    between atoms: C_1  and  O_2
REMARK    2  A    between atoms: O_2  and  C_3
REMARK    3  A    between atoms: C_8  and  O_9
REMARK    4  A    between atoms: C_13  and  O_14
REMARK    5  A    between atoms: C_15  and  O_16
REMARK    6  A    between atoms: C_23  and  C_24
REMARK    7  A    between atoms: C_24  and  O_25
REMARK                            x       y       z     vdW  Elec       q    Type
REMARK                         _______ _______ _______ _____ _____    ______ ____
ROOT
ATOM      1  C   UNL     1      -0.144  10.273  20.188  0.00  0.00    +0.000 A 
ATOM      2  C   UNL     1      -0.484  10.650  21.489  0.00  0.00    +0.000 A 
ATOM      3  C   UNL     1      -1.410  11.678  21.720  0.00  0.00    +0.000 A 
ATOM      4  C   UNL     1      -2.164  12.207  20.664  0.00  0.00    +0.000 A 
ATOM      5  C   UNL     1      -1.859  11.797  19.362  0.00  0.00    +0.000 A 
ATOM      6  C   UNL     1      -0.814  10.889  19.129  0.00  0.00    +0.000 A 
ATOM      7  C   UNL     1      -3.126  13.357  20.930  0.00  0.00    +0.000 C 
ATOM      8  C   UNL     1      -4.382  13.008  21.734  0.00  0.00    +0.000 A 
ATOM      9  C   UNL     1      -5.522  12.533  21.073  0.00  0.00    +0.000 A 
ATOM     10  C   UNL     1      -6.691  12.332  21.801  0.00  0.00    +0.000 A 
ATOM     11  C   UNL     1      -6.739  12.570  23.169  0.00  0.00    +0.000 A 
ATOM     12  C   UNL     1      -5.631  13.040  23.851  0.00  0.00    +0.000 A 
ATOM     13  C   UNL     1      -4.454  13.263  23.135  0.00  0.00    +0.000 A 
ATOM     14  C   UNL     1      -3.262  13.778  23.867  0.00  0.00    +0.000 C 
ATOM     15  O   UNL     1      -3.311  14.132  25.039  0.00  0.00    +0.000 OA
ATOM     16  C   UNL     1      -1.964  13.754  23.086  0.00  0.00    +0.000 C 
ATOM     17  C   UNL     1      -1.559  12.254  23.096  0.00  0.00    +0.000 C 
ATOM     18  C   UNL     1      -2.359  14.417  21.739  0.00  0.00    +0.000 C 
ENDROOT
BRANCH   1  20
ATOM     19  C   UNL     1       1.060   8.518  21.276  0.00  0.00    +0.000 C 
ATOM     20  O   UNL     1       0.870   9.354  20.145  0.00  0.00    +0.000 OA
ENDBRANCH   1  20
BRANCH   6  21
ATOM     21  O   UNL     1      -0.446  10.674  17.830  0.00  0.00    +0.000 OA
ATOM     22  H   UNL     1      -0.364   9.715  17.698  0.00  0.00    +0.000 HD
ENDBRANCH   6  21
BRANCH  10  23
ATOM     23  O   UNL     1      -7.844  11.899  21.194  0.00  0.00    +0.000 OA
ATOM     24  H   UNL     1      -8.059  12.505  20.466  0.00  0.00    +0.000 HD
ENDBRANCH  10  23
BRANCH  11  25
ATOM     25  O   UNL     1      -7.892  12.356  23.866  0.00  0.00    +0.000 OA
ATOM     26  H   UNL     1      -8.499  11.924  23.231  0.00  0.00    +0.000 HD
ENDBRANCH  11  25
BRANCH  18  27
ATOM     27  C   UNL     1      -1.262  15.119  20.943  0.00  0.00    +0.000 C 
BRANCH  27  28
ATOM     28  O   UNL     1      -1.825  15.579  19.709  0.00  0.00    +0.000 OA
ATOM     29  H   UNL     1      -2.464  16.284  19.905  0.00  0.00    +0.000 HD
ENDBRANCH  27  28
ENDBRANCH  18  27
TORSDOF 6
ENDMDL
MODEL 6
REMARK VINA RESULT:      -6.1      4.747     10.239
REMARK  Name = 
REMARK  7 active torsions:
REMARK  status: ('A' for Active; 'I' for Inactive)
REMARK    1  A    between atoms: C_1  and  O_2
REMARK    2  A    between atoms: O_2  and  C_3
REMARK    3  A    between atoms: C_8  and  O_9
REMARK    4  A    between atoms: C_13  and  O_14
REMARK    5  A    between atoms: C_15  and  O_16
REMARK    6  A    between atoms: C_23  and  C_24
REMARK    7  A    between atoms: C_24  and  O_25
REMARK                            x       y       z     vdW  Elec       q    Type
REMARK                         _______ _______ _______ _____ _____    ______ ____
ROOT
ATOM      1  C   UNL     1       1.022   9.341  19.753  0.00  0.00    +0.000 A 
ATOM      2  C   UNL     1       0.369   9.635  20.952  0.00  0.00    +0.000 A 
ATOM      3  C   UNL     1      -0.421  10.787  21.075  0.00  0.00    +0.000 A 
ATOM      4  C   UNL     1      -0.739  11.556  19.947  0.00  0.00    +0.000 A 
ATOM      5  C   UNL     1      -0.124  11.236  18.732  0.00  0.00    +0.000 A 
ATOM      6  C   UNL     1       0.797  10.179  18.659  0.00  0.00    +0.000 A 
ATOM      7  C   UNL     1      -1.556  12.830  20.112  0.00  0.00    +0.000 C 
ATOM      8  C   UNL     1      -3.032  12.638  20.475  0.00  0.00    +0.000 A 
ATOM      9  C   UNL     1      -3.980  12.456  19.460  0.00  0.00    +0.000 A 
ATOM     10  C   UNL     1      -5.329  12.400  19.797  0.00  0.00    +0.000 A 
ATOM     11  C   UNL     1      -5.747  12.497  21.119  0.00  0.00    +0.000 A 
ATOM     12  C   UNL     1      -4.836  12.678  22.144  0.00  0.00    +0.000 A 
ATOM     13  C   UNL     1      -3.479  12.753  21.824  0.00  0.00    +0.000 A 
ATOM     14  C   UNL     1      -2.498  12.957  22.927  0.00  0.00    +0.000 C 
ATOM     15  O   UNL     1      -2.841  13.188  24.080  0.00  0.00    +0.000 OA
ATOM     16  C   UNL     1      -1.045  12.774  22.540  0.00  0.00    +0.000 C 
ATOM     17  C   UNL     1      -0.886  11.233  22.428  0.00  0.00    +0.000 C 
ATOM     18  C   UNL     1      -0.917  13.638  21.255  0.00  0.00    +0.000 C 
ENDROOT
BRANCH   1  20
ATOM     19  C   UNL     1       1.541   7.258  20.804  0.00  0.00    +0.000 C 
ATOM     20  O   UNL     1       1.856   8.259  19.849  0.00  0.00    +0.000 OA
ENDBRANCH   1  20
BRANCH   6  21
ATOM     21  O   UNL     1       1.500  10.038  17.494  0.00  0.00    +0.000 OA
ATOM     22  H   UNL     1       0.860   9.938  16.770  0.00  0.00    +0.000 HD
ENDBRANCH   6  21
BRANCH  10  23
ATOM     23  O   UNL     1      -6.299  12.256  18.837  0.00  0.00    +0.000 OA
ATOM     24  H   UNL     1      -6.795  13.088  18.767  0.00  0.00    +0.000 HD
ENDBRANCH  10  23
BRANCH  11  25
ATOM     25  O   UNL     1      -7.074  12.429  21.429  0.00  0.00    +0.000 OA
ATOM     26  H   UNL     1      -7.530  12.289  20.574  0.00  0.00    +0.000 HD
ENDBRANCH  11  25
BRANCH  18  27
ATOM     27  C   UNL     1       0.458  14.204  20.911  0.00  0.00    +0.000 C 
BRANCH  27  28
ATOM     28  O   UNL     1       1.286  14.114  22.077  0.00  0.00    +0.000 OA
ATOM     29  H   UNL     1       1.364  13.179  22.328  0.00  0.00    +0.000 HD
ENDBRANCH  27  28
ENDBRANCH  18  27
TORSDOF 6
ENDMDL
MODEL 7
REMARK VINA RESULT:      -6.0      5.988      9.101
REMARK  Name = 
REMARK  7 active torsions:
REMARK  status: ('A' for Active; 'I' for Inactive)
REMARK    1  A    between atoms: C_1  and  O_2
REMARK    2  A    between atoms: O_2  and  C_3
REMARK    3  A    between atoms: C_8  and  O_9
REMARK    4  A    between atoms: C_13  and  O_14
REMARK    5  A    between atoms: C_15  and  O_16
REMARK    6  A    between atoms: C_23  and  C_24
REMARK    7  A    between atoms: C_24  and  O_25
REMARK                            x       y       z     vdW  Elec       q    Type
REMARK                         _______ _______ _______ _____ _____    ______ ____
ROOT
ATOM      1  C   UNL     1      -5.330  12.180  18.814  0.00  0.00    +0.000 A 
ATOM      2  C   UNL     1      -4.120  11.774  18.245  0.00  0.00    +0.000 A 
ATOM      3  C   UNL     1      -2.903  12.023  18.895  0.00  0.00    +0.000 A 
ATOM      4  C   UNL     1      -2.883  12.495  20.215  0.00  0.00    +0.000 A 
ATOM      5  C   UNL     1      -4.098  12.858  20.806  0.00  0.00    +0.000 A 
ATOM      6  C   UNL     1      -5.297  12.760  20.083  0.00  0.00    +0.000 A 
ATOM      7  C   UNL     1      -1.551  12.806  20.881  0.00  0.00    +0.000 C 
ATOM      8  C   UNL     1      -0.679  11.597  21.235  0.00  0.00    +0.000 A 
ATOM      9  C   UNL     1      -0.859  10.944  22.462  0.00  0.00    +0.000 A 
ATOM     10  C   UNL     1       0.015   9.923  22.818  0.00  0.00    +0.000 A 
ATOM     11  C   UNL     1       1.044   9.525  21.974  0.00  0.00    +0.000 A 
ATOM     12  C   UNL     1       1.249  10.151  20.756  0.00  0.00    +0.000 A 
ATOM     13  C   UNL     1       0.392  11.189  20.388  0.00  0.00    +0.000 A 
ATOM     14  C   UNL     1       0.618  11.868  19.081  0.00  0.00    +0.000 C 
ATOM     15  O   UNL     1       1.597  11.640  18.380  0.00  0.00    +0.000 OA
ATOM     16  C   UNL     1      -0.491  12.800  18.637  0.00  0.00    +0.000 C 
ATOM     17  C   UNL     1      -1.611  11.836  18.158  0.00  0.00    +0.000 C 
ATOM     18  C   UNL     1      -0.738  13.669  19.900  0.00  0.00    +0.000 C 
ENDROOT
BRANCH   1  20
ATOM     19  C   UNL     1      -6.776  13.038  17.117  0.00  0.00    +0.000 C 
ATOM     20  O   UNL     1      -6.403  11.982  17.988  0.00  0.00    +0.000 OA
ENDBRANCH   1  20
BRANCH   6  21
ATOM     21  O   UNL     1      -6.418  13.304  20.649  0.00  0.00    +0.000 OA
ATOM     22  H   UNL     1      -6.628  12.789  21.447  0.00  0.00    +0.000 HD
ENDBRANCH   6  21
BRANCH  10  23
ATOM     23  O   UNL     1      -0.098   9.274  24.023  0.00  0.00    +0.000 OA
ATOM     24  H   UNL     1      -1.033   9.060  24.175  0.00  0.00    +0.000 HD
ENDBRANCH  10  23
BRANCH  11  25
ATOM     25  O   UNL     1       1.884   8.514  22.338  0.00  0.00    +0.000 OA
ATOM     26  H   UNL     1       2.785   8.853  22.160  0.00  0.00    +0.000 HD
ENDBRANCH  11  25
BRANCH  18  27
ATOM     27  C   UNL     1      -1.310  15.071  19.700  0.00  0.00    +0.000 C 
BRANCH  27  28
ATOM     28  O   UNL     1      -0.695  15.645  18.540  0.00  0.00    +0.000 OA
ATOM     29  H   UNL     1       0.120  15.154  18.348  0.00  0.00    +0.000 HD
ENDBRANCH  27  28
ENDBRANCH  18  27
TORSDOF 6
ENDMDL
MODEL 8
REMARK VINA RESULT:      -6.0      5.113     10.327
REMARK  Name = 
REMARK  7 active torsions:
REMARK  status: ('A' for Active; 'I' for Inactive)
REMARK    1  A    between atoms: C_1  and  O_2
REMARK    2  A    between atoms: O_2  and  C_3
REMARK    3  A    between atoms: C_8  and  O_9
REMARK    4  A    between atoms: C_13  and  O_14
REMARK    5  A    between atoms: C_15  and  O_16
REMARK    6  A    between atoms: C_23  and  C_24
REMARK    7  A    between atoms: C_24  and  O_25
REMARK                            x       y       z     vdW  Elec       q    Type
REMARK                         _______ _______ _______ _____ _____    ______ ____
ROOT
ATOM      1  C   UNL     1       0.857   9.496  19.798  0.00  0.00    +0.000 A 
ATOM      2  C   UNL     1       0.076   9.931  20.870  0.00  0.00    +0.000 A 
ATOM      3  C   UNL     1      -0.857  10.965  20.705  0.00  0.00    +0.000 A 
ATOM      4  C   UNL     1      -1.172  11.442  19.426  0.00  0.00    +0.000 A 
ATOM      5  C   UNL     1      -0.423  10.974  18.341  0.00  0.00    +0.000 A 
ATOM      6  C   UNL     1       0.623  10.059  18.542  0.00  0.00    +0.000 A 
ATOM      7  C   UNL     1      -2.149  12.600  19.276  0.00  0.00    +0.000 C 
ATOM      8  C   UNL     1      -3.615  12.285  19.587  0.00  0.00    +0.000 A 
ATOM      9  C   UNL     1      -4.447  11.776  18.581  0.00  0.00    +0.000 A 
ATOM     10  C   UNL     1      -5.802  11.604  18.846  0.00  0.00    +0.000 A 
ATOM     11  C   UNL     1      -6.337  11.905  20.092  0.00  0.00    +0.000 A 
ATOM     12  C   UNL     1      -5.543  12.410  21.107  0.00  0.00    +0.000 A 
ATOM     13  C   UNL     1      -4.184  12.604  20.855  0.00  0.00    +0.000 A 
ATOM     14  C   UNL     1      -3.330  13.156  21.944  0.00  0.00    +0.000 C 
ATOM     15  O   UNL     1      -3.793  13.563  23.003  0.00  0.00    +0.000 OA
ATOM     16  C   UNL     1      -1.838  13.100  21.687  0.00  0.00    +0.000 C 
ATOM     17  C   UNL     1      -1.484  11.604  21.908  0.00  0.00    +0.000 C 
ATOM     18  C   UNL     1      -1.711  13.699  20.259  0.00  0.00    +0.000 C 
ENDROOT
BRANCH   1  20
ATOM     19  C   UNL     1       1.397   7.479  20.962  0.00  0.00    +0.000 C 
ATOM     20  O   UNL     1       1.806   8.579  20.164  0.00  0.00    +0.000 OA
ENDBRANCH   1  20
BRANCH   6  21
ATOM     21  O   UNL     1       1.432   9.786  17.474  0.00  0.00    +0.000 OA
ATOM     22  H   UNL     1       2.310  10.160  17.661  0.00  0.00    +0.000 HD
ENDBRANCH   6  21
BRANCH  10  23
ATOM     23  O   UNL     1      -6.664  11.140  17.884  0.00  0.00    +0.000 OA
ATOM     24  H   UNL     1      -6.964  11.891  17.345  0.00  0.00    +0.000 HD
ENDBRANCH  10  23
BRANCH  11  25
ATOM     25  O   UNL     1      -7.666  11.719  20.335  0.00  0.00    +0.000 OA
ATOM     26  H   UNL     1      -7.824  12.114  21.216  0.00  0.00    +0.000 HD
ENDBRANCH  11  25
BRANCH  18  27
ATOM     27  C   UNL     1      -0.391  14.368  19.883  0.00  0.00    +0.000 C 
BRANCH  27  28
ATOM     28  O   UNL     1      -0.515  14.890  18.555  0.00  0.00    +0.000 OA
ATOM     29  H   UNL     1       0.375  15.070  18.210  0.00  0.00    +0.000 HD
ENDBRANCH  27  28
ENDBRANCH  18  27
TORSDOF 6
ENDMDL
MODEL 9
REMARK VINA RESULT:      -6.0      6.547      8.266
REMARK  Name = 
REMARK  7 active torsions:
REMARK  status: ('A' for Active; 'I' for Inactive)
REMARK    1  A    between atoms: C_1  and  O_2
REMARK    2  A    between atoms: O_2  and  C_3
REMARK    3  A    between atoms: C_8  and  O_9
REMARK    4  A    between atoms: C_13  and  O_14
REMARK    5  A    between atoms: C_15  and  O_16
REMARK    6  A    between atoms: C_23  and  C_24
REMARK    7  A    between atoms: C_24  and  O_25
REMARK                            x       y       z     vdW  Elec       q    Type
REMARK                         _______ _______ _______ _____ _____    ______ ____
ROOT
ATOM      1  C   UNL     1      -3.547  11.000  17.419  0.00  0.00    +0.000 A 
ATOM      2  C   UNL     1      -3.314  11.862  18.491  0.00  0.00    +0.000 A 
ATOM      3  C   UNL     1      -2.086  11.852  19.167  0.00  0.00    +0.000 A 
ATOM      4  C   UNL     1      -0.999  11.128  18.657  0.00  0.00    +0.000 A 
ATOM      5  C   UNL     1      -1.216  10.298  17.553  0.00  0.00    +0.000 A 
ATOM      6  C   UNL     1      -2.496  10.190  16.986  0.00  0.00    +0.000 A 
ATOM      7  C   UNL     1       0.309  11.091  19.435  0.00  0.00    +0.000 C 
ATOM      8  C   UNL     1       1.111  12.395  19.463  0.00  0.00    +0.000 A 
ATOM      9  C   UNL     1       2.018  12.677  18.432  0.00  0.00    +0.000 A 
ATOM     10  C   UNL     1       2.822  13.808  18.530  0.00  0.00    +0.000 A 
ATOM     11  C   UNL     1       2.725  14.671  19.615  0.00  0.00    +0.000 A 
ATOM     12  C   UNL     1       1.841  14.420  20.649  0.00  0.00    +0.000 A 
ATOM     13  C   UNL     1       1.037  13.282  20.576  0.00  0.00    +0.000 A 
ATOM     14  C   UNL     1       0.090  13.007  21.694  0.00  0.00    +0.000 C 
ATOM     15  O   UNL     1       0.080  13.666  22.727  0.00  0.00    +0.000 OA
ATOM     16  C   UNL     1      -0.919  11.908  21.430  0.00  0.00    +0.000 C 
ATOM     17  C   UNL     1      -1.945  12.575  20.473  0.00  0.00    +0.000 C 
ATOM     18  C   UNL     1      -0.035  10.749  20.895  0.00  0.00    +0.000 C 
ENDROOT
BRANCH   1  20
ATOM     19  C   UNL     1      -5.663  12.112  17.409  0.00  0.00    +0.000 C 
ATOM     20  O   UNL     1      -4.838  11.045  16.965  0.00  0.00    +0.000 OA
ENDBRANCH   1  20
BRANCH   6  21
ATOM     21  O   UNL     1      -2.681   9.226  16.033  0.00  0.00    +0.000 OA
ATOM     22  H   UNL     1      -3.230   9.606  15.328  0.00  0.00    +0.000 HD
ENDBRANCH   6  21
BRANCH  10  23
ATOM     23  O   UNL     1       3.749  14.111  17.564  0.00  0.00    +0.000 OA
ATOM     24  H   UNL     1       3.795  15.076  17.466  0.00  0.00    +0.000 HD
ENDBRANCH  10  23
BRANCH  11  25
ATOM     25  O   UNL     1       3.516  15.780  19.687  0.00  0.00    +0.000 OA
ATOM     26  H   UNL     1       3.226  16.350  18.946  0.00  0.00    +0.000 HD
ENDBRANCH  11  25
BRANCH  18  27
ATOM     27  C   UNL     1      -0.542   9.321  21.086  0.00  0.00    +0.000 C 
BRANCH  27  28
ATOM     28  O   UNL     1      -0.526   9.022  22.487  0.00  0.00    +0.000 OA
ATOM     29  H   UNL     1       0.395   9.030  22.794  0.00  0.00    +0.000 HD
ENDBRANCH  27  28
ENDBRANCH  18  27
TORSDOF 6
ENDMDL
