MODEL 1
REMARK VINA RESULT:      -8.0      0.000      0.000
REMARK  Name = 
REMARK  5 active torsions:
REMARK  status: ('A' for Active; 'I' for Inactive)
REMARK    1  A    between atoms: C_1  and  O_2
REMARK    2  A    between atoms: O_2  and  C_3
REMARK    3  A    between atoms: C_10  and  C_12
REMARK    4  A    between atoms: C_12  and  S_13
REMARK    5  A    between atoms: S_13  and  C_14
REMARK                            x       y       z     vdW  Elec       q    Type
REMARK                         _______ _______ _______ _____ _____    ______ ____
ROOT
ATOM      1  C   UNL     1       0.620  10.756  19.738  0.00  0.00    +0.000 A 
ATOM      2  C   UNL     1       1.194  10.709  18.469  0.00  0.00    +0.000 A 
ATOM      3  C   UNL     1       1.855   9.552  18.027  0.00  0.00    +0.000 A 
ATOM      4  C   UNL     1       1.937   8.422  18.865  0.00  0.00    +0.000 A 
ATOM      5  N   UNL     1       2.551   7.218  18.563  0.00  0.00    +0.000 NA
ATOM      6  C   UNL     1       2.376   6.376  19.554  0.00  0.00    +0.000 A 
ATOM      7  N   UNL     1       2.857   5.091  19.497  0.00  0.00    +0.000 N 
ATOM      8  C   UNL     1       2.487   4.047  20.319  0.00  0.00    +0.000 C 
ATOM      9  O   UNL     1       1.668   4.087  21.235  0.00  0.00    +0.000 OA
ATOM     10  S   UNL     1       1.578   6.988  20.926  0.00  0.00    +0.000 S 
ATOM     11  C   UNL     1       1.348   8.490  20.128  0.00  0.00    +0.000 A 
ATOM     12  C   UNL     1       0.692   9.643  20.582  0.00  0.00    +0.000 A 
ATOM     13  H   UNL     1       3.338   4.879  18.627  0.00  0.00    +0.000 HD
ENDROOT
BRANCH   1  15
ATOM     14  C   UNL     1      -0.573  11.661  21.589  0.00  0.00    +0.000 C 
ATOM     15  O   UNL     1      -0.044  11.823  20.280  0.00  0.00    +0.000 OA
ENDBRANCH   1  15
BRANCH   8  16
ATOM     16  C   UNL     1       3.187   2.742  19.979  0.00  0.00    +0.000 C 
BRANCH  16  17
ATOM     17  S   UNL     1       3.710   2.721  18.247  0.00  0.00    +0.000 S 
BRANCH  17  18
ATOM     18  C   UNL     1       4.902   3.986  18.234  0.00  0.00    +0.000 A 
ATOM     19  N   UNL     1       5.881   4.085  19.121  0.00  0.00    +0.000 NA
ATOM     20  C   UNL     1       6.566   5.208  18.719  0.00  0.00    +0.000 A 
ATOM     21  C   UNL     1       7.716   5.827  19.226  0.00  0.00    +0.000 A 
ATOM     22  C   UNL     1       8.172   6.998  18.596  0.00  0.00    +0.000 A 
ATOM     23  C   UNL     1       7.497   7.537  17.493  0.00  0.00    +0.000 A 
ATOM     24  C   UNL     1       6.353   6.925  16.970  0.00  0.00    +0.000 A 
ATOM     25  C   UNL     1       5.942   5.768  17.617  0.00  0.00    +0.000 A 
ATOM     26  O   UNL     1       4.879   4.982  17.297  0.00  0.00    +0.000 OA
ENDBRANCH  17  18
ENDBRANCH  16  17
ENDBRANCH   8  16
TORSDOF 4
ENDMDL
MODEL 2
REMARK VINA RESULT:      -7.7      5.043      7.512
REMARK  Name = 
REMARK  5 active torsions:
REMARK  status: ('A' for Active; 'I' for Inactive)
REMARK    1  A    between atoms: C_1  and  O_2
REMARK    2  A    between atoms: O_2  and  C_3
REMARK    3  A    between atoms: C_10  and  C_12
REMARK    4  A    between atoms: C_12  and  S_13
REMARK    5  A    between atoms: S_13  and  C_14
REMARK                            x       y       z     vdW  Elec       q    Type
REMARK                         _______ _______ _______ _____ _____    ______ ____
ROOT
ATOM      1  C   UNL     1       9.943  14.086  18.162  0.00  0.00    +0.000 A 
ATOM      2  C   UNL     1      10.651  13.780  19.322  0.00  0.00    +0.000 A 
ATOM      3  C   UNL     1      10.566  12.502  19.895  0.00  0.00    +0.000 A 
ATOM      4  C   UNL     1       9.766  11.511  19.293  0.00  0.00    +0.000 A 
ATOM      5  N   UNL     1       9.589  10.212  19.741  0.00  0.00    +0.000 NA
ATOM      6  C   UNL     1       8.827   9.557  18.898  0.00  0.00    +0.000 A 
ATOM      7  N   UNL     1       8.522   8.231  19.088  0.00  0.00    +0.000 N 
ATOM      8  C   UNL     1       7.998   7.374  18.143  0.00  0.00    +0.000 C 
ATOM      9  O   UNL     1       7.718   7.647  16.977  0.00  0.00    +0.000 OA
ATOM     10  S   UNL     1       8.196  10.458  17.600  0.00  0.00    +0.000 S 
ATOM     11  C   UNL     1       9.072  11.837  18.127  0.00  0.00    +0.000 A 
ATOM     12  C   UNL     1       9.144  13.114  17.551  0.00  0.00    +0.000 A 
ATOM     13  H   UNL     1       8.947   7.835  19.922  0.00  0.00    +0.000 HD
ENDROOT
BRANCH   1  15
ATOM     14  C   UNL     1      10.785  16.309  18.041  0.00  0.00    +0.000 C 
ATOM     15  O   UNL     1       9.943  15.292  17.515  0.00  0.00    +0.000 OA
ENDBRANCH   1  15
BRANCH   8  16
ATOM     16  C   UNL     1       7.798   5.961  18.664  0.00  0.00    +0.000 C 
BRANCH  16  17
ATOM     17  S   UNL     1       7.232   4.859  17.344  0.00  0.00    +0.000 S 
BRANCH  17  18
ATOM     18  C   UNL     1       5.627   4.471  17.888  0.00  0.00    +0.000 A 
ATOM     19  N   UNL     1       4.535   4.676  17.167  0.00  0.00    +0.000 NA
ATOM     20  C   UNL     1       3.524   4.219  17.980  0.00  0.00    +0.000 A 
ATOM     21  C   UNL     1       2.139   4.135  17.783  0.00  0.00    +0.000 A 
ATOM     22  C   UNL     1       1.349   3.628  18.830  0.00  0.00    +0.000 A 
ATOM     23  C   UNL     1       1.926   3.221  20.040  0.00  0.00    +0.000 A 
ATOM     24  C   UNL     1       3.308   3.290  20.248  0.00  0.00    +0.000 A 
ATOM     25  C   UNL     1       4.050   3.788  19.186  0.00  0.00    +0.000 A 
ATOM     26  O   UNL     1       5.400   3.941  19.128  0.00  0.00    +0.000 OA
ENDBRANCH  17  18
ENDBRANCH  16  17
ENDBRANCH   8  16
TORSDOF 4
ENDMDL
MODEL 3
REMARK VINA RESULT:      -7.7      1.112      1.217
REMARK  Name = 
REMARK  5 active torsions:
REMARK  status: ('A' for Active; 'I' for Inactive)
REMARK    1  A    between atoms: C_1  and  O_2
REMARK    2  A    between atoms: O_2  and  C_3
REMARK    3  A    between atoms: C_10  and  C_12
REMARK    4  A    between atoms: C_12  and  S_13
REMARK    5  A    between atoms: S_13  and  C_14
REMARK                            x       y       z     vdW  Elec       q    Type
REMARK                         _______ _______ _______ _____ _____    ______ ____
ROOT
ATOM      1  C   UNL     1       0.714  11.291  20.835  0.00  0.00    +0.000 A 
ATOM      2  C   UNL     1       0.862  11.687  19.507  0.00  0.00    +0.000 A 
ATOM      3  C   UNL     1       1.234  10.758  18.522  0.00  0.00    +0.000 A 
ATOM      4  C   UNL     1       1.455   9.411  18.870  0.00  0.00    +0.000 A 
ATOM      5  N   UNL     1       1.821   8.388  18.010  0.00  0.00    +0.000 NA
ATOM      6  C   UNL     1       1.875   7.257  18.672  0.00  0.00    +0.000 A 
ATOM      7  N   UNL     1       2.182   6.074  18.046  0.00  0.00    +0.000 N 
ATOM      8  C   UNL     1       1.979   4.808  18.554  0.00  0.00    +0.000 C 
ATOM      9  O   UNL     1       1.489   4.524  19.646  0.00  0.00    +0.000 OA
ATOM     10  S   UNL     1       1.604   7.354  20.349  0.00  0.00    +0.000 S 
ATOM     11  C   UNL     1       1.293   9.036  20.205  0.00  0.00    +0.000 A 
ATOM     12  C   UNL     1       0.929   9.958  21.197  0.00  0.00    +0.000 A 
ATOM     13  H   UNL     1       2.348   6.177  17.048  0.00  0.00    +0.000 HD
ENDROOT
BRANCH   1  15
ATOM     14  C   UNL     1       0.313  13.500  21.628  0.00  0.00    +0.000 C 
ATOM     15  O   UNL     1       0.360  12.102  21.879  0.00  0.00    +0.000 OA
ENDBRANCH   1  15
BRANCH   8  16
ATOM     16  C   UNL     1       2.405   3.705  17.600  0.00  0.00    +0.000 C 
BRANCH  16  17
ATOM     17  S   UNL     1       3.866   2.839  18.223  0.00  0.00    +0.000 S 
BRANCH  17  18
ATOM     18  C   UNL     1       5.043   4.117  18.231  0.00  0.00    +0.000 A 
ATOM     19  N   UNL     1       6.017   4.217  19.123  0.00  0.00    +0.000 NA
ATOM     20  C   UNL     1       6.691   5.352  18.737  0.00  0.00    +0.000 A 
ATOM     21  C   UNL     1       7.832   5.979  19.257  0.00  0.00    +0.000 A 
ATOM     22  C   UNL     1       8.278   7.162  18.642  0.00  0.00    +0.000 A 
ATOM     23  C   UNL     1       7.601   7.707  17.542  0.00  0.00    +0.000 A 
ATOM     24  C   UNL     1       6.466   7.088  17.007  0.00  0.00    +0.000 A 
ATOM     25  C   UNL     1       6.066   5.918  17.639  0.00  0.00    +0.000 A 
ATOM     26  O   UNL     1       5.013   5.124  17.305  0.00  0.00    +0.000 OA
ENDBRANCH  17  18
ENDBRANCH  16  17
ENDBRANCH   8  16
TORSDOF 4
ENDMDL
MODEL 4
REMARK VINA RESULT:      -7.7      1.987      4.139
REMARK  Name = 
REMARK  5 active torsions:
REMARK  status: ('A' for Active; 'I' for Inactive)
REMARK    1  A    between atoms: C_1  and  O_2
REMARK    2  A    between atoms: O_2  and  C_3
REMARK    3  A    between atoms: C_10  and  C_12
REMARK    4  A    between atoms: C_12  and  S_13
REMARK    5  A    between atoms: S_13  and  C_14
REMARK                            x       y       z     vdW  Elec       q    Type
REMARK                         _______ _______ _______ _____ _____    ______ ____
ROOT
ATOM      1  C   UNL     1      -0.148  10.162  20.182  0.00  0.00    +0.000 A 
ATOM      2  C   UNL     1       0.082   9.362  21.300  0.00  0.00    +0.000 A 
ATOM      3  C   UNL     1       0.985   8.290  21.238  0.00  0.00    +0.000 A 
ATOM      4  C   UNL     1       1.676   8.018  20.040  0.00  0.00    +0.000 A 
ATOM      5  N   UNL     1       2.594   7.002  19.833  0.00  0.00    +0.000 NA
ATOM      6  C   UNL     1       3.080   7.091  18.618  0.00  0.00    +0.000 A 
ATOM      7  N   UNL     1       4.041   6.221  18.164  0.00  0.00    +0.000 N 
ATOM      8  C   UNL     1       4.829   6.391  17.046  0.00  0.00    +0.000 C 
ATOM      9  O   UNL     1       4.809   7.345  16.270  0.00  0.00    +0.000 OA
ATOM     10  S   UNL     1       2.408   8.300  17.628  0.00  0.00    +0.000 S 
ATOM     11  C   UNL     1       1.436   8.836  18.936  0.00  0.00    +0.000 A 
ATOM     12  C   UNL     1       0.529   9.906  18.986  0.00  0.00    +0.000 A 
ATOM     13  H   UNL     1       4.323   5.534  18.859  0.00  0.00    +0.000 HD
ENDROOT
BRANCH   1  15
ATOM     14  C   UNL     1      -0.786  12.289  21.040  0.00  0.00    +0.000 C 
ATOM     15  O   UNL     1      -1.004  11.228  20.120  0.00  0.00    +0.000 OA
ENDBRANCH   1  15
BRANCH   8  16
ATOM     16  C   UNL     1       5.816   5.255  16.831  0.00  0.00    +0.000 C 
BRANCH  16  17
ATOM     17  S   UNL     1       4.956   3.731  16.369  0.00  0.00    +0.000 S 
BRANCH  17  18
ATOM     18  C   UNL     1       3.982   3.448  17.781  0.00  0.00    +0.000 A 
ATOM     19  N   UNL     1       4.475   3.081  18.954  0.00  0.00    +0.000 NA
ATOM     20  C   UNL     1       3.361   2.987  19.755  0.00  0.00    +0.000 A 
ATOM     21  C   UNL     1       3.214   2.669  21.112  0.00  0.00    +0.000 A 
ATOM     22  C   UNL     1       1.916   2.636  21.650  0.00  0.00    +0.000 A 
ATOM     23  C   UNL     1       0.795   2.910  20.854  0.00  0.00    +0.000 A 
ATOM     24  C   UNL     1       0.926   3.238  19.500  0.00  0.00    +0.000 A 
ATOM     25  C   UNL     1       2.226   3.267  19.013  0.00  0.00    +0.000 A 
ATOM     26  O   UNL     1       2.621   3.571  17.747  0.00  0.00    +0.000 OA
ENDBRANCH  17  18
ENDBRANCH  16  17
ENDBRANCH   8  16
TORSDOF 4
ENDMDL
MODEL 5
REMARK VINA RESULT:      -7.6      4.850      7.471
REMARK  Name = 
REMARK  5 active torsions:
REMARK  status: ('A' for Active; 'I' for Inactive)
REMARK    1  A    between atoms: C_1  and  O_2
REMARK    2  A    between atoms: O_2  and  C_3
REMARK    3  A    between atoms: C_10  and  C_12
REMARK    4  A    between atoms: C_12  and  S_13
REMARK    5  A    between atoms: S_13  and  C_14
REMARK                            x       y       z     vdW  Elec       q    Type
REMARK                         _______ _______ _______ _____ _____    ______ ____
ROOT
ATOM      1  C   UNL     1      10.115  13.830  18.344  0.00  0.00    +0.000 A 
ATOM      2  C   UNL     1      10.815  13.464  19.492  0.00  0.00    +0.000 A 
ATOM      3  C   UNL     1      10.696  12.169  20.019  0.00  0.00    +0.000 A 
ATOM      4  C   UNL     1       9.868  11.223  19.384  0.00  0.00    +0.000 A 
ATOM      5  N   UNL     1       9.656   9.914  19.785  0.00  0.00    +0.000 NA
ATOM      6  C   UNL     1       8.876   9.310  18.920  0.00  0.00    +0.000 A 
ATOM      7  N   UNL     1       8.535   7.987  19.063  0.00  0.00    +0.000 N 
ATOM      8  C   UNL     1       7.987   7.179  18.090  0.00  0.00    +0.000 C 
ATOM      9  O   UNL     1       7.715   7.501  16.934  0.00  0.00    +0.000 OA
ATOM     10  S   UNL     1       8.270  10.274  17.656  0.00  0.00    +0.000 S 
ATOM     11  C   UNL     1       9.183  11.609  18.231  0.00  0.00    +0.000 A 
ATOM     12  C   UNL     1       9.290  12.903  17.700  0.00  0.00    +0.000 A 
ATOM     13  H   UNL     1       8.949   7.551  19.883  0.00  0.00    +0.000 HD
ENDROOT
BRANCH   1  15
ATOM     14  C   UNL     1      11.300  15.370  16.968  0.00  0.00    +0.000 C 
ATOM     15  O   UNL     1      10.149  15.058  17.740  0.00  0.00    +0.000 OA
ENDBRANCH   1  15
BRANCH   8  16
ATOM     16  C   UNL     1       7.748   5.754  18.561  0.00  0.00    +0.000 C 
BRANCH  16  17
ATOM     17  S   UNL     1       6.644   4.876  17.428  0.00  0.00    +0.000 S 
BRANCH  17  18
ATOM     18  C   UNL     1       5.198   4.757  18.385  0.00  0.00    +0.000 A 
ATOM     19  N   UNL     1       4.802   3.647  18.988  0.00  0.00    +0.000 NA
ATOM     20  C   UNL     1       3.640   4.022  19.620  0.00  0.00    +0.000 A 
ATOM     21  C   UNL     1       2.758   3.310  20.446  0.00  0.00    +0.000 A 
ATOM     22  C   UNL     1       1.622   3.977  20.935  0.00  0.00    +0.000 A 
ATOM     23  C   UNL     1       1.371   5.316  20.608  0.00  0.00    +0.000 A 
ATOM     24  C   UNL     1       2.246   6.043  19.792  0.00  0.00    +0.000 A 
ATOM     25  C   UNL     1       3.359   5.348  19.338  0.00  0.00    +0.000 A 
ATOM     26  O   UNL     1       4.361   5.826  18.552  0.00  0.00    +0.000 OA
ENDBRANCH  17  18
ENDBRANCH  16  17
ENDBRANCH   8  16
TORSDOF 4
ENDMDL
MODEL 6
REMARK VINA RESULT:      -7.6      2.073      4.306
REMARK  Name = 
REMARK  5 active torsions:
REMARK  status: ('A' for Active; 'I' for Inactive)
REMARK    1  A    between atoms: C_1  and  O_2
REMARK    2  A    between atoms: O_2  and  C_3
REMARK    3  A    between atoms: C_10  and  C_12
REMARK    4  A    between atoms: C_12  and  S_13
REMARK    5  A    between atoms: S_13  and  C_14
REMARK                            x       y       z     vdW  Elec       q    Type
REMARK                         _______ _______ _______ _____ _____    ______ ____
ROOT
ATOM      1  C   UNL     1       0.108   9.963  20.095  0.00  0.00    +0.000 A 
ATOM      2  C   UNL     1       0.281   9.102  21.178  0.00  0.00    +0.000 A 
ATOM      3  C   UNL     1       1.173   8.022  21.096  0.00  0.00    +0.000 A 
ATOM      4  C   UNL     1       1.910   7.803  19.916  0.00  0.00    +0.000 A 
ATOM      5  N   UNL     1       2.824   6.786  19.693  0.00  0.00    +0.000 NA
ATOM      6  C   UNL     1       3.362   6.932  18.506  0.00  0.00    +0.000 A 
ATOM      7  N   UNL     1       4.330   6.072  18.047  0.00  0.00    +0.000 N 
ATOM      8  C   UNL     1       5.167   6.290  16.973  0.00  0.00    +0.000 C 
ATOM      9  O   UNL     1       5.192   7.284  16.249  0.00  0.00    +0.000 OA
ATOM     10  S   UNL     1       2.747   8.201  17.554  0.00  0.00    +0.000 S 
ATOM     11  C   UNL     1       1.727   8.682  18.848  0.00  0.00    +0.000 A 
ATOM     12  C   UNL     1       0.833   9.760  18.916  0.00  0.00    +0.000 A 
ATOM     13  H   UNL     1       4.573   5.346  18.715  0.00  0.00    +0.000 HD
ENDROOT
BRANCH   1  15
ATOM     14  C   UNL     1      -0.214  12.244  19.497  0.00  0.00    +0.000 C 
ATOM     15  O   UNL     1      -0.731  11.044  20.054  0.00  0.00    +0.000 OA
ENDBRANCH   1  15
BRANCH   8  16
ATOM     16  C   UNL     1       6.147   5.153  16.740  0.00  0.00    +0.000 C 
BRANCH  16  17
ATOM     17  S   UNL     1       5.296   3.682  16.117  0.00  0.00    +0.000 S 
BRANCH  17  18
ATOM     18  C   UNL     1       4.120   3.413  17.368  0.00  0.00    +0.000 A 
ATOM     19  N   UNL     1       2.811   3.454  17.171  0.00  0.00    +0.000 NA
ATOM     20  C   UNL     1       2.290   3.178  18.413  0.00  0.00    +0.000 A 
ATOM     21  C   UNL     1       0.968   3.048  18.860  0.00  0.00    +0.000 A 
ATOM     22  C   UNL     1       0.751   2.774  20.222  0.00  0.00    +0.000 A 
ATOM     23  C   UNL     1       1.824   2.638  21.113  0.00  0.00    +0.000 A 
ATOM     24  C   UNL     1       3.149   2.756  20.681  0.00  0.00    +0.000 A 
ATOM     25  C   UNL     1       3.318   3.018  19.328  0.00  0.00    +0.000 A 
ATOM     26  O   UNL     1       4.494   3.160  18.659  0.00  0.00    +0.000 OA
ENDBRANCH  17  18
ENDBRANCH  16  17
ENDBRANCH   8  16
TORSDOF 4
ENDMDL
MODEL 7
REMARK VINA RESULT:      -7.6      3.004      3.856
REMARK  Name = 
REMARK  5 active torsions:
REMARK  status: ('A' for Active; 'I' for Inactive)
REMARK    1  A    between atoms: C_1  and  O_2
REMARK    2  A    between atoms: O_2  and  C_3
REMARK    3  A    between atoms: C_10  and  C_12
REMARK    4  A    between atoms: C_12  and  S_13
REMARK    5  A    between atoms: S_13  and  C_14
REMARK                            x       y       z     vdW  Elec       q    Type
REMARK                         _______ _______ _______ _____ _____    ______ ____
ROOT
ATOM      1  C   UNL     1      -0.717  11.531  19.987  0.00  0.00    +0.000 A 
ATOM      2  C   UNL     1      -0.616  11.007  21.275  0.00  0.00    +0.000 A 
ATOM      3  C   UNL     1       0.135   9.846  21.516  0.00  0.00    +0.000 A 
ATOM      4  C   UNL     1       0.802   9.203  20.455  0.00  0.00    +0.000 A 
ATOM      5  N   UNL     1       1.578   8.058  20.543  0.00  0.00    +0.000 NA
ATOM      6  C   UNL     1       2.091   7.785  19.367  0.00  0.00    +0.000 A 
ATOM      7  N   UNL     1       2.933   6.715  19.184  0.00  0.00    +0.000 N 
ATOM      8  C   UNL     1       3.755   6.505  18.097  0.00  0.00    +0.000 C 
ATOM      9  O   UNL     1       3.877   7.235  17.115  0.00  0.00    +0.000 OA
ATOM     10  S   UNL     1       1.606   8.790  18.084  0.00  0.00    +0.000 S 
ATOM     11  C   UNL     1       0.693   9.750  19.175  0.00  0.00    +0.000 A 
ATOM     12  C   UNL     1      -0.061  10.905  18.922  0.00  0.00    +0.000 A 
ATOM     13  H   UNL     1       3.108   6.189  20.036  0.00  0.00    +0.000 HD
ENDROOT
BRANCH   1  15
ATOM     14  C   UNL     1      -2.608  12.929  20.356  0.00  0.00    +0.000 C 
ATOM     15  O   UNL     1      -1.419  12.649  19.628  0.00  0.00    +0.000 OA
ENDBRANCH   1  15
BRANCH   8  16
ATOM     16  C   UNL     1       4.582   5.235  18.210  0.00  0.00    +0.000 C 
BRANCH  16  17
ATOM     17  S   UNL     1       6.335   5.577  17.917  0.00  0.00    +0.000 S 
BRANCH  17  18
ATOM     18  C   UNL     1       6.491   5.146  16.241  0.00  0.00    +0.000 A 
ATOM     19  N   UNL     1       7.449   5.604  15.449  0.00  0.00    +0.000 NA
ATOM     20  C   UNL     1       7.184   4.999  14.242  0.00  0.00    +0.000 A 
ATOM     21  C   UNL     1       7.848   5.052  13.009  0.00  0.00    +0.000 A 
ATOM     22  C   UNL     1       7.312   4.322  11.934  0.00  0.00    +0.000 A 
ATOM     23  C   UNL     1       6.144   3.563  12.085  0.00  0.00    +0.000 A 
ATOM     24  C   UNL     1       5.475   3.493  13.312  0.00  0.00    +0.000 A 
ATOM     25  C   UNL     1       6.043   4.222  14.348  0.00  0.00    +0.000 A 
ATOM     26  O   UNL     1       5.600   4.307  15.631  0.00  0.00    +0.000 OA
ENDBRANCH  17  18
ENDBRANCH  16  17
ENDBRANCH   8  16
TORSDOF 4
ENDMDL
MODEL 8
REMARK VINA RESULT:      -7.6      1.159      1.545
REMARK  Name = 
REMARK  5 active torsions:
REMARK  status: ('A' for Active; 'I' for Inactive)
REMARK    1  A    between atoms: C_1  and  O_2
REMARK    2  A    between atoms: O_2  and  C_3
REMARK    3  A    between atoms: C_10  and  C_12
REMARK    4  A    between atoms: C_12  and  S_13
REMARK    5  A    between atoms: S_13  and  C_14
REMARK                            x       y       z     vdW  Elec       q    Type
REMARK                         _______ _______ _______ _____ _____    ______ ____
ROOT
ATOM      1  C   UNL     1       0.793  11.166  20.880  0.00  0.00    +0.000 A 
ATOM      2  C   UNL     1       1.149  11.493  19.573  0.00  0.00    +0.000 A 
ATOM      3  C   UNL     1       1.578  10.500  18.679  0.00  0.00    +0.000 A 
ATOM      4  C   UNL     1       1.645   9.156  19.097  0.00  0.00    +0.000 A 
ATOM      5  N   UNL     1       2.045   8.074  18.329  0.00  0.00    +0.000 NA
ATOM      6  C   UNL     1       1.921   6.971  19.028  0.00  0.00    +0.000 A 
ATOM      7  N   UNL     1       2.218   5.744  18.487  0.00  0.00    +0.000 N 
ATOM      8  C   UNL     1       1.851   4.518  19.003  0.00  0.00    +0.000 C 
ATOM      9  O   UNL     1       1.198   4.316  20.025  0.00  0.00    +0.000 OA
ATOM     10  S   UNL     1       1.434   7.158  20.646  0.00  0.00    +0.000 S 
ATOM     11  C   UNL     1       1.276   8.850  20.407  0.00  0.00    +0.000 A 
ATOM     12  C   UNL     1       0.853   9.837  21.310  0.00  0.00    +0.000 A 
ATOM     13  H   UNL     1       2.525   5.793  17.519  0.00  0.00    +0.000 HD
ENDROOT
BRANCH   1  15
ATOM     14  C   UNL     1       0.203  13.401  21.450  0.00  0.00    +0.000 C 
ATOM     15  O   UNL     1       0.364  12.043  21.839  0.00  0.00    +0.000 OA
ENDBRANCH   1  15
BRANCH   8  16
ATOM     16  C   UNL     1       2.316   3.349  18.152  0.00  0.00    +0.000 C 
BRANCH  16  17
ATOM     17  S   UNL     1       3.862   2.658  18.790  0.00  0.00    +0.000 S 
BRANCH  17  18
ATOM     18  C   UNL     1       4.962   3.976  18.519  0.00  0.00    +0.000 A 
ATOM     19  N   UNL     1       4.872   4.812  17.495  0.00  0.00    +0.000 NA
ATOM     20  C   UNL     1       5.923   5.676  17.694  0.00  0.00    +0.000 A 
ATOM     21  C   UNL     1       6.353   6.799  16.973  0.00  0.00    +0.000 A 
ATOM     22  C   UNL     1       7.497   7.480  17.425  0.00  0.00    +0.000 A 
ATOM     23  C   UNL     1       8.194   7.050  18.562  0.00  0.00    +0.000 A 
ATOM     24  C   UNL     1       7.772   5.936  19.297  0.00  0.00    +0.000 A 
ATOM     25  C   UNL     1       6.634   5.299  18.820  0.00  0.00    +0.000 A 
ATOM     26  O   UNL     1       6.015   4.214  19.358  0.00  0.00    +0.000 OA
ENDBRANCH  17  18
ENDBRANCH  16  17
ENDBRANCH   8  16
TORSDOF 4
ENDMDL
MODEL 9
REMARK VINA RESULT:      -7.4      2.804      3.310
REMARK  Name = 
REMARK  5 active torsions:
REMARK  status: ('A' for Active; 'I' for Inactive)
REMARK    1  A    between atoms: C_1  and  O_2
REMARK    2  A    between atoms: O_2  and  C_3
REMARK    3  A    between atoms: C_10  and  C_12
REMARK    4  A    between atoms: C_12  and  S_13
REMARK    5  A    between atoms: S_13  and  C_14
REMARK                            x       y       z     vdW  Elec       q    Type
REMARK                         _______ _______ _______ _____ _____    ______ ____
ROOT
ATOM      1  C   UNL     1      -0.347  10.676  21.058  0.00  0.00    +0.000 A 
ATOM      2  C   UNL     1      -0.103  11.201  19.790  0.00  0.00    +0.000 A 
ATOM      3  C   UNL     1       0.721  10.520  18.881  0.00  0.00    +0.000 A 
ATOM      4  C   UNL     1       1.304   9.289  19.242  0.00  0.00    +0.000 A 
ATOM      5  N   UNL     1       2.131   8.507  18.452  0.00  0.00    +0.000 NA
ATOM      6  C   UNL     1       2.433   7.402  19.092  0.00  0.00    +0.000 A 
ATOM      7  N   UNL     1       3.215   6.432  18.517  0.00  0.00    +0.000 N 
ATOM      8  C   UNL     1       3.350   5.131  18.955  0.00  0.00    +0.000 C 
ATOM      9  O   UNL     1       2.794   4.620  19.926  0.00  0.00    +0.000 OA
ATOM     10  S   UNL     1       1.851   7.276  20.686  0.00  0.00    +0.000 S 
ATOM     11  C   UNL     1       1.039   8.778  20.513  0.00  0.00    +0.000 A 
ATOM     12  C   UNL     1       0.223   9.455  21.432  0.00  0.00    +0.000 A 
ATOM     13  H   UNL     1       3.513   6.661  17.572  0.00  0.00    +0.000 HD
ENDROOT
BRANCH   1  15
ATOM     14  C   UNL     1      -2.039  12.254  21.615  0.00  0.00    +0.000 C 
ATOM     15  O   UNL     1      -1.126  11.247  22.028  0.00  0.00    +0.000 OA
ENDBRANCH   1  15
BRANCH   8  16
ATOM     16  C   UNL     1       4.275   4.299  18.082  0.00  0.00    +0.000 C 
BRANCH  16  17
ATOM     17  S   UNL     1       5.899   5.083  17.931  0.00  0.00    +0.000 S 
BRANCH  17  18
ATOM     18  C   UNL     1       6.236   4.848  16.242  0.00  0.00    +0.000 A 
ATOM     19  N   UNL     1       7.189   5.490  15.584  0.00  0.00    +0.000 NA
ATOM     20  C   UNL     1       7.094   4.986  14.308  0.00  0.00    +0.000 A 
ATOM     21  C   UNL     1       7.840   5.241  13.149  0.00  0.00    +0.000 A 
ATOM     22  C   UNL     1       7.481   4.569  11.968  0.00  0.00    +0.000 A 
ATOM     23  C   UNL     1       6.406   3.671  11.943  0.00  0.00    +0.000 A 
ATOM     24  C   UNL     1       5.657   3.400  13.094  0.00  0.00    +0.000 A 
ATOM     25  C   UNL     1       6.051   4.078  14.239  0.00  0.00    +0.000 A 
ATOM     26  O   UNL     1       5.503   3.980  15.480  0.00  0.00    +0.000 OA
ENDBRANCH  17  18
ENDBRANCH  16  17
ENDBRANCH   8  16
TORSDOF 4
ENDMDL
