MODEL 1
REMARK VINA RESULT:      -8.4      0.000      0.000
REMARK  Name = 
REMARK  14 active torsions:
REMARK  status: ('A' for Active; 'I' for Inactive)
REMARK    1  A    between atoms: C_1  and  N_2
REMARK    2  A    between atoms: C_3  and  N_4
REMARK    3  A    between atoms: C_9  and  C_10
REMARK    4  A    between atoms: N_14  and  N_15
REMARK    5  A    between atoms: C_16  and  C_17
REMARK    6  A    between atoms: C_19  and  C_20
REMARK    7  A    between atoms: C_20  and  C_21
REMARK    8  A    between atoms: C_20  and  C_22
REMARK    9  A    between atoms: C_20  and  C_23
REMARK   10  A    between atoms: C_24  and  O_25
REMARK   11  A    between atoms: C_26  and  C_27
REMARK   12  A    between atoms: C_27  and  C_28
REMARK   13  A    between atoms: C_27  and  C_29
REMARK   14  A    between atoms: C_27  and  C_30
REMARK                            x       y       z     vdW  Elec       q    Type
REMARK                         _______ _______ _______ _____ _____    ______ ____
ROOT
ATOM      1  N   UNL     1       2.006   8.848  17.519  0.00  0.00    +0.000 NA
ATOM      2  C   UNL     1       2.890   8.013  17.051  0.00  0.00    +0.000 C 
ENDROOT
BRANCH   1   7
ATOM      3  C   UNL     1      -0.383  11.101  20.910  0.00  0.00    +0.000 A 
ATOM      4  N   UNL     1       0.156  11.812  19.944  0.00  0.00    +0.000 NA
ATOM      5  N   UNL     1       0.936  11.051  19.102  0.00  0.00    +0.000 NA
ATOM      6  C   UNL     1       1.017   9.791  19.481  0.00  0.00    +0.000 A 
ATOM      7  N   UNL     1       1.660   8.784  18.835  0.00  0.00    +0.000 N 
ATOM      8  S   UNL     1       0.134   9.466  20.929  0.00  0.00    +0.000 S 
ATOM      9  H   UNL     1       1.796   7.917  19.347  0.00  0.00    +0.000 HD
BRANCH   3  15
ATOM     10  C   UNL     1      -3.015  12.413  20.181  0.00  0.00    +0.000 C 
ATOM     11  N   UNL     1      -2.534  12.251  21.535  0.00  0.00    +0.000 N 
ATOM     12  C   UNL     1      -3.111  12.622  22.725  0.00  0.00    +0.000 A 
ATOM     13  C   UNL     1      -2.259  12.200  23.715  0.00  0.00    +0.000 A 
ATOM     14  N   UNL     1      -1.155  11.602  23.172  0.00  0.00    +0.000 NA
ATOM     15  C   UNL     1      -1.322  11.642  21.859  0.00  0.00    +0.000 A 
BRANCH  12  16
ATOM     16  N   UNL     1      -4.346  13.308  22.910  0.00  0.00    +0.000 N 
ATOM     17  O   UNL     1      -4.385  14.521  22.692  0.00  0.00    +0.000 OA
ATOM     18  O   UNL     1      -5.296  12.619  23.298  0.00  0.00    +0.000 OA
ENDBRANCH  12  16
ENDBRANCH   3  15
ENDBRANCH   1   7
BRANCH   2  19
ATOM     19  C   UNL     1       3.551   6.873  17.727  0.00  0.00    +0.000 A 
ATOM     20  C   UNL     1       4.936   6.815  17.879  0.00  0.00    +0.000 A 
ATOM     21  C   UNL     1       5.581   5.671  18.378  0.00  0.00    +0.000 A 
ATOM     22  C   UNL     1       4.734   4.642  18.859  0.00  0.00    +0.000 A 
ATOM     23  C   UNL     1       3.313   4.723  18.852  0.00  0.00    +0.000 A 
ATOM     24  C   UNL     1       2.747   5.859  18.248  0.00  0.00    +0.000 A 
BRANCH  21  25
ATOM     25  C   UNL     1       7.132   5.648  18.416  0.00  0.00    +0.000 C 
ATOM     26  C   UNL     1       7.642   6.966  17.803  0.00  0.00    +0.000 C 
ATOM     27  C   UNL     1       7.737   5.472  19.826  0.00  0.00    +0.000 C 
ATOM     28  C   UNL     1       7.736   4.483  17.584  0.00  0.00    +0.000 C 
ENDBRANCH  21  25
BRANCH  23  29
ATOM     29  C   UNL     1       2.418   3.647  19.522  0.00  0.00    +0.000 C 
ATOM     30  C   UNL     1       2.099   2.512  18.518  0.00  0.00    +0.000 C 
ATOM     31  C   UNL     1       3.096   2.957  20.736  0.00  0.00    +0.000 C 
ATOM     32  C   UNL     1       1.098   4.248  20.052  0.00  0.00    +0.000 C 
ENDBRANCH  23  29
BRANCH  22  33
ATOM     33  O   UNL     1       5.275   3.499  19.367  0.00  0.00    +0.000 OA
ATOM     34  H   UNL     1       6.140   3.390  18.938  0.00  0.00    +0.000 HD
ENDBRANCH  22  33
ENDBRANCH   2  19
TORSDOF 7
ENDMDL
MODEL 2
REMARK VINA RESULT:      -8.3      0.164      1.093
REMARK  Name = 
REMARK  14 active torsions:
REMARK  status: ('A' for Active; 'I' for Inactive)
REMARK    1  A    between atoms: C_1  and  N_2
REMARK    2  A    between atoms: C_3  and  N_4
REMARK    3  A    between atoms: C_9  and  C_10
REMARK    4  A    between atoms: N_14  and  N_15
REMARK    5  A    between atoms: C_16  and  C_17
REMARK    6  A    between atoms: C_19  and  C_20
REMARK    7  A    between atoms: C_20  and  C_21
REMARK    8  A    between atoms: C_20  and  C_22
REMARK    9  A    between atoms: C_20  and  C_23
REMARK   10  A    between atoms: C_24  and  O_25
REMARK   11  A    between atoms: C_26  and  C_27
REMARK   12  A    between atoms: C_27  and  C_28
REMARK   13  A    between atoms: C_27  and  C_29
REMARK   14  A    between atoms: C_27  and  C_30
REMARK                            x       y       z     vdW  Elec       q    Type
REMARK                         _______ _______ _______ _____ _____    ______ ____
ROOT
ATOM      1  N   UNL     1       2.074   8.770  17.467  0.00  0.00    +0.000 NA
ATOM      2  C   UNL     1       2.946   7.924  16.999  0.00  0.00    +0.000 C 
ENDROOT
BRANCH   1   7
ATOM      3  C   UNL     1      -0.301  11.057  20.845  0.00  0.00    +0.000 A 
ATOM      4  N   UNL     1       0.218  11.757  19.861  0.00  0.00    +0.000 NA
ATOM      5  N   UNL     1       0.997  10.989  19.024  0.00  0.00    +0.000 NA
ATOM      6  C   UNL     1       1.097   9.737  19.423  0.00  0.00    +0.000 A 
ATOM      7  N   UNL     1       1.744   8.726  18.787  0.00  0.00    +0.000 N 
ATOM      8  S   UNL     1       0.234   9.429  20.887  0.00  0.00    +0.000 S 
ATOM      9  H   UNL     1       1.894   7.870  19.313  0.00  0.00    +0.000 HD
BRANCH   3  15
ATOM     10  C   UNL     1      -2.946  12.346  20.123  0.00  0.00    +0.000 C 
ATOM     11  N   UNL     1      -2.453  12.203  21.475  0.00  0.00    +0.000 N 
ATOM     12  C   UNL     1      -3.022  12.585  22.665  0.00  0.00    +0.000 A 
ATOM     13  C   UNL     1      -2.159  12.180  23.653  0.00  0.00    +0.000 A 
ATOM     14  N   UNL     1      -1.057  11.581  23.107  0.00  0.00    +0.000 NA
ATOM     15  C   UNL     1      -1.235  11.604  21.795  0.00  0.00    +0.000 A 
BRANCH  12  16
ATOM     16  N   UNL     1      -4.259  13.267  22.852  0.00  0.00    +0.000 N 
ATOM     17  O   UNL     1      -4.255  14.500  22.882  0.00  0.00    +0.000 OA
ATOM     18  O   UNL     1      -5.258  12.551  22.989  0.00  0.00    +0.000 OA
ENDBRANCH  12  16
ENDBRANCH   3  15
ENDBRANCH   1   7
BRANCH   2  19
ATOM     19  C   UNL     1       3.610   6.789  17.682  0.00  0.00    +0.000 A 
ATOM     20  C   UNL     1       4.989   6.762  17.886  0.00  0.00    +0.000 A 
ATOM     21  C   UNL     1       5.643   5.626  18.392  0.00  0.00    +0.000 A 
ATOM     22  C   UNL     1       4.803   4.569  18.823  0.00  0.00    +0.000 A 
ATOM     23  C   UNL     1       3.382   4.615  18.763  0.00  0.00    +0.000 A 
ATOM     24  C   UNL     1       2.811   5.748  18.155  0.00  0.00    +0.000 A 
BRANCH  21  25
ATOM     25  C   UNL     1       7.190   5.641  18.489  0.00  0.00    +0.000 C 
ATOM     26  C   UNL     1       7.733   4.502  17.605  0.00  0.00    +0.000 C 
ATOM     27  C   UNL     1       7.848   6.974  18.067  0.00  0.00    +0.000 C 
ATOM     28  C   UNL     1       7.705   5.394  19.935  0.00  0.00    +0.000 C 
ENDBRANCH  21  25
BRANCH  23  29
ATOM     29  C   UNL     1       2.489   3.507  19.380  0.00  0.00    +0.000 C 
ATOM     30  C   UNL     1       3.120   2.979  20.693  0.00  0.00    +0.000 C 
ATOM     31  C   UNL     1       1.072   4.007  19.766  0.00  0.00    +0.000 C 
ATOM     32  C   UNL     1       2.279   2.330  18.404  0.00  0.00    +0.000 C 
ENDBRANCH  23  29
BRANCH  22  33
ATOM     33  O   UNL     1       5.353   3.431  19.334  0.00  0.00    +0.000 OA
ATOM     34  H   UNL     1       6.306   3.599  19.416  0.00  0.00    +0.000 HD
ENDBRANCH  22  33
ENDBRANCH   2  19
TORSDOF 7
ENDMDL
MODEL 3
REMARK VINA RESULT:      -8.3      1.324      1.761
REMARK  Name = 
REMARK  14 active torsions:
REMARK  status: ('A' for Active; 'I' for Inactive)
REMARK    1  A    between atoms: C_1  and  N_2
REMARK    2  A    between atoms: C_3  and  N_4
REMARK    3  A    between atoms: C_9  and  C_10
REMARK    4  A    between atoms: N_14  and  N_15
REMARK    5  A    between atoms: C_16  and  C_17
REMARK    6  A    between atoms: C_19  and  C_20
REMARK    7  A    between atoms: C_20  and  C_21
REMARK    8  A    between atoms: C_20  and  C_22
REMARK    9  A    between atoms: C_20  and  C_23
REMARK   10  A    between atoms: C_24  and  O_25
REMARK   11  A    between atoms: C_26  and  C_27
REMARK   12  A    between atoms: C_27  and  C_28
REMARK   13  A    between atoms: C_27  and  C_29
REMARK   14  A    between atoms: C_27  and  C_30
REMARK                            x       y       z     vdW  Elec       q    Type
REMARK                         _______ _______ _______ _____ _____    ______ ____
ROOT
ATOM      1  N   UNL     1       1.926   8.745  17.555  0.00  0.00    +0.000 NA
ATOM      2  C   UNL     1       2.685   7.814  17.050  0.00  0.00    +0.000 C 
ENDROOT
BRANCH   1   7
ATOM      3  C   UNL     1       0.098  11.410  20.995  0.00  0.00    +0.000 A 
ATOM      4  N   UNL     1       0.461  11.995  19.875  0.00  0.00    +0.000 NA
ATOM      5  N   UNL     1       1.102  11.131  19.014  0.00  0.00    +0.000 NA
ATOM      6  C   UNL     1       1.261   9.926  19.524  0.00  0.00    +0.000 A 
ATOM      7  N   UNL     1       1.802   8.843  18.907  0.00  0.00    +0.000 N 
ATOM      8  S   UNL     1       0.632   9.786  21.126  0.00  0.00    +0.000 S 
ATOM      9  H   UNL     1       2.031   8.044  19.491  0.00  0.00    +0.000 HD
BRANCH   3  15
ATOM     10  C   UNL     1       0.515  14.267  21.910  0.00  0.00    +0.000 C 
ATOM     11  N   UNL     1      -0.494  13.381  22.445  0.00  0.00    +0.000 N 
ATOM     12  C   UNL     1      -1.436  13.605  23.420  0.00  0.00    +0.000 A 
ATOM     13  C   UNL     1      -2.170  12.450  23.518  0.00  0.00    +0.000 A 
ATOM     14  N   UNL     1      -1.694  11.505  22.652  0.00  0.00    +0.000 NA
ATOM     15  C   UNL     1      -0.680  12.068  22.013  0.00  0.00    +0.000 A 
BRANCH  12  16
ATOM     16  N   UNL     1      -1.623  14.793  24.184  0.00  0.00    +0.000 N 
ATOM     17  O   UNL     1      -2.597  15.507  23.934  0.00  0.00    +0.000 OA
ATOM     18  O   UNL     1      -0.766  15.026  25.044  0.00  0.00    +0.000 OA
ENDBRANCH  12  16
ENDBRANCH   3  15
ENDBRANCH   1   7
BRANCH   2  19
ATOM     19  C   UNL     1       3.405   6.717  17.738  0.00  0.00    +0.000 A 
ATOM     20  C   UNL     1       4.793   6.717  17.864  0.00  0.00    +0.000 A 
ATOM     21  C   UNL     1       5.493   5.612  18.376  0.00  0.00    +0.000 A 
ATOM     22  C   UNL     1       4.696   4.562  18.896  0.00  0.00    +0.000 A 
ATOM     23  C   UNL     1       3.273   4.586  18.916  0.00  0.00    +0.000 A 
ATOM     24  C   UNL     1       2.651   5.685  18.298  0.00  0.00    +0.000 A 
BRANCH  21  25
ATOM     25  C   UNL     1       7.043   5.651  18.383  0.00  0.00    +0.000 C 
ATOM     26  C   UNL     1       7.489   6.969  17.720  0.00  0.00    +0.000 C 
ATOM     27  C   UNL     1       7.682   5.543  19.786  0.00  0.00    +0.000 C 
ATOM     28  C   UNL     1       7.678   4.485  17.575  0.00  0.00    +0.000 C 
ENDBRANCH  21  25
BRANCH  23  29
ATOM     29  C   UNL     1       2.436   3.492  19.628  0.00  0.00    +0.000 C 
ATOM     30  C   UNL     1       3.062   3.143  21.000  0.00  0.00    +0.000 C 
ATOM     31  C   UNL     1       0.980   3.936  19.931  0.00  0.00    +0.000 C 
ATOM     32  C   UNL     1       2.325   2.209  18.775  0.00  0.00    +0.000 C 
ENDBRANCH  23  29
BRANCH  22  33
ATOM     33  O   UNL     1       5.293   3.453  19.419  0.00  0.00    +0.000 OA
ATOM     34  H   UNL     1       5.876   3.764  20.130  0.00  0.00    +0.000 HD
ENDBRANCH  22  33
ENDBRANCH   2  19
TORSDOF 7
ENDMDL
MODEL 4
REMARK VINA RESULT:      -8.2      0.453      3.298
REMARK  Name = 
REMARK  14 active torsions:
REMARK  status: ('A' for Active; 'I' for Inactive)
REMARK    1  A    between atoms: C_1  and  N_2
REMARK    2  A    between atoms: C_3  and  N_4
REMARK    3  A    between atoms: C_9  and  C_10
REMARK    4  A    between atoms: N_14  and  N_15
REMARK    5  A    between atoms: C_16  and  C_17
REMARK    6  A    between atoms: C_19  and  C_20
REMARK    7  A    between atoms: C_20  and  C_21
REMARK    8  A    between atoms: C_20  and  C_22
REMARK    9  A    between atoms: C_20  and  C_23
REMARK   10  A    between atoms: C_24  and  O_25
REMARK   11  A    between atoms: C_26  and  C_27
REMARK   12  A    between atoms: C_27  and  C_28
REMARK   13  A    between atoms: C_27  and  C_29
REMARK   14  A    between atoms: C_27  and  C_30
REMARK                            x       y       z     vdW  Elec       q    Type
REMARK                         _______ _______ _______ _____ _____    ______ ____
ROOT
ATOM      1  N   UNL     1       2.061   8.950  17.467  0.00  0.00    +0.000 NA
ATOM      2  C   UNL     1       2.917   8.099  16.976  0.00  0.00    +0.000 C 
ENDROOT
BRANCH   1   7
ATOM      3  C   UNL     1      -0.379  11.118  20.876  0.00  0.00    +0.000 A 
ATOM      4  N   UNL     1       0.140  11.850  19.915  0.00  0.00    +0.000 NA
ATOM      5  N   UNL     1       0.938  11.114  19.067  0.00  0.00    +0.000 NA
ATOM      6  C   UNL     1       1.052   9.855  19.436  0.00  0.00    +0.000 A 
ATOM      7  N   UNL     1       1.719   8.868  18.782  0.00  0.00    +0.000 N 
ATOM      8  S   UNL     1       0.180   9.497  20.884  0.00  0.00    +0.000 S 
ATOM      9  H   UNL     1       1.877   8.002  19.288  0.00  0.00    +0.000 HD
BRANCH   3  15
ATOM     10  C   UNL     1      -2.998  12.460  20.157  0.00  0.00    +0.000 C 
ATOM     11  N   UNL     1      -2.536  12.251  21.511  0.00  0.00    +0.000 N 
ATOM     12  C   UNL     1      -3.129  12.582  22.706  0.00  0.00    +0.000 A 
ATOM     13  C   UNL     1      -2.291  12.125  23.692  0.00  0.00    +0.000 A 
ATOM     14  N   UNL     1      -1.181  11.543  23.143  0.00  0.00    +0.000 NA
ATOM     15  C   UNL     1      -1.330  11.628  21.830  0.00  0.00    +0.000 A 
BRANCH  12  16
ATOM     16  N   UNL     1      -4.365  13.264  22.897  0.00  0.00    +0.000 N 
ATOM     17  O   UNL     1      -5.372  12.599  23.151  0.00  0.00    +0.000 OA
ATOM     18  O   UNL     1      -4.331  14.494  22.774  0.00  0.00    +0.000 OA
ENDBRANCH  12  16
ENDBRANCH   3  15
ENDBRANCH   1   7
BRANCH   2  19
ATOM     19  C   UNL     1       3.548   6.926  17.624  0.00  0.00    +0.000 A 
ATOM     20  C   UNL     1       2.789   5.867  18.119  0.00  0.00    +0.000 A 
ATOM     21  C   UNL     1       3.364   4.828  18.870  0.00  0.00    +0.000 A 
ATOM     22  C   UNL     1       4.778   4.841  18.964  0.00  0.00    +0.000 A 
ATOM     23  C   UNL     1       5.600   5.828  18.351  0.00  0.00    +0.000 A 
ATOM     24  C   UNL     1       4.941   6.885  17.700  0.00  0.00    +0.000 A 
BRANCH  21  25
ATOM     25  C   UNL     1       2.434   3.744  19.474  0.00  0.00    +0.000 C 
ATOM     26  C   UNL     1       2.181   4.103  20.951  0.00  0.00    +0.000 C 
ATOM     27  C   UNL     1       1.080   3.582  18.748  0.00  0.00    +0.000 C 
ATOM     28  C   UNL     1       3.065   2.324  19.442  0.00  0.00    +0.000 C 
ENDBRANCH  21  25
BRANCH  23  29
ATOM     29  C   UNL     1       7.148   5.730  18.345  0.00  0.00    +0.000 C 
ATOM     30  C   UNL     1       7.767   7.032  17.778  0.00  0.00    +0.000 C 
ATOM     31  C   UNL     1       7.757   5.557  19.762  0.00  0.00    +0.000 C 
ATOM     32  C   UNL     1       7.643   4.525  17.516  0.00  0.00    +0.000 C 
ENDBRANCH  23  29
BRANCH  22  33
ATOM     33  O   UNL     1       5.420   3.866  19.667  0.00  0.00    +0.000 OA
ATOM     34  H   UNL     1       5.549   3.124  19.055  0.00  0.00    +0.000 HD
ENDBRANCH  22  33
ENDBRANCH   2  19
TORSDOF 7
ENDMDL
MODEL 5
REMARK VINA RESULT:      -8.1      1.430      1.866
REMARK  Name = 
REMARK  14 active torsions:
REMARK  status: ('A' for Active; 'I' for Inactive)
REMARK    1  A    between atoms: C_1  and  N_2
REMARK    2  A    between atoms: C_3  and  N_4
REMARK    3  A    between atoms: C_9  and  C_10
REMARK    4  A    between atoms: N_14  and  N_15
REMARK    5  A    between atoms: C_16  and  C_17
REMARK    6  A    between atoms: C_19  and  C_20
REMARK    7  A    between atoms: C_20  and  C_21
REMARK    8  A    between atoms: C_20  and  C_22
REMARK    9  A    between atoms: C_20  and  C_23
REMARK   10  A    between atoms: C_24  and  O_25
REMARK   11  A    between atoms: C_26  and  C_27
REMARK   12  A    between atoms: C_27  and  C_28
REMARK   13  A    between atoms: C_27  and  C_29
REMARK   14  A    between atoms: C_27  and  C_30
REMARK                            x       y       z     vdW  Elec       q    Type
REMARK                         _______ _______ _______ _____ _____    ______ ____
ROOT
ATOM      1  N   UNL     1       1.749   8.763  17.566  0.00  0.00    +0.000 NA
ATOM      2  C   UNL     1       2.478   7.803  17.071  0.00  0.00    +0.000 C 
ENDROOT
BRANCH   1   7
ATOM      3  C   UNL     1      -0.007  11.540  20.954  0.00  0.00    +0.000 A 
ATOM      4  N   UNL     1       0.228  12.066  19.772  0.00  0.00    +0.000 NA
ATOM      5  N   UNL     1       0.864  11.187  18.923  0.00  0.00    +0.000 NA
ATOM      6  C   UNL     1       1.148  10.036  19.498  0.00  0.00    +0.000 A 
ATOM      7  N   UNL     1       1.719   8.950  18.914  0.00  0.00    +0.000 N 
ATOM      8  S   UNL     1       0.652   9.970  21.151  0.00  0.00    +0.000 S 
ATOM      9  H   UNL     1       2.049   8.213  19.530  0.00  0.00    +0.000 HD
BRANCH   3  15
ATOM     10  C   UNL     1       0.577  14.340  21.954  0.00  0.00    +0.000 C 
ATOM     11  N   UNL     1      -0.490  13.503  22.455  0.00  0.00    +0.000 N 
ATOM     12  C   UNL     1      -1.426  13.757  23.428  0.00  0.00    +0.000 A 
ATOM     13  C   UNL     1      -2.232  12.648  23.487  0.00  0.00    +0.000 A 
ATOM     14  N   UNL     1      -1.806  11.700  22.598  0.00  0.00    +0.000 NA
ATOM     15  C   UNL     1      -0.752  12.217  21.984  0.00  0.00    +0.000 A 
BRANCH  12  16
ATOM     16  N   UNL     1      -1.547  14.933  24.224  0.00  0.00    +0.000 N 
ATOM     17  O   UNL     1      -0.729  15.121  25.127  0.00  0.00    +0.000 OA
ATOM     18  O   UNL     1      -2.495  15.678  23.949  0.00  0.00    +0.000 OA
ENDBRANCH  12  16
ENDBRANCH   3  15
ENDBRANCH   1   7
BRANCH   2  19
ATOM     19  C   UNL     1       3.253   6.756  17.778  0.00  0.00    +0.000 A 
ATOM     20  C   UNL     1       4.647   6.759  17.789  0.00  0.00    +0.000 A 
ATOM     21  C   UNL     1       5.387   5.691  18.323  0.00  0.00    +0.000 A 
ATOM     22  C   UNL     1       4.637   4.686  18.983  0.00  0.00    +0.000 A 
ATOM     23  C   UNL     1       3.220   4.719  19.117  0.00  0.00    +0.000 A 
ATOM     24  C   UNL     1       2.548   5.772  18.472  0.00  0.00    +0.000 A 
BRANCH  21  25
ATOM     25  C   UNL     1       6.933   5.723  18.200  0.00  0.00    +0.000 C 
ATOM     26  C   UNL     1       7.524   5.694  19.622  0.00  0.00    +0.000 C 
ATOM     27  C   UNL     1       7.535   4.565  17.372  0.00  0.00    +0.000 C 
ATOM     28  C   UNL     1       7.455   7.011  17.505  0.00  0.00    +0.000 C 
ENDBRANCH  21  25
BRANCH  23  29
ATOM     29  C   UNL     1       2.445   3.685  19.974  0.00  0.00    +0.000 C 
ATOM     30  C   UNL     1       0.970   3.599  19.509  0.00  0.00    +0.000 C 
ATOM     31  C   UNL     1       3.009   2.244  19.854  0.00  0.00    +0.000 C 
ATOM     32  C   UNL     1       2.487   4.038  21.477  0.00  0.00    +0.000 C 
ENDBRANCH  23  29
BRANCH  22  33
ATOM     33  O   UNL     1       5.275   3.616  19.536  0.00  0.00    +0.000 OA
ATOM     34  H   UNL     1       5.673   3.931  20.364  0.00  0.00    +0.000 HD
ENDBRANCH  22  33
ENDBRANCH   2  19
TORSDOF 7
ENDMDL
MODEL 6
REMARK VINA RESULT:      -8.0      1.406      3.609
REMARK  Name = 
REMARK  14 active torsions:
REMARK  status: ('A' for Active; 'I' for Inactive)
REMARK    1  A    between atoms: C_1  and  N_2
REMARK    2  A    between atoms: C_3  and  N_4
REMARK    3  A    between atoms: C_9  and  C_10
REMARK    4  A    between atoms: N_14  and  N_15
REMARK    5  A    between atoms: C_16  and  C_17
REMARK    6  A    between atoms: C_19  and  C_20
REMARK    7  A    between atoms: C_20  and  C_21
REMARK    8  A    between atoms: C_20  and  C_22
REMARK    9  A    between atoms: C_20  and  C_23
REMARK   10  A    between atoms: C_24  and  O_25
REMARK   11  A    between atoms: C_26  and  C_27
REMARK   12  A    between atoms: C_27  and  C_28
REMARK   13  A    between atoms: C_27  and  C_29
REMARK   14  A    between atoms: C_27  and  C_30
REMARK                            x       y       z     vdW  Elec       q    Type
REMARK                         _______ _______ _______ _____ _____    ______ ____
ROOT
ATOM      1  N   UNL     1       1.818   8.767  17.536  0.00  0.00    +0.000 NA
ATOM      2  C   UNL     1       2.545   7.816  17.023  0.00  0.00    +0.000 C 
ENDROOT
BRANCH   1   7
ATOM      3  C   UNL     1       0.067  11.475  20.983  0.00  0.00    +0.000 A 
ATOM      4  N   UNL     1       0.366  12.039  19.834  0.00  0.00    +0.000 NA
ATOM      5  N   UNL     1       0.992  11.170  18.968  0.00  0.00    +0.000 NA
ATOM      6  C   UNL     1       1.206   9.983  19.501  0.00  0.00    +0.000 A 
ATOM      7  N   UNL     1       1.749   8.899  18.889  0.00  0.00    +0.000 N 
ATOM      8  S   UNL     1       0.651   9.870  21.133  0.00  0.00    +0.000 S 
ATOM      9  H   UNL     1       2.025   8.122  19.483  0.00  0.00    +0.000 HD
BRANCH   3  15
ATOM     10  C   UNL     1       0.567  14.309  21.930  0.00  0.00    +0.000 C 
ATOM     11  N   UNL     1      -0.460  13.442  22.464  0.00  0.00    +0.000 N 
ATOM     12  C   UNL     1      -1.386  13.677  23.451  0.00  0.00    +0.000 A 
ATOM     13  C   UNL     1      -2.150  12.540  23.541  0.00  0.00    +0.000 A 
ATOM     14  N   UNL     1      -1.706  11.595  22.658  0.00  0.00    +0.000 NA
ATOM     15  C   UNL     1      -0.683  12.140  22.017  0.00  0.00    +0.000 A 
BRANCH  12  16
ATOM     16  N   UNL     1      -1.536  14.859  24.231  0.00  0.00    +0.000 N 
ATOM     17  O   UNL     1      -0.688  15.111  25.090  0.00  0.00    +0.000 OA
ATOM     18  O   UNL     1      -2.535  15.546  23.990  0.00  0.00    +0.000 OA
ENDBRANCH  12  16
ENDBRANCH   3  15
ENDBRANCH   1   7
BRANCH   2  19
ATOM     19  C   UNL     1       3.280   6.727  17.708  0.00  0.00    +0.000 A 
ATOM     20  C   UNL     1       2.614   5.670  18.327  0.00  0.00    +0.000 A 
ATOM     21  C   UNL     1       3.293   4.719  19.107  0.00  0.00    +0.000 A 
ATOM     22  C   UNL     1       4.707   4.811  19.103  0.00  0.00    +0.000 A 
ATOM     23  C   UNL     1       5.432   5.790  18.368  0.00  0.00    +0.000 A 
ATOM     24  C   UNL     1       4.675   6.762  17.691  0.00  0.00    +0.000 A 
BRANCH  21  25
ATOM     25  C   UNL     1       2.465   3.638  19.849  0.00  0.00    +0.000 C 
ATOM     26  C   UNL     1       2.957   2.256  19.379  0.00  0.00    +0.000 C 
ATOM     27  C   UNL     1       2.544   3.713  21.390  0.00  0.00    +0.000 C 
ATOM     28  C   UNL     1       0.945   3.723  19.533  0.00  0.00    +0.000 C 
ENDBRANCH  21  25
BRANCH  23  29
ATOM     29  C   UNL     1       6.980   5.769  18.263  0.00  0.00    +0.000 C 
ATOM     30  C   UNL     1       7.444   4.574  17.395  0.00  0.00    +0.000 C 
ATOM     31  C   UNL     1       7.564   7.036  17.582  0.00  0.00    +0.000 C 
ATOM     32  C   UNL     1       7.648   5.682  19.652  0.00  0.00    +0.000 C 
ENDBRANCH  23  29
BRANCH  22  33
ATOM     33  O   UNL     1       5.446   3.924  19.828  0.00  0.00    +0.000 OA
ATOM     34  H   UNL     1       5.757   3.249  19.203  0.00  0.00    +0.000 HD
ENDBRANCH  22  33
ENDBRANCH   2  19
TORSDOF 7
ENDMDL
MODEL 7
REMARK VINA RESULT:      -7.5      3.675     10.510
REMARK  Name = 
REMARK  14 active torsions:
REMARK  status: ('A' for Active; 'I' for Inactive)
REMARK    1  A    between atoms: C_1  and  N_2
REMARK    2  A    between atoms: C_3  and  N_4
REMARK    3  A    between atoms: C_9  and  C_10
REMARK    4  A    between atoms: N_14  and  N_15
REMARK    5  A    between atoms: C_16  and  C_17
REMARK    6  A    between atoms: C_19  and  C_20
REMARK    7  A    between atoms: C_20  and  C_21
REMARK    8  A    between atoms: C_20  and  C_22
REMARK    9  A    between atoms: C_20  and  C_23
REMARK   10  A    between atoms: C_24  and  O_25
REMARK   11  A    between atoms: C_26  and  C_27
REMARK   12  A    between atoms: C_27  and  C_28
REMARK   13  A    between atoms: C_27  and  C_29
REMARK   14  A    between atoms: C_27  and  C_30
REMARK                            x       y       z     vdW  Elec       q    Type
REMARK                         _______ _______ _______ _____ _____    ______ ____
ROOT
ATOM      1  N   UNL     1       0.766   8.170  21.163  0.00  0.00    +0.000 NA
ATOM      2  C   UNL     1      -0.205   9.039  21.198  0.00  0.00    +0.000 C 
ENDROOT
BRANCH   1   7
ATOM      3  C   UNL     1       3.617   5.652  18.369  0.00  0.00    +0.000 A 
ATOM      4  N   UNL     1       3.277   5.148  19.534  0.00  0.00    +0.000 NA
ATOM      5  N   UNL     1       2.560   6.038  20.303  0.00  0.00    +0.000 NA
ATOM      6  C   UNL     1       2.421   7.215  19.727  0.00  0.00    +0.000 A 
ATOM      7  N   UNL     1       1.724   8.280  20.201  0.00  0.00    +0.000 N 
ATOM      8  S   UNL     1       3.192   7.302  18.183  0.00  0.00    +0.000 S 
ATOM      9  H   UNL     1       1.870   9.172  19.739  0.00  0.00    +0.000 HD
BRANCH   3  15
ATOM     10  C   UNL     1       5.943   6.650  16.704  0.00  0.00    +0.000 C 
ATOM     11  N   UNL     1       5.348   5.339  16.568  0.00  0.00    +0.000 N 
ATOM     12  C   UNL     1       5.672   4.309  15.718  0.00  0.00    +0.000 A 
ATOM     13  C   UNL     1       4.825   3.274  16.028  0.00  0.00    +0.000 A 
ATOM     14  N   UNL     1       3.966   3.642  17.026  0.00  0.00    +0.000 NA
ATOM     15  C   UNL     1       4.281   4.889  17.343  0.00  0.00    +0.000 A 
BRANCH  12  16
ATOM     16  N   UNL     1       6.682   4.302  14.713  0.00  0.00    +0.000 N 
ATOM     17  O   UNL     1       7.767   4.831  14.964  0.00  0.00    +0.000 OA
ATOM     18  O   UNL     1       6.376   3.769  13.641  0.00  0.00    +0.000 OA
ENDBRANCH  12  16
ENDBRANCH   3  15
ENDBRANCH   1   7
BRANCH   2  19
ATOM     19  C   UNL     1      -0.514  10.136  20.253  0.00  0.00    +0.000 A 
ATOM     20  C   UNL     1      -1.604  10.071  19.386  0.00  0.00    +0.000 A 
ATOM     21  C   UNL     1      -1.815  11.033  18.383  0.00  0.00    +0.000 A 
ATOM     22  C   UNL     1      -0.943  12.149  18.403  0.00  0.00    +0.000 A 
ATOM     23  C   UNL     1       0.095  12.323  19.362  0.00  0.00    +0.000 A 
ATOM     24  C   UNL     1       0.299  11.269  20.271  0.00  0.00    +0.000 A 
BRANCH  21  25
ATOM     25  C   UNL     1      -2.991  10.829  17.393  0.00  0.00    +0.000 C 
ATOM     26  C   UNL     1      -4.102  11.830  17.762  0.00  0.00    +0.000 C 
ATOM     27  C   UNL     1      -2.615  11.007  15.905  0.00  0.00    +0.000 C 
ATOM     28  C   UNL     1      -3.604   9.403  17.472  0.00  0.00    +0.000 C 
ENDBRANCH  21  25
BRANCH  23  29
ATOM     29  C   UNL     1       0.933  13.626  19.450  0.00  0.00    +0.000 C 
ATOM     30  C   UNL     1       0.004  14.864  19.430  0.00  0.00    +0.000 C 
ATOM     31  C   UNL     1       1.754  13.737  20.762  0.00  0.00    +0.000 C 
ATOM     32  C   UNL     1       1.952  13.731  18.295  0.00  0.00    +0.000 C 
ENDBRANCH  23  29
BRANCH  22  33
ATOM     33  O   UNL     1      -1.080  13.134  17.471  0.00  0.00    +0.000 OA
ATOM     34  H   UNL     1      -0.238  13.618  17.456  0.00  0.00    +0.000 HD
ENDBRANCH  22  33
ENDBRANCH   2  19
TORSDOF 7
ENDMDL
MODEL 8
REMARK VINA RESULT:      -7.4      2.532     10.415
REMARK  Name = 
REMARK  14 active torsions:
REMARK  status: ('A' for Active; 'I' for Inactive)
REMARK    1  A    between atoms: C_1  and  N_2
REMARK    2  A    between atoms: C_3  and  N_4
REMARK    3  A    between atoms: C_9  and  C_10
REMARK    4  A    between atoms: N_14  and  N_15
REMARK    5  A    between atoms: C_16  and  C_17
REMARK    6  A    between atoms: C_19  and  C_20
REMARK    7  A    between atoms: C_20  and  C_21
REMARK    8  A    between atoms: C_20  and  C_22
REMARK    9  A    between atoms: C_20  and  C_23
REMARK   10  A    between atoms: C_24  and  O_25
REMARK   11  A    between atoms: C_26  and  C_27
REMARK   12  A    between atoms: C_27  and  C_28
REMARK   13  A    between atoms: C_27  and  C_29
REMARK   14  A    between atoms: C_27  and  C_30
REMARK                            x       y       z     vdW  Elec       q    Type
REMARK                         _______ _______ _______ _____ _____    ______ ____
ROOT
ATOM      1  N   UNL     1       1.099  11.767  18.595  0.00  0.00    +0.000 NA
ATOM      2  C   UNL     1       0.119  12.626  18.585  0.00  0.00    +0.000 C 
ENDROOT
BRANCH   1   7
ATOM      3  C   UNL     1       2.662   7.313  18.601  0.00  0.00    +0.000 A 
ATOM      4  N   UNL     1       2.749   8.006  17.487  0.00  0.00    +0.000 NA
ATOM      5  N   UNL     1       2.135   9.235  17.583  0.00  0.00    +0.000 NA
ATOM      6  C   UNL     1       1.547   9.424  18.748  0.00  0.00    +0.000 A 
ATOM      7  N   UNL     1       0.910  10.547  19.170  0.00  0.00    +0.000 N 
ATOM      8  S   UNL     1       1.706   8.069  19.807  0.00  0.00    +0.000 S 
ATOM      9  H   UNL     1       0.345  10.471  20.010  0.00  0.00    +0.000 HD
BRANCH   3  15
ATOM     10  C   UNL     1       1.462   4.632  17.859  0.00  0.00    +0.000 C 
ATOM     11  N   UNL     1       2.767   4.801  18.458  0.00  0.00    +0.000 N 
ATOM     12  C   UNL     1       3.706   3.861  18.805  0.00  0.00    +0.000 A 
ATOM     13  C   UNL     1       4.783   4.554  19.297  0.00  0.00    +0.000 A 
ATOM     14  N   UNL     1       4.529   5.898  19.291  0.00  0.00    +0.000 NA
ATOM     15  C   UNL     1       3.311   6.041  18.792  0.00  0.00    +0.000 A 
BRANCH  12  16
ATOM     16  N   UNL     1       3.597   2.445  18.685  0.00  0.00    +0.000 N 
ATOM     17  O   UNL     1       3.929   1.744  19.643  0.00  0.00    +0.000 OA
ATOM     18  O   UNL     1       3.183   2.024  17.598  0.00  0.00    +0.000 OA
ENDBRANCH  12  16
ENDBRANCH   3  15
ENDBRANCH   1   7
BRANCH   2  19
ATOM     19  C   UNL     1      -1.217  12.529  19.217  0.00  0.00    +0.000 A 
ATOM     20  C   UNL     1      -2.316  12.012  18.532  0.00  0.00    +0.000 A 
ATOM     21  C   UNL     1      -3.614  12.058  19.067  0.00  0.00    +0.000 A 
ATOM     22  C   UNL     1      -3.717  12.523  20.402  0.00  0.00    +0.000 A 
ATOM     23  C   UNL     1      -2.600  12.927  21.186  0.00  0.00    +0.000 A 
ATOM     24  C   UNL     1      -1.349  12.940  20.544  0.00  0.00    +0.000 A 
BRANCH  21  25
ATOM     25  C   UNL     1      -4.796  11.558  18.196  0.00  0.00    +0.000 C 
ATOM     26  C   UNL     1      -4.219  11.035  16.867  0.00  0.00    +0.000 C 
ATOM     27  C   UNL     1      -5.654  10.453  18.852  0.00  0.00    +0.000 C 
ATOM     28  C   UNL     1      -5.809  12.686  17.853  0.00  0.00    +0.000 C 
ENDBRANCH  21  25
BRANCH  23  29
ATOM     29  C   UNL     1      -2.728  13.285  22.689  0.00  0.00    +0.000 C 
ATOM     30  C   UNL     1      -3.236  12.062  23.492  0.00  0.00    +0.000 C 
ATOM     31  C   UNL     1      -1.377  13.685  23.341  0.00  0.00    +0.000 C 
ATOM     32  C   UNL     1      -3.683  14.477  22.916  0.00  0.00    +0.000 C 
ENDBRANCH  23  29
BRANCH  22  33
ATOM     33  O   UNL     1      -4.939  12.595  21.002  0.00  0.00    +0.000 OA
ATOM     34  H   UNL     1      -4.989  13.471  21.418  0.00  0.00    +0.000 HD
ENDBRANCH  22  33
ENDBRANCH   2  19
TORSDOF 7
ENDMDL
MODEL 9
REMARK VINA RESULT:      -7.4      0.929      1.635
REMARK  Name = 
REMARK  14 active torsions:
REMARK  status: ('A' for Active; 'I' for Inactive)
REMARK    1  A    between atoms: C_1  and  N_2
REMARK    2  A    between atoms: C_3  and  N_4
REMARK    3  A    between atoms: C_9  and  C_10
REMARK    4  A    between atoms: N_14  and  N_15
REMARK    5  A    between atoms: C_16  and  C_17
REMARK    6  A    between atoms: C_19  and  C_20
REMARK    7  A    between atoms: C_20  and  C_21
REMARK    8  A    between atoms: C_20  and  C_22
REMARK    9  A    between atoms: C_20  and  C_23
REMARK   10  A    between atoms: C_24  and  O_25
REMARK   11  A    between atoms: C_26  and  C_27
REMARK   12  A    between atoms: C_27  and  C_28
REMARK   13  A    between atoms: C_27  and  C_29
REMARK   14  A    between atoms: C_27  and  C_30
REMARK                            x       y       z     vdW  Elec       q    Type
REMARK                         _______ _______ _______ _____ _____    ______ ____
ROOT
ATOM      1  N   UNL     1       2.144   8.859  17.204  0.00  0.00    +0.000 NA
ATOM      2  C   UNL     1       3.095   8.025  16.891  0.00  0.00    +0.000 C 
ENDROOT
BRANCH   1   7
ATOM      3  C   UNL     1      -0.670  11.235  20.156  0.00  0.00    +0.000 A 
ATOM      4  N   UNL     1      -0.038  11.904  19.217  0.00  0.00    +0.000 NA
ATOM      5  N   UNL     1       0.850  11.118  18.518  0.00  0.00    +0.000 NA
ATOM      6  C   UNL     1       0.915   9.885  18.979  0.00  0.00    +0.000 A 
ATOM      7  N   UNL     1       1.650   8.861  18.473  0.00  0.00    +0.000 N 
ATOM      8  S   UNL     1      -0.123   9.620  20.334  0.00  0.00    +0.000 S 
ATOM      9  H   UNL     1       1.744   8.030  19.048  0.00  0.00    +0.000 HD
BRANCH   3  15
ATOM     10  C   UNL     1      -0.834  11.055  23.176  0.00  0.00    +0.000 C 
ATOM     11  N   UNL     1      -1.812  11.723  22.346  0.00  0.00    +0.000 N 
ATOM     12  C   UNL     1      -2.961  12.388  22.700  0.00  0.00    +0.000 A 
ATOM     13  C   UNL     1      -3.502  12.870  21.535  0.00  0.00    +0.000 A 
ATOM     14  N   UNL     1      -2.736  12.499  20.464  0.00  0.00    +0.000 NA
ATOM     15  C   UNL     1      -1.724  11.803  20.957  0.00  0.00    +0.000 A 
BRANCH  12  16
ATOM     16  N   UNL     1      -3.495  12.552  24.011  0.00  0.00    +0.000 N 
ATOM     17  O   UNL     1      -4.318  11.729  24.419  0.00  0.00    +0.000 OA
ATOM     18  O   UNL     1      -3.095  13.537  24.641  0.00  0.00    +0.000 OA
ENDBRANCH  12  16
ENDBRANCH   3  15
ENDBRANCH   1   7
BRANCH   2  19
ATOM     19  C   UNL     1       3.701   6.947  17.707  0.00  0.00    +0.000 A 
ATOM     20  C   UNL     1       5.080   6.854  17.891  0.00  0.00    +0.000 A 
ATOM     21  C   UNL     1       5.671   5.752  18.531  0.00  0.00    +0.000 A 
ATOM     22  C   UNL     1       4.776   4.819  19.112  0.00  0.00    +0.000 A 
ATOM     23  C   UNL     1       3.359   4.953  19.069  0.00  0.00    +0.000 A 
ATOM     24  C   UNL     1       2.848   6.033  18.327  0.00  0.00    +0.000 A 
BRANCH  21  25
ATOM     25  C   UNL     1       7.218   5.674  18.600  0.00  0.00    +0.000 C 
ATOM     26  C   UNL     1       7.787   6.986  18.027  0.00  0.00    +0.000 C 
ATOM     27  C   UNL     1       7.787   5.446  20.018  0.00  0.00    +0.000 C 
ATOM     28  C   UNL     1       7.800   4.507  17.755  0.00  0.00    +0.000 C 
ENDBRANCH  21  25
BRANCH  23  29
ATOM     29  C   UNL     1       2.413   3.998  19.842  0.00  0.00    +0.000 C 
ATOM     30  C   UNL     1       2.232   4.486  21.301  0.00  0.00    +0.000 C 
ATOM     31  C   UNL     1       0.984   3.933  19.240  0.00  0.00    +0.000 C 
ATOM     32  C   UNL     1       2.942   2.548  19.850  0.00  0.00    +0.000 C 
ENDBRANCH  23  29
BRANCH  22  33
ATOM     33  O   UNL     1       5.263   3.723  19.759  0.00  0.00    +0.000 OA
ATOM     34  H   UNL     1       5.070   2.960  19.191  0.00  0.00    +0.000 HD
ENDBRANCH  22  33
ENDBRANCH   2  19
TORSDOF 7
ENDMDL
