MODEL 1
REMARK VINA RESULT:      -9.0      0.000      0.000
REMARK  Name = 
REMARK  12 active torsions:
REMARK  status: ('A' for Active; 'I' for Inactive)
REMARK    1  A    between atoms: C_1  and  C_2
REMARK    2  A    between atoms: C_4  and  N_5
REMARK    3  A    between atoms: C_7  and  C_8
REMARK    4  A    between atoms: C_8  and  C_9
REMARK    5  A    between atoms: C_9  and  C_10
REMARK    6  A    between atoms: C_14  and  C_15
REMARK    7  A    between atoms: C_15  and  C_16
REMARK    8  A    between atoms: C_15  and  C_18
REMARK    9  A    between atoms: C_16  and  N_17
REMARK   10  A    between atoms: C_18  and  C_19
REMARK   11  A    between atoms: C_21  and  C_22
REMARK   12  A    between atoms: C_24  and  N_25
REMARK                            x       y       z     vdW  Elec       q    Type
REMARK                         _______ _______ _______ _____ _____    ______ ____
ROOT
ATOM      1  C   UNL     1       7.676   7.551  17.868  0.00  0.00    +0.000 A 
ATOM      2  C   UNL     1       8.254   6.742  18.843  0.00  0.00    +0.000 A 
ATOM      3  C   UNL     1       7.915   5.396  18.890  0.00  0.00    +0.000 A 
ATOM      4  C   UNL     1       6.983   4.895  17.992  0.00  0.00    +0.000 A 
ATOM      5  C   UNL     1       6.410   5.757  17.063  0.00  0.00    +0.000 A 
ATOM      6  N   UNL     1       6.764   7.069  16.989  0.00  0.00    +0.000 NA
ENDROOT
BRANCH   1   7
ATOM      7  C   UNL     1       8.011   9.018  17.748  0.00  0.00    +0.000 C 
BRANCH   7   8
ATOM      8  C   UNL     1       9.036   9.501  18.776  0.00  0.00    +0.000 C 
BRANCH   8  14
ATOM      9  C   UNL     1      12.333  13.269  19.096  0.00  0.00    +0.000 C 
ATOM     10  C   UNL     1      10.989  12.741  18.704  0.00  0.00    +0.000 A 
ATOM     11  C   UNL     1      10.032  13.560  18.104  0.00  0.00    +0.000 A 
ATOM     12  C   UNL     1       8.800  13.021  17.761  0.00  0.00    +0.000 A 
ATOM     13  N   UNL     1       8.483  11.734  17.968  0.00  0.00    +0.000 NA
ATOM     14  C   UNL     1       9.414  10.940  18.551  0.00  0.00    +0.000 A 
ATOM     15  C   UNL     1      10.670  11.402  18.928  0.00  0.00    +0.000 A 
BRANCH  12  16
ATOM     16  N   UNL     1       7.832  13.808  17.142  0.00  0.00    +0.000 N 
ATOM     17  H   UNL     1       6.897  13.511  17.392  0.00  0.00    +0.000 HD
ATOM     18  H   UNL     1       7.997  13.736  16.141  0.00  0.00    +0.000 HD
ENDBRANCH  12  16
ENDBRANCH   8  14
ENDBRANCH   7   8
ENDBRANCH   1   7
BRANCH   5  19
ATOM     19  C   UNL     1       5.418   5.284  16.016  0.00  0.00    +0.000 C 
BRANCH  19  20
ATOM     20  C   UNL     1       6.137   5.128  14.653  0.00  0.00    +0.000 C 
BRANCH  20  21
ATOM     21  N   UNL     1       6.439   3.743  14.270  0.00  0.00    +0.000 NA
ATOM     22  H   UNL     1       7.192   3.394  14.865  0.00  0.00    +0.000 HD
ATOM     23  H   UNL     1       6.827   3.742  13.327  0.00  0.00    +0.000 HD
ENDBRANCH  20  21
ENDBRANCH  19  20
BRANCH  19  24
ATOM     24  C   UNL     1       4.614   4.016  16.363  0.00  0.00    +0.000 C 
BRANCH  24  25
ATOM     25  C   UNL     1       3.475   4.206  17.339  0.00  0.00    +0.000 A 
ATOM     26  C   UNL     1       2.524   3.208  17.534  0.00  0.00    +0.000 A 
ATOM     27  C   UNL     1       1.588   3.357  18.560  0.00  0.00    +0.000 A 
ATOM     28  C   UNL     1       0.592   2.280  18.868  0.00  0.00    +0.000 C 
ATOM     29  C   UNL     1       1.622   4.522  19.326  0.00  0.00    +0.000 A 
ATOM     30  C   UNL     1       2.575   5.489  19.043  0.00  0.00    +0.000 A 
ATOM     31  N   UNL     1       3.497   5.345  18.078  0.00  0.00    +0.000 NA
BRANCH  30  32
ATOM     32  N   UNL     1       2.655   6.647  19.814  0.00  0.00    +0.000 N 
ATOM     33  H   UNL     1       2.905   7.451  19.251  0.00  0.00    +0.000 HD
ATOM     34  H   UNL     1       3.339   6.461  20.544  0.00  0.00    +0.000 HD
ENDBRANCH  30  32
ENDBRANCH  24  25
ENDBRANCH  19  24
ENDBRANCH   5  19
TORSDOF 10
ENDMDL
MODEL 2
REMARK VINA RESULT:      -8.9      4.274      8.038
REMARK  Name = 
REMARK  12 active torsions:
REMARK  status: ('A' for Active; 'I' for Inactive)
REMARK    1  A    between atoms: C_1  and  C_2
REMARK    2  A    between atoms: C_4  and  N_5
REMARK    3  A    between atoms: C_7  and  C_8
REMARK    4  A    between atoms: C_8  and  C_9
REMARK    5  A    between atoms: C_9  and  C_10
REMARK    6  A    between atoms: C_14  and  C_15
REMARK    7  A    between atoms: C_15  and  C_16
REMARK    8  A    between atoms: C_15  and  C_18
REMARK    9  A    between atoms: C_16  and  N_17
REMARK   10  A    between atoms: C_18  and  C_19
REMARK   11  A    between atoms: C_21  and  C_22
REMARK   12  A    between atoms: C_24  and  N_25
REMARK                            x       y       z     vdW  Elec       q    Type
REMARK                         _______ _______ _______ _____ _____    ______ ____
ROOT
ATOM      1  C   UNL     1       2.532   7.854  18.229  0.00  0.00    +0.000 A 
ATOM      2  C   UNL     1       2.109   7.053  19.286  0.00  0.00    +0.000 A 
ATOM      3  C   UNL     1       2.852   5.929  19.619  0.00  0.00    +0.000 A 
ATOM      4  C   UNL     1       3.976   5.607  18.871  0.00  0.00    +0.000 A 
ATOM      5  C   UNL     1       4.332   6.422  17.802  0.00  0.00    +0.000 A 
ATOM      6  N   UNL     1       3.627   7.545  17.492  0.00  0.00    +0.000 NA
ENDROOT
BRANCH   1   7
ATOM      7  C   UNL     1       1.783   9.101  17.822  0.00  0.00    +0.000 C 
BRANCH   7   8
ATOM      8  C   UNL     1       1.062   9.790  18.982  0.00  0.00    +0.000 C 
BRANCH   8  14
ATOM      9  C   UNL     1      -2.920   9.839  15.930  0.00  0.00    +0.000 C 
ATOM     10  C   UNL     1      -2.159  10.397  17.092  0.00  0.00    +0.000 A 
ATOM     11  C   UNL     1      -2.645  11.476  17.829  0.00  0.00    +0.000 A 
ATOM     12  C   UNL     1      -1.900  11.957  18.897  0.00  0.00    +0.000 A 
ATOM     13  N   UNL     1      -0.727  11.422  19.268  0.00  0.00    +0.000 NA
ATOM     14  C   UNL     1      -0.256  10.373  18.550  0.00  0.00    +0.000 A 
ATOM     15  C   UNL     1      -0.939   9.834  17.465  0.00  0.00    +0.000 A 
BRANCH  12  16
ATOM     16  N   UNL     1      -2.368  13.020  19.665  0.00  0.00    +0.000 N 
ATOM     17  H   UNL     1      -2.087  12.931  20.634  0.00  0.00    +0.000 HD
ATOM     18  H   UNL     1      -3.380  13.026  19.563  0.00  0.00    +0.000 HD
ENDBRANCH  12  16
ENDBRANCH   8  14
ENDBRANCH   7   8
ENDBRANCH   1   7
BRANCH   5  19
ATOM     19  C   UNL     1       5.570   6.170  16.961  0.00  0.00    +0.000 C 
BRANCH  19  20
ATOM     20  C   UNL     1       6.814   6.747  17.683  0.00  0.00    +0.000 C 
BRANCH  20  21
ATOM     21  N   UNL     1       7.692   7.566  16.838  0.00  0.00    +0.000 NA
ATOM     22  H   UNL     1       8.406   7.997  17.428  0.00  0.00    +0.000 HD
ATOM     23  H   UNL     1       7.152   8.347  16.466  0.00  0.00    +0.000 HD
ENDBRANCH  20  21
ENDBRANCH  19  20
BRANCH  19  24
ATOM     24  C   UNL     1       5.812   4.712  16.527  0.00  0.00    +0.000 C 
BRANCH  24  25
ATOM     25  C   UNL     1       6.301   4.521  15.109  0.00  0.00    +0.000 A 
ATOM     26  C   UNL     1       5.584   3.745  14.201  0.00  0.00    +0.000 A 
ATOM     27  C   UNL     1       5.981   3.730  12.862  0.00  0.00    +0.000 A 
ATOM     28  C   UNL     1       5.201   2.978  11.828  0.00  0.00    +0.000 C 
ATOM     29  C   UNL     1       7.106   4.468  12.495  0.00  0.00    +0.000 A 
ATOM     30  C   UNL     1       7.791   5.184  13.465  0.00  0.00    +0.000 A 
ATOM     31  N   UNL     1       7.403   5.228  14.750  0.00  0.00    +0.000 NA
BRANCH  30  32
ATOM     32  N   UNL     1       8.897   5.959  13.122  0.00  0.00    +0.000 N 
ATOM     33  H   UNL     1       8.814   6.328  12.182  0.00  0.00    +0.000 HD
ATOM     34  H   UNL     1       9.713   5.362  13.230  0.00  0.00    +0.000 HD
ENDBRANCH  30  32
ENDBRANCH  24  25
ENDBRANCH  19  24
ENDBRANCH   5  19
TORSDOF 10
ENDMDL
MODEL 3
REMARK VINA RESULT:      -8.6      1.574      2.138
REMARK  Name = 
REMARK  12 active torsions:
REMARK  status: ('A' for Active; 'I' for Inactive)
REMARK    1  A    between atoms: C_1  and  C_2
REMARK    2  A    between atoms: C_4  and  N_5
REMARK    3  A    between atoms: C_7  and  C_8
REMARK    4  A    between atoms: C_8  and  C_9
REMARK    5  A    between atoms: C_9  and  C_10
REMARK    6  A    between atoms: C_14  and  C_15
REMARK    7  A    between atoms: C_15  and  C_16
REMARK    8  A    between atoms: C_15  and  C_18
REMARK    9  A    between atoms: C_16  and  N_17
REMARK   10  A    between atoms: C_18  and  C_19
REMARK   11  A    between atoms: C_21  and  C_22
REMARK   12  A    between atoms: C_24  and  N_25
REMARK                            x       y       z     vdW  Elec       q    Type
REMARK                         _______ _______ _______ _____ _____    ______ ____
ROOT
ATOM      1  C   UNL     1       7.920   7.914  17.966  0.00  0.00    +0.000 A 
ATOM      2  C   UNL     1       8.431   7.178  19.032  0.00  0.00    +0.000 A 
ATOM      3  C   UNL     1       8.103   5.833  19.141  0.00  0.00    +0.000 A 
ATOM      4  C   UNL     1       7.249   5.261  18.209  0.00  0.00    +0.000 A 
ATOM      5  C   UNL     1       6.739   6.053  17.185  0.00  0.00    +0.000 A 
ATOM      6  N   UNL     1       7.083   7.363  17.054  0.00  0.00    +0.000 NA
ENDROOT
BRANCH   1   7
ATOM      7  C   UNL     1       8.248   9.376  17.776  0.00  0.00    +0.000 C 
BRANCH   7   8
ATOM      8  C   UNL     1       9.086   9.970  18.910  0.00  0.00    +0.000 C 
BRANCH   8  14
ATOM      9  C   UNL     1      12.112  13.193  16.538  0.00  0.00    +0.000 C 
ATOM     10  C   UNL     1      10.972  12.915  17.467  0.00  0.00    +0.000 A 
ATOM     11  C   UNL     1      10.262  13.950  18.076  0.00  0.00    +0.000 A 
ATOM     12  C   UNL     1       9.213  13.638  18.931  0.00  0.00    +0.000 A 
ATOM     13  N   UNL     1       8.835  12.379  19.193  0.00  0.00    +0.000 NA
ATOM     14  C   UNL     1       9.526  11.375  18.599  0.00  0.00    +0.000 A 
ATOM     15  C   UNL     1      10.591  11.601  17.734  0.00  0.00    +0.000 A 
BRANCH  12  16
ATOM     16  N   UNL     1       8.473  14.649  19.539  0.00  0.00    +0.000 N 
ATOM     17  H   UNL     1       9.028  15.162  20.213  0.00  0.00    +0.000 HD
ATOM     18  H   UNL     1       7.670  14.199  19.972  0.00  0.00    +0.000 HD
ENDBRANCH  12  16
ENDBRANCH   8  14
ENDBRANCH   7   8
ENDBRANCH   1   7
BRANCH   5  19
ATOM     19  C   UNL     1       5.836   5.498  16.099  0.00  0.00    +0.000 C 
BRANCH  19  20
ATOM     20  C   UNL     1       6.585   4.392  15.315  0.00  0.00    +0.000 C 
BRANCH  20  21
ATOM     21  N   UNL     1       5.975   4.027  14.031  0.00  0.00    +0.000 NA
ATOM     22  H   UNL     1       5.346   4.776  13.740  0.00  0.00    +0.000 HD
ATOM     23  H   UNL     1       5.372   3.217  14.173  0.00  0.00    +0.000 HD
ENDBRANCH  20  21
ENDBRANCH  19  20
BRANCH  19  24
ATOM     24  C   UNL     1       4.447   5.007  16.554  0.00  0.00    +0.000 C 
BRANCH  24  25
ATOM     25  C   UNL     1       3.761   5.855  17.601  0.00  0.00    +0.000 A 
ATOM     26  C   UNL     1       3.328   7.146  17.308  0.00  0.00    +0.000 A 
ATOM     27  C   UNL     1       2.555   7.830  18.248  0.00  0.00    +0.000 A 
ATOM     28  C   UNL     1       1.996   9.189  17.957  0.00  0.00    +0.000 C 
ATOM     29  C   UNL     1       2.277   7.202  19.462  0.00  0.00    +0.000 A 
ATOM     30  C   UNL     1       2.777   5.929  19.696  0.00  0.00    +0.000 A 
ATOM     31  N   UNL     1       3.498   5.251  18.789  0.00  0.00    +0.000 NA
BRANCH  30  32
ATOM     32  N   UNL     1       2.485   5.263  20.884  0.00  0.00    +0.000 N 
ATOM     33  H   UNL     1       3.328   5.021  21.390  0.00  0.00    +0.000 HD
ATOM     34  H   UNL     1       1.941   4.442  20.630  0.00  0.00    +0.000 HD
ENDBRANCH  30  32
ENDBRANCH  24  25
ENDBRANCH  19  24
ENDBRANCH   5  19
TORSDOF 10
ENDMDL
MODEL 4
REMARK VINA RESULT:      -8.6      1.410      1.738
REMARK  Name = 
REMARK  12 active torsions:
REMARK  status: ('A' for Active; 'I' for Inactive)
REMARK    1  A    between atoms: C_1  and  C_2
REMARK    2  A    between atoms: C_4  and  N_5
REMARK    3  A    between atoms: C_7  and  C_8
REMARK    4  A    between atoms: C_8  and  C_9
REMARK    5  A    between atoms: C_9  and  C_10
REMARK    6  A    between atoms: C_14  and  C_15
REMARK    7  A    between atoms: C_15  and  C_16
REMARK    8  A    between atoms: C_15  and  C_18
REMARK    9  A    between atoms: C_16  and  N_17
REMARK   10  A    between atoms: C_18  and  C_19
REMARK   11  A    between atoms: C_21  and  C_22
REMARK   12  A    between atoms: C_24  and  N_25
REMARK                            x       y       z     vdW  Elec       q    Type
REMARK                         _______ _______ _______ _____ _____    ______ ____
ROOT
ATOM      1  C   UNL     1       7.917   7.890  17.883  0.00  0.00    +0.000 A 
ATOM      2  C   UNL     1       8.331   7.124  18.969  0.00  0.00    +0.000 A 
ATOM      3  C   UNL     1       8.075   5.759  18.969  0.00  0.00    +0.000 A 
ATOM      4  C   UNL     1       7.381   5.195  17.908  0.00  0.00    +0.000 A 
ATOM      5  C   UNL     1       6.958   6.014  16.866  0.00  0.00    +0.000 A 
ATOM      6  N   UNL     1       7.236   7.347  16.844  0.00  0.00    +0.000 NA
ENDROOT
BRANCH   1   7
ATOM      7  C   UNL     1       8.177   9.376  17.809  0.00  0.00    +0.000 C 
BRANCH   7   8
ATOM      8  C   UNL     1       9.144   9.884  18.879  0.00  0.00    +0.000 C 
BRANCH   8  14
ATOM      9  C   UNL     1       8.822  14.869  19.350  0.00  0.00    +0.000 C 
ATOM     10  C   UNL     1       9.488  13.651  18.790  0.00  0.00    +0.000 A 
ATOM     11  C   UNL     1      10.605  13.750  17.960  0.00  0.00    +0.000 A 
ATOM     12  C   UNL     1      11.184  12.589  17.466  0.00  0.00    +0.000 A 
ATOM     13  N   UNL     1      10.727  11.363  17.759  0.00  0.00    +0.000 NA
ATOM     14  C   UNL     1       9.641  11.269  18.566  0.00  0.00    +0.000 A 
ATOM     15  C   UNL     1       9.000  12.382  19.099  0.00  0.00    +0.000 A 
BRANCH  12  16
ATOM     16  N   UNL     1      12.312  12.654  16.651  0.00  0.00    +0.000 N 
ATOM     17  H   UNL     1      12.511  11.759  16.221  0.00  0.00    +0.000 HD
ATOM     18  H   UNL     1      13.077  12.969  17.242  0.00  0.00    +0.000 HD
ENDBRANCH  12  16
ENDBRANCH   8  14
ENDBRANCH   7   8
ENDBRANCH   1   7
BRANCH   5  19
ATOM     19  C   UNL     1       6.234   5.474  15.647  0.00  0.00    +0.000 C 
BRANCH  19  20
ATOM     20  C   UNL     1       6.787   4.071  15.294  0.00  0.00    +0.000 C 
BRANCH  20  21
ATOM     21  N   UNL     1       6.373   3.558  13.982  0.00  0.00    +0.000 NA
ATOM     22  H   UNL     1       5.708   2.795  14.123  0.00  0.00    +0.000 HD
ATOM     23  H   UNL     1       7.179   3.123  13.532  0.00  0.00    +0.000 HD
ENDBRANCH  20  21
ENDBRANCH  19  20
BRANCH  19  24
ATOM     24  C   UNL     1       4.694   5.457  15.722  0.00  0.00    +0.000 C 
BRANCH  24  25
ATOM     25  C   UNL     1       4.104   4.841  16.971  0.00  0.00    +0.000 A 
ATOM     26  C   UNL     1       4.009   3.459  17.113  0.00  0.00    +0.000 A 
ATOM     27  C   UNL     1       3.613   2.932  18.344  0.00  0.00    +0.000 A 
ATOM     28  C   UNL     1       3.570   1.453  18.579  0.00  0.00    +0.000 C 
ATOM     29  C   UNL     1       3.292   3.817  19.373  0.00  0.00    +0.000 A 
ATOM     30  C   UNL     1       3.373   5.182  19.141  0.00  0.00    +0.000 A 
ATOM     31  N   UNL     1       3.779   5.700  17.971  0.00  0.00    +0.000 NA
BRANCH  30  32
ATOM     32  N   UNL     1       3.093   6.089  20.161  0.00  0.00    +0.000 N 
ATOM     33  H   UNL     1       3.412   7.021  19.926  0.00  0.00    +0.000 HD
ATOM     34  H   UNL     1       3.542   5.729  21.000  0.00  0.00    +0.000 HD
ENDBRANCH  30  32
ENDBRANCH  24  25
ENDBRANCH  19  24
ENDBRANCH   5  19
TORSDOF 10
ENDMDL
MODEL 5
REMARK VINA RESULT:      -8.6      1.535      2.055
REMARK  Name = 
REMARK  12 active torsions:
REMARK  status: ('A' for Active; 'I' for Inactive)
REMARK    1  A    between atoms: C_1  and  C_2
REMARK    2  A    between atoms: C_4  and  N_5
REMARK    3  A    between atoms: C_7  and  C_8
REMARK    4  A    between atoms: C_8  and  C_9
REMARK    5  A    between atoms: C_9  and  C_10
REMARK    6  A    between atoms: C_14  and  C_15
REMARK    7  A    between atoms: C_15  and  C_16
REMARK    8  A    between atoms: C_15  and  C_18
REMARK    9  A    between atoms: C_16  and  N_17
REMARK   10  A    between atoms: C_18  and  C_19
REMARK   11  A    between atoms: C_21  and  C_22
REMARK   12  A    between atoms: C_24  and  N_25
REMARK                            x       y       z     vdW  Elec       q    Type
REMARK                         _______ _______ _______ _____ _____    ______ ____
ROOT
ATOM      1  C   UNL     1       7.880   7.640  17.931  0.00  0.00    +0.000 A 
ATOM      2  C   UNL     1       8.331   6.781  18.929  0.00  0.00    +0.000 A 
ATOM      3  C   UNL     1       7.957   5.444  18.888  0.00  0.00    +0.000 A 
ATOM      4  C   UNL     1       7.116   5.002  17.877  0.00  0.00    +0.000 A 
ATOM      5  C   UNL     1       6.666   5.912  16.926  0.00  0.00    +0.000 A 
ATOM      6  N   UNL     1       7.057   7.216  16.942  0.00  0.00    +0.000 NA
ENDROOT
BRANCH   1   7
ATOM      7  C   UNL     1       8.261   9.101  17.904  0.00  0.00    +0.000 C 
BRANCH   7   8
ATOM      8  C   UNL     1       9.023   9.561  19.148  0.00  0.00    +0.000 C 
BRANCH   8  14
ATOM      9  C   UNL     1       9.794  14.193  20.917  0.00  0.00    +0.000 C 
ATOM     10  C   UNL     1       9.928  13.171  19.831  0.00  0.00    +0.000 A 
ATOM     11  C   UNL     1      10.565  13.468  18.627  0.00  0.00    +0.000 A 
ATOM     12  C   UNL     1      10.662  12.485  17.652  0.00  0.00    +0.000 A 
ATOM     13  N   UNL     1      10.179  11.245  17.816  0.00  0.00    +0.000 NA
ATOM     14  C   UNL     1       9.560  10.957  18.987  0.00  0.00    +0.000 A 
ATOM     15  C   UNL     1       9.417  11.886  20.013  0.00  0.00    +0.000 A 
BRANCH  12  16
ATOM     16  N   UNL     1      11.310  12.745  16.447  0.00  0.00    +0.000 N 
ATOM     17  H   UNL     1      11.983  12.022  16.224  0.00  0.00    +0.000 HD
ATOM     18  H   UNL     1      11.752  13.655  16.547  0.00  0.00    +0.000 HD
ENDBRANCH  12  16
ENDBRANCH   8  14
ENDBRANCH   7   8
ENDBRANCH   1   7
BRANCH   5  19
ATOM     19  C   UNL     1       5.782   5.505  15.762  0.00  0.00    +0.000 C 
BRANCH  19  20
ATOM     20  C   UNL     1       6.638   4.797  14.682  0.00  0.00    +0.000 C 
BRANCH  20  21
ATOM     21  N   UNL     1       7.864   5.509  14.303  0.00  0.00    +0.000 NA
ATOM     22  H   UNL     1       7.609   6.412  13.899  0.00  0.00    +0.000 HD
ATOM     23  H   UNL     1       8.317   5.000  13.545  0.00  0.00    +0.000 HD
ENDBRANCH  20  21
ENDBRANCH  19  20
BRANCH  19  24
ATOM     24  C   UNL     1       4.537   4.668  16.114  0.00  0.00    +0.000 C 
BRANCH  24  25
ATOM     25  C   UNL     1       3.884   4.985  17.441  0.00  0.00    +0.000 A 
ATOM     26  C   UNL     1       3.415   6.266  17.721  0.00  0.00    +0.000 A 
ATOM     27  C   UNL     1       2.674   6.474  18.886  0.00  0.00    +0.000 A 
ATOM     28  C   UNL     1       2.077   7.812  19.200  0.00  0.00    +0.000 C 
ATOM     29  C   UNL     1       2.465   5.394  19.743  0.00  0.00    +0.000 A 
ATOM     30  C   UNL     1       2.999   4.157  19.414  0.00  0.00    +0.000 A 
ATOM     31  N   UNL     1       3.689   3.938  18.283  0.00  0.00    +0.000 NA
BRANCH  30  32
ATOM     32  N   UNL     1       2.776   3.051  20.232  0.00  0.00    +0.000 N 
ATOM     33  H   UNL     1       3.300   3.117  21.096  0.00  0.00    +0.000 HD
ATOM     34  H   UNL     1       3.034   2.232  19.687  0.00  0.00    +0.000 HD
ENDBRANCH  30  32
ENDBRANCH  24  25
ENDBRANCH  19  24
ENDBRANCH   5  19
TORSDOF 10
ENDMDL
MODEL 6
REMARK VINA RESULT:      -8.5      4.669      7.372
REMARK  Name = 
REMARK  12 active torsions:
REMARK  status: ('A' for Active; 'I' for Inactive)
REMARK    1  A    between atoms: C_1  and  C_2
REMARK    2  A    between atoms: C_4  and  N_5
REMARK    3  A    between atoms: C_7  and  C_8
REMARK    4  A    between atoms: C_8  and  C_9
REMARK    5  A    between atoms: C_9  and  C_10
REMARK    6  A    between atoms: C_14  and  C_15
REMARK    7  A    between atoms: C_15  and  C_16
REMARK    8  A    between atoms: C_15  and  C_18
REMARK    9  A    between atoms: C_16  and  N_17
REMARK   10  A    between atoms: C_18  and  C_19
REMARK   11  A    between atoms: C_21  and  C_22
REMARK   12  A    between atoms: C_24  and  N_25
REMARK                            x       y       z     vdW  Elec       q    Type
REMARK                         _______ _______ _______ _____ _____    ______ ____
ROOT
ATOM      1  C   UNL     1       2.770   5.899  19.614  0.00  0.00    +0.000 A 
ATOM      2  C   UNL     1       2.790   4.697  20.316  0.00  0.00    +0.000 A 
ATOM      3  C   UNL     1       3.494   3.622  19.791  0.00  0.00    +0.000 A 
ATOM      4  C   UNL     1       4.130   3.755  18.565  0.00  0.00    +0.000 A 
ATOM      5  C   UNL     1       4.047   4.968  17.890  0.00  0.00    +0.000 A 
ATOM      6  N   UNL     1       3.387   6.037  18.415  0.00  0.00    +0.000 NA
ENDROOT
BRANCH   1   7
ATOM      7  C   UNL     1       2.039   7.115  20.133  0.00  0.00    +0.000 C 
BRANCH   7   8
ATOM      8  C   UNL     1       1.972   8.266  19.127  0.00  0.00    +0.000 C 
BRANCH   8  14
ATOM      9  C   UNL     1      -0.718  10.456  22.753  0.00  0.00    +0.000 C 
ATOM     10  C   UNL     1      -0.195  10.429  21.351  0.00  0.00    +0.000 A 
ATOM     11  C   UNL     1      -0.496  11.445  20.443  0.00  0.00    +0.000 A 
ATOM     12  C   UNL     1       0.014  11.371  19.153  0.00  0.00    +0.000 A 
ATOM     13  N   UNL     1       0.800  10.368  18.735  0.00  0.00    +0.000 NA
ATOM     14  C   UNL     1       1.091   9.382  19.619  0.00  0.00    +0.000 A 
ATOM     15  C   UNL     1       0.618   9.379  20.927  0.00  0.00    +0.000 A 
BRANCH  12  16
ATOM     16  N   UNL     1      -0.252  12.380  18.230  0.00  0.00    +0.000 N 
ATOM     17  H   UNL     1       0.599  12.725  17.803  0.00  0.00    +0.000 HD
ATOM     18  H   UNL     1      -0.747  13.111  18.734  0.00  0.00    +0.000 HD
ENDBRANCH  12  16
ENDBRANCH   8  14
ENDBRANCH   7   8
ENDBRANCH   1   7
BRANCH   5  19
ATOM     19  C   UNL     1       4.749   5.215  16.568  0.00  0.00    +0.000 C 
BRANCH  19  20
ATOM     20  C   UNL     1       5.006   6.732  16.392  0.00  0.00    +0.000 C 
BRANCH  20  21
ATOM     21  N   UNL     1       6.299   7.202  16.904  0.00  0.00    +0.000 NA
ATOM     22  H   UNL     1       6.434   8.173  16.616  0.00  0.00    +0.000 HD
ATOM     23  H   UNL     1       7.044   6.685  16.437  0.00  0.00    +0.000 HD
ENDBRANCH  20  21
ENDBRANCH  19  20
BRANCH  19  24
ATOM     24  C   UNL     1       6.037   4.406  16.320  0.00  0.00    +0.000 C 
BRANCH  24  25
ATOM     25  C   UNL     1       6.497   4.326  14.882  0.00  0.00    +0.000 A 
ATOM     26  C   UNL     1       5.827   3.529  13.957  0.00  0.00    +0.000 A 
ATOM     27  C   UNL     1       6.181   3.613  12.609  0.00  0.00    +0.000 A 
ATOM     28  C   UNL     1       5.442   2.839  11.560  0.00  0.00    +0.000 C 
ATOM     29  C   UNL     1       7.222   4.469  12.248  0.00  0.00    +0.000 A 
ATOM     30  C   UNL     1       7.868   5.200  13.233  0.00  0.00    +0.000 A 
ATOM     31  N   UNL     1       7.518   5.149  14.528  0.00  0.00    +0.000 NA
BRANCH  30  32
ATOM     32  N   UNL     1       8.888   6.089  12.898  0.00  0.00    +0.000 N 
ATOM     33  H   UNL     1       9.512   6.250  13.679  0.00  0.00    +0.000 HD
ATOM     34  H   UNL     1       8.434   6.945  12.586  0.00  0.00    +0.000 HD
ENDBRANCH  30  32
ENDBRANCH  24  25
ENDBRANCH  19  24
ENDBRANCH   5  19
TORSDOF 10
ENDMDL
MODEL 7
REMARK VINA RESULT:      -8.3      4.304      7.636
REMARK  Name = 
REMARK  12 active torsions:
REMARK  status: ('A' for Active; 'I' for Inactive)
REMARK    1  A    between atoms: C_1  and  C_2
REMARK    2  A    between atoms: C_4  and  N_5
REMARK    3  A    between atoms: C_7  and  C_8
REMARK    4  A    between atoms: C_8  and  C_9
REMARK    5  A    between atoms: C_9  and  C_10
REMARK    6  A    between atoms: C_14  and  C_15
REMARK    7  A    between atoms: C_15  and  C_16
REMARK    8  A    between atoms: C_15  and  C_18
REMARK    9  A    between atoms: C_16  and  N_17
REMARK   10  A    between atoms: C_18  and  C_19
REMARK   11  A    between atoms: C_21  and  C_22
REMARK   12  A    between atoms: C_24  and  N_25
REMARK                            x       y       z     vdW  Elec       q    Type
REMARK                         _______ _______ _______ _____ _____    ______ ____
ROOT
ATOM      1  C   UNL     1       2.681   6.332  18.079  0.00  0.00    +0.000 A 
ATOM      2  C   UNL     1       2.028   5.106  17.984  0.00  0.00    +0.000 A 
ATOM      3  C   UNL     1       2.739   3.995  17.551  0.00  0.00    +0.000 A 
ATOM      4  C   UNL     1       4.071   4.136  17.188  0.00  0.00    +0.000 A 
ATOM      5  C   UNL     1       4.663   5.392  17.267  0.00  0.00    +0.000 A 
ATOM      6  N   UNL     1       3.981   6.478  17.724  0.00  0.00    +0.000 NA
ENDROOT
BRANCH   1   7
ATOM      7  C   UNL     1       1.975   7.578  18.558  0.00  0.00    +0.000 C 
BRANCH   7   8
ATOM      8  C   UNL     1       1.942   7.718  20.082  0.00  0.00    +0.000 C 
BRANCH   8  14
ATOM      9  C   UNL     1      -0.320  12.104  19.178  0.00  0.00    +0.000 C 
ATOM     10  C   UNL     1      -0.021  10.952  20.086  0.00  0.00    +0.000 A 
ATOM     11  C   UNL     1      -0.557  10.881  21.372  0.00  0.00    +0.000 A 
ATOM     12  C   UNL     1      -0.248   9.791  22.174  0.00  0.00    +0.000 A 
ATOM     13  N   UNL     1       0.540   8.785  21.766  0.00  0.00    +0.000 NA
ATOM     14  C   UNL     1       1.060   8.856  20.516  0.00  0.00    +0.000 A 
ATOM     15  C   UNL     1       0.802   9.915  19.651  0.00  0.00    +0.000 A 
BRANCH  12  16
ATOM     16  N   UNL     1      -0.784   9.682  23.455  0.00  0.00    +0.000 N 
ATOM     17  H   UNL     1      -0.105   9.929  24.164  0.00  0.00    +0.000 HD
ATOM     18  H   UNL     1      -1.102   8.721  23.554  0.00  0.00    +0.000 HD
ENDBRANCH  12  16
ENDBRANCH   8  14
ENDBRANCH   7   8
ENDBRANCH   1   7
BRANCH   5  19
ATOM     19  C   UNL     1       6.125   5.627  16.934  0.00  0.00    +0.000 C 
BRANCH  19  20
ATOM     20  C   UNL     1       6.857   6.193  18.177  0.00  0.00    +0.000 C 
BRANCH  20  21
ATOM     21  N   UNL     1       7.211   5.193  19.191  0.00  0.00    +0.000 NA
ATOM     22  H   UNL     1       7.490   4.331  18.720  0.00  0.00    +0.000 HD
ATOM     23  H   UNL     1       6.372   4.947  19.715  0.00  0.00    +0.000 HD
ENDBRANCH  20  21
ENDBRANCH  19  20
BRANCH  19  24
ATOM     24  C   UNL     1       6.890   4.426  16.344  0.00  0.00    +0.000 C 
BRANCH  24  25
ATOM     25  C   UNL     1       6.995   4.391  14.836  0.00  0.00    +0.000 A 
ATOM     26  C   UNL     1       6.164   3.570  14.077  0.00  0.00    +0.000 A 
ATOM     27  C   UNL     1       6.181   3.690  12.687  0.00  0.00    +0.000 A 
ATOM     28  C   UNL     1       5.252   2.890  11.825  0.00  0.00    +0.000 C 
ATOM     29  C   UNL     1       7.060   4.607  12.110  0.00  0.00    +0.000 A 
ATOM     30  C   UNL     1       7.886   5.360  12.931  0.00  0.00    +0.000 A 
ATOM     31  N   UNL     1       7.859   5.273  14.271  0.00  0.00    +0.000 NA
BRANCH  30  32
ATOM     32  N   UNL     1       8.748   6.309  12.385  0.00  0.00    +0.000 N 
ATOM     33  H   UNL     1       8.736   7.171  12.917  0.00  0.00    +0.000 HD
ATOM     34  H   UNL     1       8.454   6.447  11.422  0.00  0.00    +0.000 HD
ENDBRANCH  30  32
ENDBRANCH  24  25
ENDBRANCH  19  24
ENDBRANCH   5  19
TORSDOF 10
ENDMDL
MODEL 8
REMARK VINA RESULT:      -8.3      1.239      1.790
REMARK  Name = 
REMARK  12 active torsions:
REMARK  status: ('A' for Active; 'I' for Inactive)
REMARK    1  A    between atoms: C_1  and  C_2
REMARK    2  A    between atoms: C_4  and  N_5
REMARK    3  A    between atoms: C_7  and  C_8
REMARK    4  A    between atoms: C_8  and  C_9
REMARK    5  A    between atoms: C_9  and  C_10
REMARK    6  A    between atoms: C_14  and  C_15
REMARK    7  A    between atoms: C_15  and  C_16
REMARK    8  A    between atoms: C_15  and  C_18
REMARK    9  A    between atoms: C_16  and  N_17
REMARK   10  A    between atoms: C_18  and  C_19
REMARK   11  A    between atoms: C_21  and  C_22
REMARK   12  A    between atoms: C_24  and  N_25
REMARK                            x       y       z     vdW  Elec       q    Type
REMARK                         _______ _______ _______ _____ _____    ______ ____
ROOT
ATOM      1  C   UNL     1       7.556   7.424  17.848  0.00  0.00    +0.000 A 
ATOM      2  C   UNL     1       8.189   6.626  18.798  0.00  0.00    +0.000 A 
ATOM      3  C   UNL     1       7.750   5.323  18.985  0.00  0.00    +0.000 A 
ATOM      4  C   UNL     1       6.670   4.854  18.251  0.00  0.00    +0.000 A 
ATOM      5  C   UNL     1       6.051   5.706  17.342  0.00  0.00    +0.000 A 
ATOM      6  N   UNL     1       6.499   6.974  17.129  0.00  0.00    +0.000 NA
ENDROOT
BRANCH   1   7
ATOM      7  C   UNL     1       7.991   8.845  17.580  0.00  0.00    +0.000 C 
BRANCH   7   8
ATOM      8  C   UNL     1       8.976   9.391  18.616  0.00  0.00    +0.000 C 
BRANCH   8  14
ATOM      9  C   UNL     1       7.626  14.082  17.455  0.00  0.00    +0.000 C 
ATOM     10  C   UNL     1       8.678  13.072  17.793  0.00  0.00    +0.000 A 
ATOM     11  C   UNL     1      10.024  13.427  17.885  0.00  0.00    +0.000 A 
ATOM     12  C   UNL     1      10.960  12.452  18.201  0.00  0.00    +0.000 A 
ATOM     13  N   UNL     1      10.630  11.173  18.438  0.00  0.00    +0.000 NA
ATOM     14  C   UNL     1       9.322  10.831  18.349  0.00  0.00    +0.000 A 
ATOM     15  C   UNL     1       8.322  11.746  18.034  0.00  0.00    +0.000 A 
BRANCH  12  16
ATOM     16  N   UNL     1      12.308  12.778  18.320  0.00  0.00    +0.000 N 
ATOM     17  H   UNL     1      12.543  13.593  17.767  0.00  0.00    +0.000 HD
ATOM     18  H   UNL     1      12.832  11.957  18.026  0.00  0.00    +0.000 HD
ENDBRANCH  12  16
ENDBRANCH   8  14
ENDBRANCH   7   8
ENDBRANCH   1   7
BRANCH   5  19
ATOM     19  C   UNL     1       4.894   5.263  16.466  0.00  0.00    +0.000 C 
BRANCH  19  20
ATOM     20  C   UNL     1       5.410   4.961  15.037  0.00  0.00    +0.000 C 
BRANCH  20  21
ATOM     21  N   UNL     1       6.597   4.099  14.979  0.00  0.00    +0.000 NA
ATOM     22  H   UNL     1       6.342   3.219  14.528  0.00  0.00    +0.000 HD
ATOM     23  H   UNL     1       6.860   3.841  15.929  0.00  0.00    +0.000 HD
ENDBRANCH  20  21
ENDBRANCH  19  20
BRANCH  19  24
ATOM     24  C   UNL     1       4.044   4.094  17.002  0.00  0.00    +0.000 C 
BRANCH  24  25
ATOM     25  C   UNL     1       3.175   4.409  18.199  0.00  0.00    +0.000 A 
ATOM     26  C   UNL     1       2.629   3.391  18.977  0.00  0.00    +0.000 A 
ATOM     27  C   UNL     1       1.973   3.723  20.163  0.00  0.00    +0.000 A 
ATOM     28  C   UNL     1       1.436   2.666  21.079  0.00  0.00    +0.000 C 
ATOM     29  C   UNL     1       1.860   5.071  20.504  0.00  0.00    +0.000 A 
ATOM     30  C   UNL     1       2.395   6.030  19.657  0.00  0.00    +0.000 A 
ATOM     31  N   UNL     1       3.052   5.721  18.528  0.00  0.00    +0.000 NA
BRANCH  30  32
ATOM     32  N   UNL     1       2.329   7.381  19.989  0.00  0.00    +0.000 N 
ATOM     33  H   UNL     1       2.422   7.970  19.170  0.00  0.00    +0.000 HD
ATOM     34  H   UNL     1       3.067   7.549  20.669  0.00  0.00    +0.000 HD
ENDBRANCH  30  32
ENDBRANCH  24  25
ENDBRANCH  19  24
ENDBRANCH   5  19
TORSDOF 10
ENDMDL
MODEL 9
REMARK VINA RESULT:      -8.3      4.582      7.639
REMARK  Name = 
REMARK  12 active torsions:
REMARK  status: ('A' for Active; 'I' for Inactive)
REMARK    1  A    between atoms: C_1  and  C_2
REMARK    2  A    between atoms: C_4  and  N_5
REMARK    3  A    between atoms: C_7  and  C_8
REMARK    4  A    between atoms: C_8  and  C_9
REMARK    5  A    between atoms: C_9  and  C_10
REMARK    6  A    between atoms: C_14  and  C_15
REMARK    7  A    between atoms: C_15  and  C_16
REMARK    8  A    between atoms: C_15  and  C_18
REMARK    9  A    between atoms: C_16  and  N_17
REMARK   10  A    between atoms: C_18  and  C_19
REMARK   11  A    between atoms: C_21  and  C_22
REMARK   12  A    between atoms: C_24  and  N_25
REMARK                            x       y       z     vdW  Elec       q    Type
REMARK                         _______ _______ _______ _____ _____    ______ ____
ROOT
ATOM      1  C   UNL     1       2.580   6.388  19.500  0.00  0.00    +0.000 A 
ATOM      2  C   UNL     1       2.457   5.208  20.229  0.00  0.00    +0.000 A 
ATOM      3  C   UNL     1       3.081   4.059  19.762  0.00  0.00    +0.000 A 
ATOM      4  C   UNL     1       3.782   4.101  18.565  0.00  0.00    +0.000 A 
ATOM      5  C   UNL     1       3.842   5.298  17.859  0.00  0.00    +0.000 A 
ATOM      6  N   UNL     1       3.260   6.436  18.329  0.00  0.00    +0.000 NA
ENDROOT
BRANCH   1   7
ATOM      7  C   UNL     1       1.942   7.679  19.956  0.00  0.00    +0.000 C 
BRANCH   7   8
ATOM      8  C   UNL     1       1.996   8.794  18.909  0.00  0.00    +0.000 C 
BRANCH   8  14
ATOM      9  C   UNL     1      -2.331  10.486  17.015  0.00  0.00    +0.000 C 
ATOM     10  C   UNL     1      -1.280  10.496  18.081  0.00  0.00    +0.000 A 
ATOM     11  C   UNL     1      -1.383  11.328  19.196  0.00  0.00    +0.000 A 
ATOM     12  C   UNL     1      -0.380  11.300  20.155  0.00  0.00    +0.000 A 
ATOM     13  N   UNL     1       0.689  10.494  20.069  0.00  0.00    +0.000 NA
ATOM     14  C   UNL     1       0.787   9.686  18.986  0.00  0.00    +0.000 A 
ATOM     15  C   UNL     1      -0.172   9.656  17.978  0.00  0.00    +0.000 A 
BRANCH  12  16
ATOM     16  N   UNL     1      -0.463  12.104  21.289  0.00  0.00    +0.000 N 
ATOM     17  H   UNL     1      -1.085  12.889  21.142  0.00  0.00    +0.000 HD
ATOM     18  H   UNL     1       0.485  12.405  21.500  0.00  0.00    +0.000 HD
ENDBRANCH  12  16
ENDBRANCH   8  14
ENDBRANCH   7   8
ENDBRANCH   1   7
BRANCH   5  19
ATOM     19  C   UNL     1       4.623   5.444  16.567  0.00  0.00    +0.000 C 
BRANCH  19  20
ATOM     20  C   UNL     1       5.062   6.919  16.390  0.00  0.00    +0.000 C 
BRANCH  20  21
ATOM     21  N   UNL     1       6.349   7.258  17.010  0.00  0.00    +0.000 NA
ATOM     22  H   UNL     1       6.413   8.273  17.100  0.00  0.00    +0.000 HD
ATOM     23  H   UNL     1       7.099   7.003  16.368  0.00  0.00    +0.000 HD
ENDBRANCH  20  21
ENDBRANCH  19  20
BRANCH  19  24
ATOM     24  C   UNL     1       5.817   4.487  16.381  0.00  0.00    +0.000 C 
BRANCH  24  25
ATOM     25  C   UNL     1       6.342   4.358  14.969  0.00  0.00    +0.000 A 
ATOM     26  C   UNL     1       5.697   3.551  14.035  0.00  0.00    +0.000 A 
ATOM     27  C   UNL     1       6.116   3.589  12.704  0.00  0.00    +0.000 A 
ATOM     28  C   UNL     1       5.409   2.803  11.642  0.00  0.00    +0.000 C 
ATOM     29  C   UNL     1       7.193   4.411  12.370  0.00  0.00    +0.000 A 
ATOM     30  C   UNL     1       7.809   5.154  13.365  0.00  0.00    +0.000 A 
ATOM     31  N   UNL     1       7.397   5.147  14.643  0.00  0.00    +0.000 NA
BRANCH  30  32
ATOM     32  N   UNL     1       8.864   6.011  13.056  0.00  0.00    +0.000 N 
ATOM     33  H   UNL     1       9.591   5.974  13.759  0.00  0.00    +0.000 HD
ATOM     34  H   UNL     1       8.463   6.942  12.965  0.00  0.00    +0.000 HD
ENDBRANCH  30  32
ENDBRANCH  24  25
ENDBRANCH  19  24
ENDBRANCH   5  19
TORSDOF 10
ENDMDL
