MODEL 1
REMARK VINA RESULT:      -6.8      0.000      0.000
REMARK  Name = 
REMARK  10 active torsions:
REMARK  status: ('A' for Active; 'I' for Inactive)
REMARK    1  A    between atoms: C_1  and  C_2
REMARK    2  A    between atoms: C_5  and  N_6
REMARK    3  A    between atoms: C_7  and  C_9
REMARK    4  A    between atoms: C_9  and  O_10
REMARK    5  A    between atoms: O_10  and  C_11
REMARK    6  A    between atoms: C_11  and  C_13
REMARK    7  A    between atoms: C_13  and  C_14
REMARK    8  A    between atoms: C_14  and  C_15
REMARK    9  A    between atoms: C_15  and  C_17
REMARK   10  A    between atoms: C_22  and  C_23
REMARK                            x       y       z     vdW  Elec       q    Type
REMARK                         _______ _______ _______ _____ _____    ______ ____
ROOT
ATOM      1  C   UNL     1       2.720   4.076  21.004  0.00  0.00    +0.000 C 
ENDROOT
BRANCH   1   3
ATOM      2  N   UNL     1       2.345   6.458  20.614  0.00  0.00    +0.000 N 
ATOM      3  C   UNL     1       1.747   5.206  20.663  0.00  0.00    +0.000 C 
ATOM      4  O   UNL     1       0.568   4.942  20.448  0.00  0.00    +0.000 OA
ATOM      5  H   UNL     1       3.354   6.460  20.732  0.00  0.00    +0.000 HD
BRANCH   2  10
ATOM      6  C   UNL     1      -0.194  11.484  19.408  0.00  0.00    +0.000 C 
ATOM      7  C   UNL     1       0.466  10.175  19.719  0.00  0.00    +0.000 A 
ATOM      8  C   UNL     1       0.303   9.577  20.961  0.00  0.00    +0.000 A 
ATOM      9  C   UNL     1       0.929   8.362  21.249  0.00  0.00    +0.000 A 
ATOM     10  C   UNL     1       1.728   7.698  20.308  0.00  0.00    +0.000 A 
ATOM     11  C   UNL     1       1.896   8.294  19.039  0.00  0.00    +0.000 A 
ATOM     12  C   UNL     1       2.734   7.730  17.920  0.00  0.00    +0.000 C 
ATOM     13  C   UNL     1       1.264   9.529  18.767  0.00  0.00    +0.000 A 
ENDBRANCH   2  10
ENDBRANCH   1   3
BRANCH   1  14
ATOM     14  O   UNL     1       2.882   3.178  19.909  0.00  0.00    +0.000 OA
BRANCH  14  15
ATOM     15  C   UNL     1       4.047   3.315  19.226  0.00  0.00    +0.000 C 
ATOM     16  O   UNL     1       5.157   3.038  19.666  0.00  0.00    +0.000 OA
BRANCH  15  17
ATOM     17  C   UNL     1       3.782   3.919  17.869  0.00  0.00    +0.000 C 
BRANCH  17  18
ATOM     18  C   UNL     1       4.714   3.338  16.814  0.00  0.00    +0.000 C 
BRANCH  18  19
ATOM     19  C   UNL     1       5.400   4.424  15.989  0.00  0.00    +0.000 C 
ATOM     20  O   UNL     1       5.280   4.437  14.764  0.00  0.00    +0.000 OA
BRANCH  19  21
ATOM     21  C   UNL     1       6.165   5.415  16.740  0.00  0.00    +0.000 A 
ATOM     22  C   UNL     1       6.045   6.794  16.762  0.00  0.00    +0.000 A 
ATOM     23  C   UNL     1       7.004   7.414  17.616  0.00  0.00    +0.000 A 
ATOM     24  C   UNL     1       7.821   6.491  18.227  0.00  0.00    +0.000 A 
ATOM     25  S   UNL     1       7.430   4.891  17.776  0.00  0.00    +0.000 S 
ENDBRANCH  19  21
ENDBRANCH  18  19
ENDBRANCH  17  18
ENDBRANCH  15  17
ENDBRANCH  14  15
ENDBRANCH   1  14
TORSDOF 8
ENDMDL
MODEL 2
REMARK VINA RESULT:      -6.8      4.194      7.671
REMARK  Name = 
REMARK  10 active torsions:
REMARK  status: ('A' for Active; 'I' for Inactive)
REMARK    1  A    between atoms: C_1  and  C_2
REMARK    2  A    between atoms: C_5  and  N_6
REMARK    3  A    between atoms: C_7  and  C_9
REMARK    4  A    between atoms: C_9  and  O_10
REMARK    5  A    between atoms: O_10  and  C_11
REMARK    6  A    between atoms: C_11  and  C_13
REMARK    7  A    between atoms: C_13  and  C_14
REMARK    8  A    between atoms: C_14  and  C_15
REMARK    9  A    between atoms: C_15  and  C_17
REMARK   10  A    between atoms: C_22  and  C_23
REMARK                            x       y       z     vdW  Elec       q    Type
REMARK                         _______ _______ _______ _____ _____    ______ ____
ROOT
ATOM      1  C   UNL     1       7.454   6.741  17.420  0.00  0.00    +0.000 C 
ENDROOT
BRANCH   1   3
ATOM      2  N   UNL     1       6.654   5.781  15.321  0.00  0.00    +0.000 N 
ATOM      3  C   UNL     1       7.391   5.541  16.473  0.00  0.00    +0.000 C 
ATOM      4  O   UNL     1       7.981   4.507  16.772  0.00  0.00    +0.000 OA
ATOM      5  H   UNL     1       6.318   6.733  15.213  0.00  0.00    +0.000 HD
BRANCH   2  10
ATOM      6  C   UNL     1       5.686   2.126  10.978  0.00  0.00    +0.000 C 
ATOM      7  C   UNL     1       5.941   3.077  12.108  0.00  0.00    +0.000 A 
ATOM      8  C   UNL     1       5.084   3.125  13.199  0.00  0.00    +0.000 A 
ATOM      9  C   UNL     1       5.321   4.021  14.245  0.00  0.00    +0.000 A 
ATOM     10  C   UNL     1       6.422   4.888  14.244  0.00  0.00    +0.000 A 
ATOM     11  C   UNL     1       7.304   4.843  13.142  0.00  0.00    +0.000 A 
ATOM     12  C   UNL     1       8.522   5.715  12.969  0.00  0.00    +0.000 C 
ATOM     13  C   UNL     1       7.044   3.938  12.087  0.00  0.00    +0.000 A 
ENDBRANCH   2  10
ENDBRANCH   1   3
BRANCH   1  14
ATOM     14  O   UNL     1       6.308   6.800  18.266  0.00  0.00    +0.000 OA
BRANCH  14  15
ATOM     15  C   UNL     1       6.135   5.720  19.070  0.00  0.00    +0.000 C 
ATOM     16  O   UNL     1       6.932   5.343  19.920  0.00  0.00    +0.000 OA
BRANCH  15  17
ATOM     17  C   UNL     1       4.849   5.015  18.718  0.00  0.00    +0.000 C 
BRANCH  17  18
ATOM     18  C   UNL     1       5.071   3.519  18.532  0.00  0.00    +0.000 C 
BRANCH  18  19
ATOM     19  C   UNL     1       4.447   2.699  19.656  0.00  0.00    +0.000 C 
ATOM     20  O   UNL     1       5.158   1.994  20.374  0.00  0.00    +0.000 OA
BRANCH  19  21
ATOM     21  C   UNL     1       3.002   2.824  19.819  0.00  0.00    +0.000 A 
ATOM     22  C   UNL     1       2.259   3.093  20.955  0.00  0.00    +0.000 A 
ATOM     23  C   UNL     1       0.856   3.111  20.702  0.00  0.00    +0.000 A 
ATOM     24  C   UNL     1       0.569   2.865  19.379  0.00  0.00    +0.000 A 
ATOM     25  S   UNL     1       1.983   2.617  18.452  0.00  0.00    +0.000 S 
ENDBRANCH  19  21
ENDBRANCH  18  19
ENDBRANCH  17  18
ENDBRANCH  15  17
ENDBRANCH  14  15
ENDBRANCH   1  14
TORSDOF 8
ENDMDL
MODEL 3
REMARK VINA RESULT:      -6.6      1.269      1.527
REMARK  Name = 
REMARK  10 active torsions:
REMARK  status: ('A' for Active; 'I' for Inactive)
REMARK    1  A    between atoms: C_1  and  C_2
REMARK    2  A    between atoms: C_5  and  N_6
REMARK    3  A    between atoms: C_7  and  C_9
REMARK    4  A    between atoms: C_9  and  O_10
REMARK    5  A    between atoms: O_10  and  C_11
REMARK    6  A    between atoms: C_11  and  C_13
REMARK    7  A    between atoms: C_13  and  C_14
REMARK    8  A    between atoms: C_14  and  C_15
REMARK    9  A    between atoms: C_15  and  C_17
REMARK   10  A    between atoms: C_22  and  C_23
REMARK                            x       y       z     vdW  Elec       q    Type
REMARK                         _______ _______ _______ _____ _____    ______ ____
ROOT
ATOM      1  C   UNL     1       2.756   3.580  20.583  0.00  0.00    +0.000 C 
ENDROOT
BRANCH   1   3
ATOM      2  N   UNL     1       2.472   5.987  20.271  0.00  0.00    +0.000 N 
ATOM      3  C   UNL     1       1.816   4.784  20.496  0.00  0.00    +0.000 C 
ATOM      4  O   UNL     1       0.605   4.612  20.606  0.00  0.00    +0.000 OA
ATOM      5  H   UNL     1       3.473   5.911  20.117  0.00  0.00    +0.000 HD
BRANCH   2  10
ATOM      6  C   UNL     1       0.081  11.194  19.702  0.00  0.00    +0.000 C 
ATOM      7  C   UNL     1       0.702   9.839  19.847  0.00  0.00    +0.000 A 
ATOM      8  C   UNL     1       0.552   9.112  21.021  0.00  0.00    +0.000 A 
ATOM      9  C   UNL     1       1.143   7.854  21.155  0.00  0.00    +0.000 A 
ATOM     10  C   UNL     1       1.892   7.272  20.122  0.00  0.00    +0.000 A 
ATOM     11  C   UNL     1       2.046   7.998  18.922  0.00  0.00    +0.000 A 
ATOM     12  C   UNL     1       2.833   7.535  17.722  0.00  0.00    +0.000 C 
ATOM     13  C   UNL     1       1.451   9.276  18.807  0.00  0.00    +0.000 A 
ENDBRANCH   2  10
ENDBRANCH   1   3
BRANCH   1  14
ATOM     14  O   UNL     1       2.276   2.486  19.806  0.00  0.00    +0.000 OA
BRANCH  14  15
ATOM     15  C   UNL     1       2.232   2.710  18.468  0.00  0.00    +0.000 C 
ATOM     16  O   UNL     1       1.207   2.847  17.812  0.00  0.00    +0.000 OA
BRANCH  15  17
ATOM     17  C   UNL     1       3.628   2.701  17.897  0.00  0.00    +0.000 C 
BRANCH  17  18
ATOM     18  C   UNL     1       3.880   3.929  17.031  0.00  0.00    +0.000 C 
BRANCH  18  19
ATOM     19  C   UNL     1       5.336   4.033  16.587  0.00  0.00    +0.000 C 
ATOM     20  O   UNL     1       5.663   3.681  15.453  0.00  0.00    +0.000 OA
BRANCH  19  21
ATOM     21  C   UNL     1       6.270   4.580  17.567  0.00  0.00    +0.000 A 
ATOM     22  C   UNL     1       7.654   4.572  17.572  0.00  0.00    +0.000 A 
ATOM     23  C   UNL     1       8.202   5.195  18.731  0.00  0.00    +0.000 A 
ATOM     24  C   UNL     1       7.223   5.668  19.572  0.00  0.00    +0.000 A 
ATOM     25  S   UNL     1       5.655   5.364  18.966  0.00  0.00    +0.000 S 
ENDBRANCH  19  21
ENDBRANCH  18  19
ENDBRANCH  17  18
ENDBRANCH  15  17
ENDBRANCH  14  15
ENDBRANCH   1  14
TORSDOF 8
ENDMDL
MODEL 4
REMARK VINA RESULT:      -6.6      4.949      7.233
REMARK  Name = 
REMARK  10 active torsions:
REMARK  status: ('A' for Active; 'I' for Inactive)
REMARK    1  A    between atoms: C_1  and  C_2
REMARK    2  A    between atoms: C_5  and  N_6
REMARK    3  A    between atoms: C_7  and  C_9
REMARK    4  A    between atoms: C_9  and  O_10
REMARK    5  A    between atoms: O_10  and  C_11
REMARK    6  A    between atoms: C_11  and  C_13
REMARK    7  A    between atoms: C_13  and  C_14
REMARK    8  A    between atoms: C_14  and  C_15
REMARK    9  A    between atoms: C_15  and  C_17
REMARK   10  A    between atoms: C_22  and  C_23
REMARK                            x       y       z     vdW  Elec       q    Type
REMARK                         _______ _______ _______ _____ _____    ______ ____
ROOT
ATOM      1  C   UNL     1       7.202   6.646  16.700  0.00  0.00    +0.000 C 
ENDROOT
BRANCH   1   3
ATOM      2  N   UNL     1       5.011   5.581  16.886  0.00  0.00    +0.000 N 
ATOM      3  C   UNL     1       6.237   5.777  17.508  0.00  0.00    +0.000 C 
ATOM      4  O   UNL     1       6.598   5.320  18.589  0.00  0.00    +0.000 OA
ATOM      5  H   UNL     1       4.935   5.967  15.950  0.00  0.00    +0.000 HD
BRANCH   2  10
ATOM      6  C   UNL     1       0.571   2.439  18.775  0.00  0.00    +0.000 C 
ATOM      7  C   UNL     1       1.724   3.259  18.283  0.00  0.00    +0.000 A 
ATOM      8  C   UNL     1       2.769   2.665  17.587  0.00  0.00    +0.000 A 
ATOM      9  C   UNL     1       3.847   3.433  17.140  0.00  0.00    +0.000 A 
ATOM     10  C   UNL     1       3.915   4.815  17.359  0.00  0.00    +0.000 A 
ATOM     11  C   UNL     1       2.855   5.431  18.059  0.00  0.00    +0.000 A 
ATOM     12  C   UNL     1       2.776   6.898  18.400  0.00  0.00    +0.000 C 
ATOM     13  C   UNL     1       1.776   4.638  18.515  0.00  0.00    +0.000 A 
ENDBRANCH   2  10
ENDBRANCH   1   3
BRANCH   1  14
ATOM     14  O   UNL     1       7.187   7.999  17.148  0.00  0.00    +0.000 OA
BRANCH  14  15
ATOM     15  C   UNL     1       8.139   8.307  18.066  0.00  0.00    +0.000 C 
ATOM     16  O   UNL     1       8.604   7.525  18.886  0.00  0.00    +0.000 OA
BRANCH  15  17
ATOM     17  C   UNL     1       8.491   9.771  17.971  0.00  0.00    +0.000 C 
BRANCH  17  18
ATOM     18  C   UNL     1       9.263  10.234  19.201  0.00  0.00    +0.000 C 
BRANCH  18  19
ATOM     19  C   UNL     1      10.131  11.454  18.911  0.00  0.00    +0.000 C 
ATOM     20  O   UNL     1      10.778  11.518  17.865  0.00  0.00    +0.000 OA
BRANCH  19  21
ATOM     21  C   UNL     1      10.121  12.506  19.924  0.00  0.00    +0.000 A 
ATOM     22  C   UNL     1       9.478  12.548  21.149  0.00  0.00    +0.000 A 
ATOM     23  C   UNL     1       9.700  13.775  21.842  0.00  0.00    +0.000 A 
ATOM     24  C   UNL     1      10.512  14.628  21.131  0.00  0.00    +0.000 A 
ATOM     25  S   UNL     1      11.002  13.952  19.641  0.00  0.00    +0.000 S 
ENDBRANCH  19  21
ENDBRANCH  18  19
ENDBRANCH  17  18
ENDBRANCH  15  17
ENDBRANCH  14  15
ENDBRANCH   1  14
TORSDOF 8
ENDMDL
MODEL 5
REMARK VINA RESULT:      -6.6      1.014      1.180
REMARK  Name = 
REMARK  10 active torsions:
REMARK  status: ('A' for Active; 'I' for Inactive)
REMARK    1  A    between atoms: C_1  and  C_2
REMARK    2  A    between atoms: C_5  and  N_6
REMARK    3  A    between atoms: C_7  and  C_9
REMARK    4  A    between atoms: C_9  and  O_10
REMARK    5  A    between atoms: O_10  and  C_11
REMARK    6  A    between atoms: C_11  and  C_13
REMARK    7  A    between atoms: C_13  and  C_14
REMARK    8  A    between atoms: C_14  and  C_15
REMARK    9  A    between atoms: C_15  and  C_17
REMARK   10  A    between atoms: C_22  and  C_23
REMARK                            x       y       z     vdW  Elec       q    Type
REMARK                         _______ _______ _______ _____ _____    ______ ____
ROOT
ATOM      1  C   UNL     1       3.021   3.886  20.368  0.00  0.00    +0.000 C 
ENDROOT
BRANCH   1   3
ATOM      2  N   UNL     1       2.561   6.279  20.198  0.00  0.00    +0.000 N 
ATOM      3  C   UNL     1       1.995   5.020  20.343  0.00  0.00    +0.000 C 
ATOM      4  O   UNL     1       0.800   4.752  20.428  0.00  0.00    +0.000 OA
ATOM      5  H   UNL     1       3.566   6.287  20.052  0.00  0.00    +0.000 HD
BRANCH   2  10
ATOM      6  C   UNL     1      -0.206  11.321  19.919  0.00  0.00    +0.000 C 
ATOM      7  C   UNL     1       0.513  10.009  19.989  0.00  0.00    +0.000 A 
ATOM      8  C   UNL     1       0.455   9.229  21.137  0.00  0.00    +0.000 A 
ATOM      9  C   UNL     1       1.137   8.012  21.200  0.00  0.00    +0.000 A 
ATOM     10  C   UNL     1       1.887   7.525  20.121  0.00  0.00    +0.000 A 
ATOM     11  C   UNL     1       1.948   8.305  18.946  0.00  0.00    +0.000 A 
ATOM     12  C   UNL     1       2.722   7.944  17.703  0.00  0.00    +0.000 C 
ATOM     13  C   UNL     1       1.261   9.541  18.902  0.00  0.00    +0.000 A 
ENDBRANCH   2  10
ENDBRANCH   1   3
BRANCH   1  14
ATOM     14  O   UNL     1       2.605   2.787  19.561  0.00  0.00    +0.000 OA
BRANCH  14  15
ATOM     15  C   UNL     1       3.348   2.585  18.442  0.00  0.00    +0.000 C 
ATOM     16  O   UNL     1       3.724   1.492  18.036  0.00  0.00    +0.000 OA
BRANCH  15  17
ATOM     17  C   UNL     1       3.698   3.909  17.810  0.00  0.00    +0.000 C 
BRANCH  17  18
ATOM     18  C   UNL     1       4.726   3.736  16.698  0.00  0.00    +0.000 C 
BRANCH  18  19
ATOM     19  C   UNL     1       5.421   5.047  16.346  0.00  0.00    +0.000 C 
ATOM     20  O   UNL     1       5.115   5.653  15.319  0.00  0.00    +0.000 OA
BRANCH  19  21
ATOM     21  C   UNL     1       6.426   5.517  17.296  0.00  0.00    +0.000 A 
ATOM     22  C   UNL     1       7.092   4.827  18.294  0.00  0.00    +0.000 A 
ATOM     23  C   UNL     1       7.990   5.657  19.029  0.00  0.00    +0.000 A 
ATOM     24  C   UNL     1       7.990   6.951  18.565  0.00  0.00    +0.000 A 
ATOM     25  S   UNL     1       6.917   7.162  17.252  0.00  0.00    +0.000 S 
ENDBRANCH  19  21
ENDBRANCH  18  19
ENDBRANCH  17  18
ENDBRANCH  15  17
ENDBRANCH  14  15
ENDBRANCH   1  14
TORSDOF 8
ENDMDL
MODEL 6
REMARK VINA RESULT:      -6.5      2.415      6.176
REMARK  Name = 
REMARK  10 active torsions:
REMARK  status: ('A' for Active; 'I' for Inactive)
REMARK    1  A    between atoms: C_1  and  C_2
REMARK    2  A    between atoms: C_5  and  N_6
REMARK    3  A    between atoms: C_7  and  C_9
REMARK    4  A    between atoms: C_9  and  O_10
REMARK    5  A    between atoms: O_10  and  C_11
REMARK    6  A    between atoms: C_11  and  C_13
REMARK    7  A    between atoms: C_13  and  C_14
REMARK    8  A    between atoms: C_14  and  C_15
REMARK    9  A    between atoms: C_15  and  C_17
REMARK   10  A    between atoms: C_22  and  C_23
REMARK                            x       y       z     vdW  Elec       q    Type
REMARK                         _______ _______ _______ _____ _____    ______ ____
ROOT
ATOM      1  C   UNL     1       3.738   2.377  21.123  0.00  0.00    +0.000 C 
ENDROOT
BRANCH   1   3
ATOM      2  N   UNL     1       4.720   3.632  19.271  0.00  0.00    +0.000 N 
ATOM      3  C   UNL     1       4.250   2.391  19.682  0.00  0.00    +0.000 C 
ATOM      4  O   UNL     1       4.230   1.354  19.025  0.00  0.00    +0.000 OA
ATOM      5  H   UNL     1       4.737   4.347  19.992  0.00  0.00    +0.000 HD
BRANCH   2  10
ATOM      6  C   UNL     1       7.007   5.033  14.176  0.00  0.00    +0.000 C 
ATOM      7  C   UNL     1       6.409   4.670  15.501  0.00  0.00    +0.000 A 
ATOM      8  C   UNL     1       7.192   4.642  16.647  0.00  0.00    +0.000 A 
ATOM      9  C   UNL     1       6.632   4.292  17.878  0.00  0.00    +0.000 A 
ATOM     10  C   UNL     1       5.274   3.971  18.011  0.00  0.00    +0.000 A 
ATOM     11  C   UNL     1       4.467   4.003  16.853  0.00  0.00    +0.000 A 
ATOM     12  C   UNL     1       2.997   3.668  16.811  0.00  0.00    +0.000 C 
ATOM     13  C   UNL     1       5.051   4.348  15.613  0.00  0.00    +0.000 A 
ENDBRANCH   2  10
ENDBRANCH   1   3
BRANCH   1  14
ATOM     14  O   UNL     1       2.975   3.544  21.418  0.00  0.00    +0.000 OA
BRANCH  14  15
ATOM     15  C   UNL     1       1.649   3.444  21.147  0.00  0.00    +0.000 C 
ATOM     16  O   UNL     1       0.914   2.552  21.554  0.00  0.00    +0.000 OA
BRANCH  15  17
ATOM     17  C   UNL     1       1.227   4.555  20.218  0.00  0.00    +0.000 C 
BRANCH  17  18
ATOM     18  C   UNL     1       1.606   5.920  20.780  0.00  0.00    +0.000 C 
BRANCH  18  19
ATOM     19  C   UNL     1       2.339   6.782  19.757  0.00  0.00    +0.000 C 
ATOM     20  O   UNL     1       3.325   6.337  19.167  0.00  0.00    +0.000 OA
BRANCH  19  21
ATOM     21  C   UNL     1       1.791   8.116  19.529  0.00  0.00    +0.000 A 
ATOM     22  C   UNL     1       1.107   8.951  20.394  0.00  0.00    +0.000 A 
ATOM     23  C   UNL     1       0.713  10.176  19.778  0.00  0.00    +0.000 A 
ATOM     24  C   UNL     1       1.116  10.243  18.465  0.00  0.00    +0.000 A 
ATOM     25  S   UNL     1       1.963   8.840  17.981  0.00  0.00    +0.000 S 
ENDBRANCH  19  21
ENDBRANCH  18  19
ENDBRANCH  17  18
ENDBRANCH  15  17
ENDBRANCH  14  15
ENDBRANCH   1  14
TORSDOF 8
ENDMDL
MODEL 7
REMARK VINA RESULT:      -6.5      4.441      7.236
REMARK  Name = 
REMARK  10 active torsions:
REMARK  status: ('A' for Active; 'I' for Inactive)
REMARK    1  A    between atoms: C_1  and  C_2
REMARK    2  A    between atoms: C_5  and  N_6
REMARK    3  A    between atoms: C_7  and  C_9
REMARK    4  A    between atoms: C_9  and  O_10
REMARK    5  A    between atoms: O_10  and  C_11
REMARK    6  A    between atoms: C_11  and  C_13
REMARK    7  A    between atoms: C_13  and  C_14
REMARK    8  A    between atoms: C_14  and  C_15
REMARK    9  A    between atoms: C_15  and  C_17
REMARK   10  A    between atoms: C_22  and  C_23
REMARK                            x       y       z     vdW  Elec       q    Type
REMARK                         _______ _______ _______ _____ _____    ______ ____
ROOT
ATOM      1  C   UNL     1       8.100   7.181  18.548  0.00  0.00    +0.000 C 
ENDROOT
BRANCH   1   3
ATOM      2  N   UNL     1       9.170   9.312  19.082  0.00  0.00    +0.000 N 
ATOM      3  C   UNL     1       8.277   8.668  18.235  0.00  0.00    +0.000 C 
ATOM      4  O   UNL     1       7.663   9.163  17.295  0.00  0.00    +0.000 OA
ATOM      5  H   UNL     1       9.647   8.709  19.745  0.00  0.00    +0.000 HD
BRANCH   2  10
ATOM      6  C   UNL     1      10.804  14.830  18.897  0.00  0.00    +0.000 C 
ATOM      7  C   UNL     1      10.380  13.394  18.948  0.00  0.00    +0.000 A 
ATOM      8  C   UNL     1      10.456  12.592  17.816  0.00  0.00    +0.000 A 
ATOM      9  C   UNL     1      10.049  11.257  17.867  0.00  0.00    +0.000 A 
ATOM     10  C   UNL     1       9.565  10.673  19.046  0.00  0.00    +0.000 A 
ATOM     11  C   UNL     1       9.490  11.476  20.204  0.00  0.00    +0.000 A 
ATOM     12  C   UNL     1       8.977  11.018  21.546  0.00  0.00    +0.000 C 
ATOM     13  C   UNL     1       9.895  12.830  20.133  0.00  0.00    +0.000 A 
ENDBRANCH   2  10
ENDBRANCH   1   3
BRANCH   1  14
ATOM     14  O   UNL     1       7.729   6.444  17.385  0.00  0.00    +0.000 OA
BRANCH  14  15
ATOM     15  C   UNL     1       7.114   5.259  17.631  0.00  0.00    +0.000 C 
ATOM     16  O   UNL     1       7.562   4.370  18.345  0.00  0.00    +0.000 OA
BRANCH  15  17
ATOM     17  C   UNL     1       5.830   5.172  16.845  0.00  0.00    +0.000 C 
BRANCH  17  18
ATOM     18  C   UNL     1       4.788   6.147  17.378  0.00  0.00    +0.000 C 
BRANCH  18  19
ATOM     19  C   UNL     1       3.950   5.541  18.500  0.00  0.00    +0.000 C 
ATOM     20  O   UNL     1       3.636   6.224  19.476  0.00  0.00    +0.000 OA
BRANCH  19  21
ATOM     21  C   UNL     1       3.552   4.147  18.325  0.00  0.00    +0.000 A 
ATOM     22  C   UNL     1       2.637   3.592  17.448  0.00  0.00    +0.000 A 
ATOM     23  C   UNL     1       2.514   2.180  17.604  0.00  0.00    +0.000 A 
ATOM     24  C   UNL     1       3.345   1.698  18.588  0.00  0.00    +0.000 A 
ATOM     25  S   UNL     1       4.266   2.939  19.315  0.00  0.00    +0.000 S 
ENDBRANCH  19  21
ENDBRANCH  18  19
ENDBRANCH  17  18
ENDBRANCH  15  17
ENDBRANCH  14  15
ENDBRANCH   1  14
TORSDOF 8
ENDMDL
MODEL 8
REMARK VINA RESULT:      -6.4      4.622      6.904
REMARK  Name = 
REMARK  10 active torsions:
REMARK  status: ('A' for Active; 'I' for Inactive)
REMARK    1  A    between atoms: C_1  and  C_2
REMARK    2  A    between atoms: C_5  and  N_6
REMARK    3  A    between atoms: C_7  and  C_9
REMARK    4  A    between atoms: C_9  and  O_10
REMARK    5  A    between atoms: O_10  and  C_11
REMARK    6  A    between atoms: C_11  and  C_13
REMARK    7  A    between atoms: C_13  and  C_14
REMARK    8  A    between atoms: C_14  and  C_15
REMARK    9  A    between atoms: C_15  and  C_17
REMARK   10  A    between atoms: C_22  and  C_23
REMARK                            x       y       z     vdW  Elec       q    Type
REMARK                         _______ _______ _______ _____ _____    ______ ____
ROOT
ATOM      1  C   UNL     1       7.470   5.978  19.283  0.00  0.00    +0.000 C 
ENDROOT
BRANCH   1   3
ATOM      2  N   UNL     1       5.208   5.087  19.528  0.00  0.00    +0.000 N 
ATOM      3  C   UNL     1       6.361   5.066  18.755  0.00  0.00    +0.000 C 
ATOM      4  O   UNL     1       6.549   4.423  17.726  0.00  0.00    +0.000 OA
ATOM      5  H   UNL     1       5.213   5.754  20.293  0.00  0.00    +0.000 HD
BRANCH   2  10
ATOM      6  C   UNL     1       0.340   2.153  18.604  0.00  0.00    +0.000 C 
ATOM      7  C   UNL     1       1.606   2.918  18.841  0.00  0.00    +0.000 A 
ATOM      8  C   UNL     1       2.694   2.314  19.457  0.00  0.00    +0.000 A 
ATOM      9  C   UNL     1       3.868   3.035  19.686  0.00  0.00    +0.000 A 
ATOM     10  C   UNL     1       4.003   4.375  19.300  0.00  0.00    +0.000 A 
ATOM     11  C   UNL     1       2.906   4.999  18.667  0.00  0.00    +0.000 A 
ATOM     12  C   UNL     1       2.870   6.434  18.206  0.00  0.00    +0.000 C 
ATOM     13  C   UNL     1       1.720   4.258  18.453  0.00  0.00    +0.000 A 
ENDBRANCH   2  10
ENDBRANCH   1   3
BRANCH   1  14
ATOM     14  O   UNL     1       8.221   6.557  18.219  0.00  0.00    +0.000 OA
BRANCH  14  15
ATOM     15  C   UNL     1       7.886   7.836  17.913  0.00  0.00    +0.000 C 
ATOM     16  O   UNL     1       7.052   8.163  17.077  0.00  0.00    +0.000 OA
BRANCH  15  17
ATOM     17  C   UNL     1       8.737   8.797  18.705  0.00  0.00    +0.000 C 
BRANCH  17  18
ATOM     18  C   UNL     1       8.629  10.214  18.156  0.00  0.00    +0.000 C 
BRANCH  18  19
ATOM     19  C   UNL     1       9.334  11.233  19.046  0.00  0.00    +0.000 C 
ATOM     20  O   UNL     1       9.392  11.056  20.263  0.00  0.00    +0.000 OA
BRANCH  19  21
ATOM     21  C   UNL     1       9.928  12.379  18.364  0.00  0.00    +0.000 A 
ATOM     22  C   UNL     1      10.961  12.424  17.444  0.00  0.00    +0.000 A 
ATOM     23  C   UNL     1      11.266  13.753  17.026  0.00  0.00    +0.000 A 
ATOM     24  C   UNL     1      10.452  14.682  17.632  0.00  0.00    +0.000 A 
ATOM     25  S   UNL     1       9.329  13.954  18.694  0.00  0.00    +0.000 S 
ENDBRANCH  19  21
ENDBRANCH  18  19
ENDBRANCH  17  18
ENDBRANCH  15  17
ENDBRANCH  14  15
ENDBRANCH   1  14
TORSDOF 8
ENDMDL
MODEL 9
REMARK VINA RESULT:      -6.4      4.869      7.423
REMARK  Name = 
REMARK  10 active torsions:
REMARK  status: ('A' for Active; 'I' for Inactive)
REMARK    1  A    between atoms: C_1  and  C_2
REMARK    2  A    between atoms: C_5  and  N_6
REMARK    3  A    between atoms: C_7  and  C_9
REMARK    4  A    between atoms: C_9  and  O_10
REMARK    5  A    between atoms: O_10  and  C_11
REMARK    6  A    between atoms: C_11  and  C_13
REMARK    7  A    between atoms: C_13  and  C_14
REMARK    8  A    between atoms: C_14  and  C_15
REMARK    9  A    between atoms: C_15  and  C_17
REMARK   10  A    between atoms: C_22  and  C_23
REMARK                            x       y       z     vdW  Elec       q    Type
REMARK                         _______ _______ _______ _____ _____    ______ ____
ROOT
ATOM      1  C   UNL     1       8.191   7.856  17.728  0.00  0.00    +0.000 C 
ENDROOT
BRANCH   1   3
ATOM      2  N   UNL     1       9.186   9.564  19.163  0.00  0.00    +0.000 N 
ATOM      3  C   UNL     1       8.261   9.323  18.156  0.00  0.00    +0.000 C 
ATOM      4  O   UNL     1       7.546  10.149  17.596  0.00  0.00    +0.000 OA
ATOM      5  H   UNL     1       9.748   8.764  19.435  0.00  0.00    +0.000 HD
BRANCH   2  10
ATOM      6  C   UNL     1      10.433  14.616  21.630  0.00  0.00    +0.000 C 
ATOM      7  C   UNL     1      10.108  13.303  20.985  0.00  0.00    +0.000 A 
ATOM      8  C   UNL     1       9.341  12.357  21.652  0.00  0.00    +0.000 A 
ATOM      9  C   UNL     1       9.050  11.130  21.051  0.00  0.00    +0.000 A 
ATOM     10  C   UNL     1       9.503  10.810  19.764  0.00  0.00    +0.000 A 
ATOM     11  C   UNL     1      10.278  11.766  19.073  0.00  0.00    +0.000 A 
ATOM     12  C   UNL     1      10.861  11.580  17.695  0.00  0.00    +0.000 C 
ATOM     13  C   UNL     1      10.573  12.999  19.700  0.00  0.00    +0.000 A 
ENDBRANCH   2  10
ENDBRANCH   1   3
BRANCH   1  14
ATOM     14  O   UNL     1       8.185   6.983  18.854  0.00  0.00    +0.000 OA
BRANCH  14  15
ATOM     15  C   UNL     1       7.578   5.787  18.648  0.00  0.00    +0.000 C 
ATOM     16  O   UNL     1       8.117   4.694  18.776  0.00  0.00    +0.000 OA
BRANCH  15  17
ATOM     17  C   UNL     1       6.163   6.002  18.173  0.00  0.00    +0.000 C 
BRANCH  17  18
ATOM     18  C   UNL     1       5.162   5.293  19.077  0.00  0.00    +0.000 C 
BRANCH  18  19
ATOM     19  C   UNL     1       3.723   5.698  18.775  0.00  0.00    +0.000 C 
ATOM     20  O   UNL     1       3.492   6.692  18.086  0.00  0.00    +0.000 OA
BRANCH  19  21
ATOM     21  C   UNL     1       2.682   4.836  19.329  0.00  0.00    +0.000 A 
ATOM     22  C   UNL     1       2.299   4.647  20.645  0.00  0.00    +0.000 A 
ATOM     23  C   UNL     1       1.246   3.694  20.777  0.00  0.00    +0.000 A 
ATOM     24  C   UNL     1       0.851   3.191  19.560  0.00  0.00    +0.000 A 
ATOM     25  S   UNL     1       1.743   3.866  18.268  0.00  0.00    +0.000 S 
ENDBRANCH  19  21
ENDBRANCH  18  19
ENDBRANCH  17  18
ENDBRANCH  15  17
ENDBRANCH  14  15
ENDBRANCH   1  14
TORSDOF 8
ENDMDL
