MODEL 1
REMARK VINA RESULT:      -7.7      0.000      0.000
REMARK  Name = 
REMARK  6 active torsions:
REMARK  status: ('A' for Active; 'I' for Inactive)
REMARK    1  A    between atoms: C_1  and  O_2
REMARK    2  A    between atoms: O_2  and  C_3
REMARK    3  A    between atoms: C_5  and  O_6
REMARK    4  A    between atoms: O_6  and  C_7
REMARK    5  A    between atoms: C_9  and  C_10
REMARK    6  A    between atoms: C_16  and  N_17
REMARK                            x       y       z     vdW  Elec       q    Type
REMARK                         _______ _______ _______ _____ _____    ______ ____
ROOT
ATOM      1  C   UNL     1       1.477  10.438  18.982  0.00  0.00    +0.000 A 
ATOM      2  C   UNL     1       2.235  11.520  18.482  0.00  0.00    +0.000 A 
ATOM      3  C   UNL     1       1.486  12.646  18.721  0.00  0.00    +0.000 A 
ATOM      4  N   UNL     1       1.748  13.957  18.456  0.00  0.00    +0.000 NA
ATOM      5  C   UNL     1       0.840  14.812  18.823  0.00  0.00    +0.000 A 
ATOM      6  C   UNL     1      -0.449  14.477  19.518  0.00  0.00    +0.000 A 
ATOM      7  C   UNL     1      -0.683  13.161  19.750  0.00  0.00    +0.000 A 
ATOM      8  N   UNL     1       0.311  12.221  19.341  0.00  0.00    +0.000 N 
ATOM      9  N   UNL     1       0.314  10.862  19.494  0.00  0.00    +0.000 NA
ATOM     10  C   UNL     1      -1.422  15.579  19.840  0.00  0.00    +0.000 C 
ATOM     11  C   UNL     1      -1.182  16.959  19.222  0.00  0.00    +0.000 C 
ATOM     12  C   UNL     1      -0.142  16.988  18.115  0.00  0.00    +0.000 C 
ATOM     13  C   UNL     1       1.122  16.272  18.545  0.00  0.00    +0.000 C 
ENDROOT
BRANCH   7  14
ATOM     14  N   UNL     1      -1.851  12.695  20.382  0.00  0.00    +0.000 N 
ATOM     15  C   UNL     1      -1.982  12.579  21.849  0.00  0.00    +0.000 C 
ATOM     16  C   UNL     1      -3.179  13.391  22.395  0.00  0.00    +0.000 C 
ATOM     17  N   UNL     1      -4.406  13.090  21.642  0.00  0.00    +0.000 N 
ATOM     18  C   UNL     1      -5.585  12.685  22.217  0.00  0.00    +0.000 A 
ATOM     19  C   UNL     1      -5.928  12.971  23.545  0.00  0.00    +0.000 A 
ATOM     20  N   UNL     1      -7.080  12.579  24.154  0.00  0.00    +0.000 NA
ATOM     21  C   UNL     1      -7.916  11.870  23.373  0.00  0.00    +0.000 A 
ATOM     22  C   UNL     1      -7.615  11.580  22.058  0.00  0.00    +0.000 A 
ATOM     23  N   UNL     1      -6.464  11.981  21.465  0.00  0.00    +0.000 NA
ATOM     24  C   UNL     1      -4.290  13.176  20.179  0.00  0.00    +0.000 C 
ATOM     25  C   UNL     1      -3.094  12.356  19.659  0.00  0.00    +0.000 C 
ENDBRANCH   7  14
BRANCH   1  30
ATOM     26  C   UNL     1       1.838   6.827  20.030  0.00  0.00    +0.000 A 
ATOM     27  C   UNL     1       2.619   6.339  18.980  0.00  0.00    +0.000 A 
ATOM     28  C   UNL     1       3.012   7.167  17.926  0.00  0.00    +0.000 A 
ATOM     29  C   UNL     1       2.608   8.501  17.924  0.00  0.00    +0.000 A 
ATOM     30  C   UNL     1       1.837   9.016  18.978  0.00  0.00    +0.000 A 
ATOM     31  C   UNL     1       1.443   8.166  20.024  0.00  0.00    +0.000 A 
BRANCH  26  33
ATOM     32  C   UNL     1       1.481   4.543  20.613  0.00  0.00    +0.000 C 
ATOM     33  O   UNL     1       1.552   5.908  21.003  0.00  0.00    +0.000 OA
ENDBRANCH  26  33
BRANCH  28  34
ATOM     34  O   UNL     1       3.795   6.567  16.978  0.00  0.00    +0.000 OA
ATOM     35  C   UNL     1       4.534   5.420  17.385  0.00  0.00    +0.000 C 
ENDBRANCH  28  34
ENDBRANCH   1  30
TORSDOF 4
ENDMDL
MODEL 2
REMARK VINA RESULT:      -7.4      0.256      1.802
REMARK  Name = 
REMARK  6 active torsions:
REMARK  status: ('A' for Active; 'I' for Inactive)
REMARK    1  A    between atoms: C_1  and  O_2
REMARK    2  A    between atoms: O_2  and  C_3
REMARK    3  A    between atoms: C_5  and  O_6
REMARK    4  A    between atoms: O_6  and  C_7
REMARK    5  A    between atoms: C_9  and  C_10
REMARK    6  A    between atoms: C_16  and  N_17
REMARK                            x       y       z     vdW  Elec       q    Type
REMARK                         _______ _______ _______ _____ _____    ______ ____
ROOT
ATOM      1  C   UNL     1       1.551  10.533  18.941  0.00  0.00    +0.000 A 
ATOM      2  C   UNL     1       2.283  11.636  18.451  0.00  0.00    +0.000 A 
ATOM      3  C   UNL     1       1.506  12.742  18.694  0.00  0.00    +0.000 A 
ATOM      4  N   UNL     1       1.737  14.060  18.439  0.00  0.00    +0.000 NA
ATOM      5  C   UNL     1       0.806  14.890  18.808  0.00  0.00    +0.000 A 
ATOM      6  C   UNL     1      -0.477  14.519  19.496  0.00  0.00    +0.000 A 
ATOM      7  C   UNL     1      -0.679  13.196  19.719  0.00  0.00    +0.000 A 
ATOM      8  N   UNL     1       0.340  12.284  19.307  0.00  0.00    +0.000 N 
ATOM      9  N   UNL     1       0.376  10.924  19.452  0.00  0.00    +0.000 NA
ATOM     10  C   UNL     1      -1.478  15.594  19.821  0.00  0.00    +0.000 C 
ATOM     11  C   UNL     1      -1.269  16.984  19.214  0.00  0.00    +0.000 C 
ATOM     12  C   UNL     1      -0.226  17.046  18.111  0.00  0.00    +0.000 C 
ATOM     13  C   UNL     1       1.054  16.359  18.540  0.00  0.00    +0.000 C 
ENDROOT
BRANCH   7  14
ATOM     14  N   UNL     1      -1.837  12.697  20.343  0.00  0.00    +0.000 N 
ATOM     15  C   UNL     1      -1.990  12.617  21.810  0.00  0.00    +0.000 C 
ATOM     16  C   UNL     1      -3.231  13.390  22.311  0.00  0.00    +0.000 C 
ATOM     17  N   UNL     1      -4.430  13.015  21.546  0.00  0.00    +0.000 N 
ATOM     18  C   UNL     1      -5.600  12.575  22.112  0.00  0.00    +0.000 A 
ATOM     19  C   UNL     1      -5.981  12.883  23.424  0.00  0.00    +0.000 A 
ATOM     20  N   UNL     1      -7.127  12.458  24.024  0.00  0.00    +0.000 NA
ATOM     21  C   UNL     1      -7.916  11.691  23.249  0.00  0.00    +0.000 A 
ATOM     22  C   UNL     1      -7.578  11.378  21.949  0.00  0.00    +0.000 A 
ATOM     23  N   UNL     1      -6.434  11.813  21.365  0.00  0.00    +0.000 NA
ATOM     24  C   UNL     1      -4.290  13.065  20.083  0.00  0.00    +0.000 C 
ATOM     25  C   UNL     1      -3.050  12.284  19.608  0.00  0.00    +0.000 C 
ENDBRANCH   7  14
BRANCH   1  30
ATOM     26  C   UNL     1       3.048   7.236  17.863  0.00  0.00    +0.000 A 
ATOM     27  C   UNL     1       2.600   6.409  18.895  0.00  0.00    +0.000 A 
ATOM     28  C   UNL     1       1.834   6.916  19.947  0.00  0.00    +0.000 A 
ATOM     29  C   UNL     1       1.520   8.274  19.965  0.00  0.00    +0.000 A 
ATOM     30  C   UNL     1       1.946   9.120  18.929  0.00  0.00    +0.000 A 
ATOM     31  C   UNL     1       2.724   8.594  17.885  0.00  0.00    +0.000 A 
BRANCH  26  33
ATOM     32  C   UNL     1       5.103   6.226  17.199  0.00  0.00    +0.000 C 
ATOM     33  O   UNL     1       3.765   6.596  16.890  0.00  0.00    +0.000 OA
ENDBRANCH  26  33
BRANCH  28  34
ATOM     34  O   UNL     1       1.441   5.992  20.877  0.00  0.00    +0.000 OA
ATOM     35  C   UNL     1       2.213   4.799  20.965  0.00  0.00    +0.000 C 
ENDBRANCH  28  34
ENDBRANCH   1  30
TORSDOF 4
ENDMDL
MODEL 3
REMARK VINA RESULT:      -7.1      3.351      8.384
REMARK  Name = 
REMARK  6 active torsions:
REMARK  status: ('A' for Active; 'I' for Inactive)
REMARK    1  A    between atoms: C_1  and  O_2
REMARK    2  A    between atoms: O_2  and  C_3
REMARK    3  A    between atoms: C_5  and  O_6
REMARK    4  A    between atoms: O_6  and  C_7
REMARK    5  A    between atoms: C_9  and  C_10
REMARK    6  A    between atoms: C_16  and  N_17
REMARK                            x       y       z     vdW  Elec       q    Type
REMARK                         _______ _______ _______ _____ _____    ______ ____
ROOT
ATOM      1  C   UNL     1      -3.111  13.284  20.703  0.00  0.00    +0.000 A 
ATOM      2  C   UNL     1      -2.555  14.555  20.436  0.00  0.00    +0.000 A 
ATOM      3  C   UNL     1      -1.293  14.319  19.950  0.00  0.00    +0.000 A 
ATOM      4  N   UNL     1      -0.332  15.186  19.523  0.00  0.00    +0.000 NA
ATOM      5  C   UNL     1       0.775  14.654  19.094  0.00  0.00    +0.000 A 
ATOM      6  C   UNL     1       1.068  13.183  19.018  0.00  0.00    +0.000 A 
ATOM      7  C   UNL     1       0.094  12.351  19.467  0.00  0.00    +0.000 A 
ATOM      8  N   UNL     1      -1.118  12.936  19.945  0.00  0.00    +0.000 N 
ATOM      9  N   UNL     1      -2.240  12.309  20.412  0.00  0.00    +0.000 NA
ATOM     10  C   UNL     1       2.417  12.723  18.536  0.00  0.00    +0.000 C 
ATOM     11  C   UNL     1       3.526  13.768  18.385  0.00  0.00    +0.000 C 
ATOM     12  C   UNL     1       3.221  15.115  19.018  0.00  0.00    +0.000 C 
ATOM     13  C   UNL     1       1.847  15.604  18.607  0.00  0.00    +0.000 C 
ENDROOT
BRANCH   7  14
ATOM     14  N   UNL     1       0.229  10.950  19.468  0.00  0.00    +0.000 N 
ATOM     15  C   UNL     1       0.278  10.145  18.230  0.00  0.00    +0.000 C 
ATOM     16  C   UNL     1       1.565   9.295  18.137  0.00  0.00    +0.000 C 
ATOM     17  N   UNL     1       1.786   8.534  19.375  0.00  0.00    +0.000 N 
ATOM     18  C   UNL     1       1.977   7.175  19.423  0.00  0.00    +0.000 A 
ATOM     19  C   UNL     1       2.469   6.432  18.343  0.00  0.00    +0.000 A 
ATOM     20  N   UNL     1       2.663   5.084  18.347  0.00  0.00    +0.000 NA
ATOM     21  C   UNL     1       2.343   4.474  19.503  0.00  0.00    +0.000 A 
ATOM     22  C   UNL     1       1.866   5.177  20.590  0.00  0.00    +0.000 A 
ATOM     23  N   UNL     1       1.683   6.520  20.571  0.00  0.00    +0.000 NA
ATOM     24  C   UNL     1       1.717   9.313  20.620  0.00  0.00    +0.000 C 
ATOM     25  C   UNL     1       0.424  10.147  20.693  0.00  0.00    +0.000 C 
ENDBRANCH   7  14
BRANCH   1  30
ATOM     26  C   UNL     1      -6.085  13.064  23.022  0.00  0.00    +0.000 A 
ATOM     27  C   UNL     1      -6.962  12.316  22.232  0.00  0.00    +0.000 A 
ATOM     28  C   UNL     1      -6.604  11.902  20.947  0.00  0.00    +0.000 A 
ATOM     29  C   UNL     1      -5.350  12.248  20.448  0.00  0.00    +0.000 A 
ATOM     30  C   UNL     1      -4.446  12.985  21.230  0.00  0.00    +0.000 A 
ATOM     31  C   UNL     1      -4.828  13.401  22.515  0.00  0.00    +0.000 A 
BRANCH  26  33
ATOM     32  C   UNL     1      -7.913  13.812  24.357  0.00  0.00    +0.000 C 
ATOM     33  O   UNL     1      -6.563  13.376  24.265  0.00  0.00    +0.000 OA
ENDBRANCH  26  33
BRANCH  28  34
ATOM     34  O   UNL     1      -7.546  11.155  20.295  0.00  0.00    +0.000 OA
ATOM     35  C   UNL     1      -7.072  10.087  19.482  0.00  0.00    +0.000 C 
ENDBRANCH  28  34
ENDBRANCH   1  30
TORSDOF 4
ENDMDL
MODEL 4
REMARK VINA RESULT:      -7.1      3.380      8.533
REMARK  Name = 
REMARK  6 active torsions:
REMARK  status: ('A' for Active; 'I' for Inactive)
REMARK    1  A    between atoms: C_1  and  O_2
REMARK    2  A    between atoms: O_2  and  C_3
REMARK    3  A    between atoms: C_5  and  O_6
REMARK    4  A    between atoms: O_6  and  C_7
REMARK    5  A    between atoms: C_9  and  C_10
REMARK    6  A    between atoms: C_16  and  N_17
REMARK                            x       y       z     vdW  Elec       q    Type
REMARK                         _______ _______ _______ _____ _____    ______ ____
ROOT
ATOM      1  C   UNL     1      -3.106  13.213  20.742  0.00  0.00    +0.000 A 
ATOM      2  C   UNL     1      -2.558  14.487  20.473  0.00  0.00    +0.000 A 
ATOM      3  C   UNL     1      -1.300  14.258  19.974  0.00  0.00    +0.000 A 
ATOM      4  N   UNL     1      -0.347  15.130  19.540  0.00  0.00    +0.000 NA
ATOM      5  C   UNL     1       0.757  14.604  19.099  0.00  0.00    +0.000 A 
ATOM      6  C   UNL     1       1.056  13.134  19.015  0.00  0.00    +0.000 A 
ATOM      7  C   UNL     1       0.091  12.297  19.471  0.00  0.00    +0.000 A 
ATOM      8  N   UNL     1      -1.119  12.875  19.963  0.00  0.00    +0.000 N 
ATOM      9  N   UNL     1      -2.234  12.242  20.440  0.00  0.00    +0.000 NA
ATOM     10  C   UNL     1       2.402  12.681  18.519  0.00  0.00    +0.000 C 
ATOM     11  C   UNL     1       3.505  13.732  18.360  0.00  0.00    +0.000 C 
ATOM     12  C   UNL     1       3.200  15.076  19.000  0.00  0.00    +0.000 C 
ATOM     13  C   UNL     1       1.820  15.560  18.604  0.00  0.00    +0.000 C 
ENDROOT
BRANCH   7  14
ATOM     14  N   UNL     1       0.231  10.897  19.466  0.00  0.00    +0.000 N 
ATOM     15  C   UNL     1       0.320  10.100  18.225  0.00  0.00    +0.000 C 
ATOM     16  C   UNL     1       1.613   9.256  18.163  0.00  0.00    +0.000 C 
ATOM     17  N   UNL     1       1.800   8.488  19.403  0.00  0.00    +0.000 N 
ATOM     18  C   UNL     1       1.996   7.129  19.446  0.00  0.00    +0.000 A 
ATOM     19  C   UNL     1       2.523   6.396  18.376  0.00  0.00    +0.000 A 
ATOM     20  N   UNL     1       2.722   5.049  18.377  0.00  0.00    +0.000 NA
ATOM     21  C   UNL     1       2.372   4.429  19.519  0.00  0.00    +0.000 A 
ATOM     22  C   UNL     1       1.860   5.122  20.597  0.00  0.00    +0.000 A 
ATOM     23  N   UNL     1       1.671   6.465  20.581  0.00  0.00    +0.000 NA
ATOM     24  C   UNL     1       1.692   9.258  20.650  0.00  0.00    +0.000 C 
ATOM     25  C   UNL     1       0.394  10.086  20.691  0.00  0.00    +0.000 C 
ENDBRANCH   7  14
BRANCH   1  30
ATOM     26  C   UNL     1      -6.645  11.926  21.042  0.00  0.00    +0.000 A 
ATOM     27  C   UNL     1      -6.984  12.421  22.303  0.00  0.00    +0.000 A 
ATOM     28  C   UNL     1      -6.068  13.150  23.064  0.00  0.00    +0.000 A 
ATOM     29  C   UNL     1      -4.792  13.379  22.553  0.00  0.00    +0.000 A 
ATOM     30  C   UNL     1      -4.435  12.906  21.281  0.00  0.00    +0.000 A 
ATOM     31  C   UNL     1      -5.366  12.166  20.535  0.00  0.00    +0.000 A 
BRANCH  26  33
ATOM     32  C   UNL     1      -7.336   9.987  19.838  0.00  0.00    +0.000 C 
ATOM     33  O   UNL     1      -7.651  11.253  20.404  0.00  0.00    +0.000 OA
ENDBRANCH  26  33
BRANCH  28  34
ATOM     34  O   UNL     1      -6.540  13.597  24.268  0.00  0.00    +0.000 OA
ATOM     35  C   UNL     1      -7.916  13.955  24.328  0.00  0.00    +0.000 C 
ENDBRANCH  28  34
ENDBRANCH   1  30
TORSDOF 4
ENDMDL
MODEL 5
REMARK VINA RESULT:      -6.8      4.710     11.541
REMARK  Name = 
REMARK  6 active torsions:
REMARK  status: ('A' for Active; 'I' for Inactive)
REMARK    1  A    between atoms: C_1  and  O_2
REMARK    2  A    between atoms: O_2  and  C_3
REMARK    3  A    between atoms: C_5  and  O_6
REMARK    4  A    between atoms: O_6  and  C_7
REMARK    5  A    between atoms: C_9  and  C_10
REMARK    6  A    between atoms: C_16  and  N_17
REMARK                            x       y       z     vdW  Elec       q    Type
REMARK                         _______ _______ _______ _____ _____    ______ ____
ROOT
ATOM      1  C   UNL     1       1.520   8.882  19.330  0.00  0.00    +0.000 A 
ATOM      2  C   UNL     1       1.182   8.242  20.543  0.00  0.00    +0.000 A 
ATOM      3  C   UNL     1       1.694   6.971  20.452  0.00  0.00    +0.000 A 
ATOM      4  N   UNL     1       1.671   5.941  21.344  0.00  0.00    +0.000 NA
ATOM      5  C   UNL     1       2.267   4.845  20.975  0.00  0.00    +0.000 A 
ATOM      6  C   UNL     1       2.982   4.633  19.671  0.00  0.00    +0.000 A 
ATOM      7  C   UNL     1       2.970   5.675  18.802  0.00  0.00    +0.000 A 
ATOM      8  N   UNL     1       2.309   6.876  19.204  0.00  0.00    +0.000 N 
ATOM      9  N   UNL     1       2.194   8.055  18.521  0.00  0.00    +0.000 NA
ATOM     10  C   UNL     1       3.588   3.289  19.372  0.00  0.00    +0.000 C 
ATOM     11  C   UNL     1       3.234   2.116  20.290  0.00  0.00    +0.000 C 
ATOM     12  C   UNL     1       2.076   2.377  21.239  0.00  0.00    +0.000 C 
ATOM     13  C   UNL     1       2.258   3.697  21.960  0.00  0.00    +0.000 C 
ENDROOT
BRANCH   7  14
ATOM     14  N   UNL     1       3.589   5.621  17.539  0.00  0.00    +0.000 N 
ATOM     15  C   UNL     1       4.481   6.683  17.032  0.00  0.00    +0.000 C 
ATOM     16  C   UNL     1       5.880   6.143  16.660  0.00  0.00    +0.000 C 
ATOM     17  N   UNL     1       5.775   4.962  15.792  0.00  0.00    +0.000 N 
ATOM     18  C   UNL     1       6.403   4.839  14.576  0.00  0.00    +0.000 A 
ATOM     19  C   UNL     1       7.563   5.547  14.238  0.00  0.00    +0.000 A 
ATOM     20  N   UNL     1       8.207   5.461  13.042  0.00  0.00    +0.000 NA
ATOM     21  C   UNL     1       7.646   4.613  12.160  0.00  0.00    +0.000 A 
ATOM     22  C   UNL     1       6.510   3.892  12.464  0.00  0.00    +0.000 A 
ATOM     23  N   UNL     1       5.881   3.987  13.662  0.00  0.00    +0.000 NA
ATOM     24  C   UNL     1       4.873   3.903  16.266  0.00  0.00    +0.000 C 
ATOM     25  C   UNL     1       3.484   4.464  16.626  0.00  0.00    +0.000 C 
ENDBRANCH   7  14
BRANCH   1  30
ATOM     26  C   UNL     1       1.922  12.477  18.241  0.00  0.00    +0.000 A 
ATOM     27  C   UNL     1       0.589  12.895  18.262  0.00  0.00    +0.000 A 
ATOM     28  C   UNL     1      -0.439  12.015  18.606  0.00  0.00    +0.000 A 
ATOM     29  C   UNL     1      -0.124  10.696  18.928  0.00  0.00    +0.000 A 
ATOM     30  C   UNL     1       1.210  10.259  18.930  0.00  0.00    +0.000 A 
ATOM     31  C   UNL     1       2.229  11.155  18.570  0.00  0.00    +0.000 A 
BRANCH  26  33
ATOM     32  C   UNL     1       2.630  14.741  18.483  0.00  0.00    +0.000 C 
ATOM     33  O   UNL     1       2.820  13.454  17.909  0.00  0.00    +0.000 OA
ENDBRANCH  26  33
BRANCH  28  34
ATOM     34  O   UNL     1      -1.694  12.561  18.611  0.00  0.00    +0.000 OA
ATOM     35  C   UNL     1      -2.790  11.655  18.675  0.00  0.00    +0.000 C 
ENDBRANCH  28  34
ENDBRANCH   1  30
TORSDOF 4
ENDMDL
MODEL 6
REMARK VINA RESULT:      -6.8      2.984      7.091
REMARK  Name = 
REMARK  6 active torsions:
REMARK  status: ('A' for Active; 'I' for Inactive)
REMARK    1  A    between atoms: C_1  and  O_2
REMARK    2  A    between atoms: O_2  and  C_3
REMARK    3  A    between atoms: C_5  and  O_6
REMARK    4  A    between atoms: O_6  and  C_7
REMARK    5  A    between atoms: C_9  and  C_10
REMARK    6  A    between atoms: C_16  and  N_17
REMARK                            x       y       z     vdW  Elec       q    Type
REMARK                         _______ _______ _______ _____ _____    ______ ____
ROOT
ATOM      1  C   UNL     1       1.731   8.805  18.313  0.00  0.00    +0.000 A 
ATOM      2  C   UNL     1       0.319   8.760  18.362  0.00  0.00    +0.000 A 
ATOM      3  C   UNL     1      -0.085  10.023  18.720  0.00  0.00    +0.000 A 
ATOM      4  N   UNL     1      -1.335  10.536  18.895  0.00  0.00    +0.000 NA
ATOM      5  C   UNL     1      -1.401  11.793  19.221  0.00  0.00    +0.000 A 
ATOM      6  C   UNL     1      -0.229  12.715  19.401  0.00  0.00    +0.000 A 
ATOM      7  C   UNL     1       1.000  12.165  19.233  0.00  0.00    +0.000 A 
ATOM      8  N   UNL     1       1.073  10.783  18.883  0.00  0.00    +0.000 N 
ATOM      9  N   UNL     1       2.184  10.024  18.634  0.00  0.00    +0.000 NA
ATOM     10  C   UNL     1      -0.468  14.140  19.822  0.00  0.00    +0.000 C 
ATOM     11  C   UNL     1      -1.870  14.527  20.300  0.00  0.00    +0.000 C 
ATOM     12  C   UNL     1      -2.797  13.354  20.569  0.00  0.00    +0.000 C 
ATOM     13  C   UNL     1      -2.783  12.379  19.409  0.00  0.00    +0.000 C 
ENDROOT
BRANCH   7  14
ATOM     14  N   UNL     1       2.191  12.902  19.379  0.00  0.00    +0.000 N 
ATOM     15  C   UNL     1       2.947  13.445  18.233  0.00  0.00    +0.000 C 
ATOM     16  C   UNL     1       3.135  14.976  18.330  0.00  0.00    +0.000 C 
ATOM     17  N   UNL     1       3.656  15.361  19.649  0.00  0.00    +0.000 N 
ATOM     18  C   UNL     1       4.782  16.123  19.842  0.00  0.00    +0.000 A 
ATOM     19  C   UNL     1       5.277  17.016  18.883  0.00  0.00    +0.000 A 
ATOM     20  N   UNL     1       6.393  17.780  19.032  0.00  0.00    +0.000 NA
ATOM     21  C   UNL     1       7.026  17.628  20.211  0.00  0.00    +0.000 A 
ATOM     22  C   UNL     1       6.560  16.766  21.182  0.00  0.00    +0.000 A 
ATOM     23  N   UNL     1       5.443  16.014  21.019  0.00  0.00    +0.000 NA
ATOM     24  C   UNL     1       2.931  14.810  20.804  0.00  0.00    +0.000 C 
ATOM     25  C   UNL     1       2.762  13.284  20.687  0.00  0.00    +0.000 C 
ENDBRANCH   7  14
BRANCH   1  30
ATOM     26  C   UNL     1       4.750   6.923  17.043  0.00  0.00    +0.000 A 
ATOM     27  C   UNL     1       4.330   5.608  17.252  0.00  0.00    +0.000 A 
ATOM     28  C   UNL     1       3.085   5.328  17.821  0.00  0.00    +0.000 A 
ATOM     29  C   UNL     1       2.255   6.384  18.189  0.00  0.00    +0.000 A 
ATOM     30  C   UNL     1       2.649   7.714  17.972  0.00  0.00    +0.000 A 
ATOM     31  C   UNL     1       3.908   7.976  17.409  0.00  0.00    +0.000 A 
BRANCH  26  33
ATOM     32  C   UNL     1       7.117   7.022  17.309  0.00  0.00    +0.000 C 
ATOM     33  O   UNL     1       5.980   7.043  16.456  0.00  0.00    +0.000 OA
ENDBRANCH  26  33
BRANCH  28  34
ATOM     34  O   UNL     1       2.790   3.997  17.945  0.00  0.00    +0.000 OA
ATOM     35  C   UNL     1       1.438   3.662  18.235  0.00  0.00    +0.000 C 
ENDBRANCH  28  34
ENDBRANCH   1  30
TORSDOF 4
ENDMDL
MODEL 7
REMARK VINA RESULT:      -6.8      2.890      7.232
REMARK  Name = 
REMARK  6 active torsions:
REMARK  status: ('A' for Active; 'I' for Inactive)
REMARK    1  A    between atoms: C_1  and  O_2
REMARK    2  A    between atoms: O_2  and  C_3
REMARK    3  A    between atoms: C_5  and  O_6
REMARK    4  A    between atoms: O_6  and  C_7
REMARK    5  A    between atoms: C_9  and  C_10
REMARK    6  A    between atoms: C_16  and  N_17
REMARK                            x       y       z     vdW  Elec       q    Type
REMARK                         _______ _______ _______ _____ _____    ______ ____
ROOT
ATOM      1  C   UNL     1       0.996   9.510  19.791  0.00  0.00    +0.000 A 
ATOM      2  C   UNL     1      -0.385   9.733  19.987  0.00  0.00    +0.000 A 
ATOM      3  C   UNL     1      -0.530  11.090  20.136  0.00  0.00    +0.000 A 
ATOM      4  N   UNL     1      -1.647  11.845  20.334  0.00  0.00    +0.000 NA
ATOM      5  C   UNL     1      -1.466  13.130  20.419  0.00  0.00    +0.000 A 
ATOM      6  C   UNL     1      -0.147  13.839  20.304  0.00  0.00    +0.000 A 
ATOM      7  C   UNL     1       0.945  13.053  20.123  0.00  0.00    +0.000 A 
ATOM      8  N   UNL     1       0.747  11.641  20.037  0.00  0.00    +0.000 N 
ATOM      9  N   UNL     1       1.678  10.662  19.828  0.00  0.00    +0.000 NA
ATOM     10  C   UNL     1      -0.095  15.334  20.469  0.00  0.00    +0.000 C 
ATOM     11  C   UNL     1      -1.342  16.046  21.000  0.00  0.00    +0.000 C 
ATOM     12  C   UNL     1      -2.403  15.125  21.578  0.00  0.00    +0.000 C 
ATOM     13  C   UNL     1      -2.699  13.982  20.629  0.00  0.00    +0.000 C 
ENDROOT
BRANCH   7  14
ATOM     14  N   UNL     1       2.247  13.573  20.008  0.00  0.00    +0.000 N 
ATOM     15  C   UNL     1       2.824  14.024  18.725  0.00  0.00    +0.000 C 
ATOM     16  C   UNL     1       3.288  15.498  18.778  0.00  0.00    +0.000 C 
ATOM     17  N   UNL     1       4.137  15.740  19.954  0.00  0.00    +0.000 N 
ATOM     18  C   UNL     1       5.392  16.295  19.899  0.00  0.00    +0.000 A 
ATOM     19  C   UNL     1       5.817  17.127  18.855  0.00  0.00    +0.000 A 
ATOM     20  N   UNL     1       7.054  17.687  18.759  0.00  0.00    +0.000 NA
ATOM     21  C   UNL     1       7.887  17.388  19.773  0.00  0.00    +0.000 A 
ATOM     22  C   UNL     1       7.498  16.581  20.822  0.00  0.00    +0.000 A 
ATOM     23  N   UNL     1       6.260  16.033  20.904  0.00  0.00    +0.000 NA
ATOM     24  C   UNL     1       3.591  15.277  21.238  0.00  0.00    +0.000 C 
ATOM     25  C   UNL     1       3.141  13.805  21.161  0.00  0.00    +0.000 C 
ENDBRANCH   7  14
BRANCH   1  30
ATOM     26  C   UNL     1       3.076   6.772  18.228  0.00  0.00    +0.000 A 
ATOM     27  C   UNL     1       2.870   5.744  19.150  0.00  0.00    +0.000 A 
ATOM     28  C   UNL     1       2.079   5.938  20.285  0.00  0.00    +0.000 A 
ATOM     29  C   UNL     1       1.493   7.184  20.497  0.00  0.00    +0.000 A 
ATOM     30  C   UNL     1       1.673   8.227  19.574  0.00  0.00    +0.000 A 
ATOM     31  C   UNL     1       2.480   8.016  18.445  0.00  0.00    +0.000 A 
BRANCH  26  33
ATOM     32  C   UNL     1       4.358   5.099  17.112  0.00  0.00    +0.000 C 
ATOM     33  O   UNL     1       3.853   6.428  17.155  0.00  0.00    +0.000 OA
ENDBRANCH  26  33
BRANCH  28  34
ATOM     34  O   UNL     1       1.940   4.841  21.090  0.00  0.00    +0.000 OA
ATOM     35  C   UNL     1       1.144   3.772  20.590  0.00  0.00    +0.000 C 
ENDBRANCH  28  34
ENDBRANCH   1  30
TORSDOF 4
ENDMDL
MODEL 8
REMARK VINA RESULT:      -6.8      2.718      7.006
REMARK  Name = 
REMARK  6 active torsions:
REMARK  status: ('A' for Active; 'I' for Inactive)
REMARK    1  A    between atoms: C_1  and  O_2
REMARK    2  A    between atoms: O_2  and  C_3
REMARK    3  A    between atoms: C_5  and  O_6
REMARK    4  A    between atoms: O_6  and  C_7
REMARK    5  A    between atoms: C_9  and  C_10
REMARK    6  A    between atoms: C_16  and  N_17
REMARK                            x       y       z     vdW  Elec       q    Type
REMARK                         _______ _______ _______ _____ _____    ______ ____
ROOT
ATOM      1  C   UNL     1       0.576  10.134  19.650  0.00  0.00    +0.000 A 
ATOM      2  C   UNL     1      -0.824  10.152  19.839  0.00  0.00    +0.000 A 
ATOM      3  C   UNL     1      -1.156  11.465  20.063  0.00  0.00    +0.000 A 
ATOM      4  N   UNL     1      -2.368  12.046  20.287  0.00  0.00    +0.000 NA
ATOM      5  C   UNL     1      -2.368  13.337  20.450  0.00  0.00    +0.000 A 
ATOM      6  C   UNL     1      -1.159  14.226  20.394  0.00  0.00    +0.000 A 
ATOM      7  C   UNL     1       0.032  13.611  20.185  0.00  0.00    +0.000 A 
ATOM      8  N   UNL     1       0.032  12.193  20.014  0.00  0.00    +0.000 N 
ATOM      9  N   UNL     1       1.092  11.365  19.763  0.00  0.00    +0.000 NA
ATOM     10  C   UNL     1      -1.316  15.702  20.645  0.00  0.00    +0.000 C 
ATOM     11  C   UNL     1      -2.653  16.203  21.199  0.00  0.00    +0.000 C 
ATOM     12  C   UNL     1      -3.580  15.112  21.707  0.00  0.00    +0.000 C 
ATOM     13  C   UNL     1      -3.708  13.996  20.689  0.00  0.00    +0.000 C 
ENDROOT
BRANCH   7  14
ATOM     14  N   UNL     1       1.250  14.312  20.119  0.00  0.00    +0.000 N 
ATOM     15  C   UNL     1       2.077  14.604  21.308  0.00  0.00    +0.000 C 
ATOM     16  C   UNL     1       3.511  14.044  21.174  0.00  0.00    +0.000 C 
ATOM     17  N   UNL     1       4.114  14.440  19.893  0.00  0.00    +0.000 N 
ATOM     18  C   UNL     1       5.325  15.077  19.774  0.00  0.00    +0.000 A 
ATOM     19  C   UNL     1       6.335  14.991  20.740  0.00  0.00    +0.000 A 
ATOM     20  N   UNL     1       7.543  15.614  20.664  0.00  0.00    +0.000 NA
ATOM     21  C   UNL     1       7.726  16.350  19.552  0.00  0.00    +0.000 A 
ATOM     22  C   UNL     1       6.757  16.448  18.575  0.00  0.00    +0.000 A 
ATOM     23  N   UNL     1       5.560  15.818  18.665  0.00  0.00    +0.000 NA
ATOM     24  C   UNL     1       3.297  14.181  18.699  0.00  0.00    +0.000 C 
ATOM     25  C   UNL     1       1.874  14.752  18.854  0.00  0.00    +0.000 C 
ENDBRANCH   7  14
BRANCH   1  30
ATOM     26  C   UNL     1       2.958   7.767  17.921  0.00  0.00    +0.000 A 
ATOM     27  C   UNL     1       2.959   6.706  18.829  0.00  0.00    +0.000 A 
ATOM     28  C   UNL     1       2.209   6.761  20.006  0.00  0.00    +0.000 A 
ATOM     29  C   UNL     1       1.454   7.901  20.277  0.00  0.00    +0.000 A 
ATOM     30  C   UNL     1       1.426   8.972  19.370  0.00  0.00    +0.000 A 
ATOM     31  C   UNL     1       2.195   8.903  18.197  0.00  0.00    +0.000 A 
BRANCH  26  33
ATOM     32  C   UNL     1       4.791   6.631  16.902  0.00  0.00    +0.000 C 
ATOM     33  O   UNL     1       3.720   7.561  16.803  0.00  0.00    +0.000 OA
ENDBRANCH  26  33
BRANCH  28  34
ATOM     34  O   UNL     1       2.279   5.643  20.792  0.00  0.00    +0.000 OA
ATOM     35  C   UNL     1       1.422   4.560  20.450  0.00  0.00    +0.000 C 
ENDBRANCH  28  34
ENDBRANCH   1  30
TORSDOF 4
ENDMDL
MODEL 9
REMARK VINA RESULT:      -6.7      2.898      7.026
REMARK  Name = 
REMARK  6 active torsions:
REMARK  status: ('A' for Active; 'I' for Inactive)
REMARK    1  A    between atoms: C_1  and  O_2
REMARK    2  A    between atoms: O_2  and  C_3
REMARK    3  A    between atoms: C_5  and  O_6
REMARK    4  A    between atoms: O_6  and  C_7
REMARK    5  A    between atoms: C_9  and  C_10
REMARK    6  A    between atoms: C_16  and  N_17
REMARK                            x       y       z     vdW  Elec       q    Type
REMARK                         _______ _______ _______ _____ _____    ______ ____
ROOT
ATOM      1  C   UNL     1       0.974   9.524  19.761  0.00  0.00    +0.000 A 
ATOM      2  C   UNL     1      -0.403   9.757  19.974  0.00  0.00    +0.000 A 
ATOM      3  C   UNL     1      -0.535  11.114  20.134  0.00  0.00    +0.000 A 
ATOM      4  N   UNL     1      -1.643  11.877  20.348  0.00  0.00    +0.000 NA
ATOM      5  C   UNL     1      -1.451  13.160  20.441  0.00  0.00    +0.000 A 
ATOM      6  C   UNL     1      -0.127  13.859  20.316  0.00  0.00    +0.000 A 
ATOM      7  C   UNL     1       0.956  13.066  20.118  0.00  0.00    +0.000 A 
ATOM      8  N   UNL     1       0.746  11.656  20.024  0.00  0.00    +0.000 N 
ATOM      9  N   UNL     1       1.666  10.670  19.798  0.00  0.00    +0.000 NA
ATOM     10  C   UNL     1      -0.061  15.352  20.490  0.00  0.00    +0.000 C 
ATOM     11  C   UNL     1      -1.296  16.071  21.040  0.00  0.00    +0.000 C 
ATOM     12  C   UNL     1      -2.358  15.155  21.623  0.00  0.00    +0.000 C 
ATOM     13  C   UNL     1      -2.674  14.021  20.669  0.00  0.00    +0.000 C 
ENDROOT
BRANCH   7  14
ATOM     14  N   UNL     1       2.261  13.576  19.992  0.00  0.00    +0.000 N 
ATOM     15  C   UNL     1       2.827  14.033  18.706  0.00  0.00    +0.000 C 
ATOM     16  C   UNL     1       3.304  15.502  18.767  0.00  0.00    +0.000 C 
ATOM     17  N   UNL     1       4.169  15.727  19.935  0.00  0.00    +0.000 N 
ATOM     18  C   UNL     1       5.427  16.272  19.869  0.00  0.00    +0.000 A 
ATOM     19  C   UNL     1       5.847  17.110  18.828  0.00  0.00    +0.000 A 
ATOM     20  N   UNL     1       7.088  17.660  18.722  0.00  0.00    +0.000 NA
ATOM     21  C   UNL     1       7.930  17.345  19.724  0.00  0.00    +0.000 A 
ATOM     22  C   UNL     1       7.546  16.532  20.771  0.00  0.00    +0.000 A 
ATOM     23  N   UNL     1       6.305  15.995  20.863  0.00  0.00    +0.000 NA
ATOM     24  C   UNL     1       3.634  15.258  21.221  0.00  0.00    +0.000 C 
ATOM     25  C   UNL     1       3.170  13.791  21.137  0.00  0.00    +0.000 C 
ENDBRANCH   7  14
BRANCH   1  30
ATOM     26  C   UNL     1       2.212   5.988  20.245  0.00  0.00    +0.000 A 
ATOM     27  C   UNL     1       2.991   5.837  19.095  0.00  0.00    +0.000 A 
ATOM     28  C   UNL     1       3.101   6.865  18.156  0.00  0.00    +0.000 A 
ATOM     29  C   UNL     1       2.413   8.058  18.372  0.00  0.00    +0.000 A 
ATOM     30  C   UNL     1       1.638   8.237  19.529  0.00  0.00    +0.000 A 
ATOM     31  C   UNL     1       1.532   7.189  20.456  0.00  0.00    +0.000 A 
BRANCH  26  33
ATOM     32  C   UNL     1       1.341   3.833  20.775  0.00  0.00    +0.000 C 
ATOM     33  O   UNL     1       2.219   4.908  21.084  0.00  0.00    +0.000 OA
ENDBRANCH  26  33
BRANCH  28  34
ATOM     34  O   UNL     1       3.916   6.593  17.091  0.00  0.00    +0.000 OA
ATOM     35  C   UNL     1       4.991   5.689  17.317  0.00  0.00    +0.000 C 
ENDBRANCH  28  34
ENDBRANCH   1  30
TORSDOF 4
ENDMDL
