MODEL 1
REMARK VINA RESULT:      -7.2      0.000      0.000
REMARK  Name = 
REMARK  2 active torsions:
REMARK  status: ('A' for Active; 'I' for Inactive)
REMARK    1  A    between atoms: C_2  and  C_17
REMARK    2  A    between atoms: N_3  and  C_4
REMARK                            x       y       z     vdW  Elec       q    Type
REMARK                         _______ _______ _______ _____ _____    ______ ____
ROOT
ATOM      1  C   UNL     1       9.349  10.179  19.067  0.00  0.00    +0.000 A 
ATOM      2  C   UNL     1       9.332  10.738  20.351  0.00  0.00    +0.000 A 
ATOM      3  C   UNL     1       9.691  12.066  20.591  0.00  0.00    +0.000 A 
ATOM      4  C   UNL     1      10.073  12.824  19.492  0.00  0.00    +0.000 A 
ATOM      5  C   UNL     1      10.132  12.311  18.203  0.00  0.00    +0.000 A 
ATOM      6  C   UNL     1       9.790  10.960  17.983  0.00  0.00    +0.000 A 
ATOM      7  N   UNL     1      10.524  13.288  17.315  0.00  0.00    +0.000 NA
ATOM      8  C   UNL     1      10.671  14.396  18.026  0.00  0.00    +0.000 A 
ATOM      9  N   UNL     1      10.449  14.137  19.359  0.00  0.00    +0.000 N 
ATOM     10  C   UNL     1      10.510  15.093  20.448  0.00  0.00    +0.000 C 
ATOM     11  C   UNL     1      11.334  16.332  20.145  0.00  0.00    +0.000 C 
ATOM     12  S   UNL     1      10.743  17.123  18.623  0.00  0.00    +0.000 S 
ATOM     13  C   UNL     1      11.064  15.734  17.489  0.00  0.00    +0.000 C 
ENDROOT
BRANCH   1  16
ATOM     14  O   UNL     1       7.309   9.234  17.193  0.00  0.00    +0.000 OA
ATOM     15  C   UNL     1       7.941   8.465  17.910  0.00  0.00    +0.000 C 
ATOM     16  N   UNL     1       8.921   8.850  18.820  0.00  0.00    +0.000 N 
ATOM     17  H   UNL     1       9.435   8.096  19.261  0.00  0.00    +0.000 HD
BRANCH  15  18
ATOM     18  C   UNL     1       7.722   7.036  17.814  0.00  0.00    +0.000 A 
ATOM     19  C   UNL     1       7.766   6.076  18.810  0.00  0.00    +0.000 A 
ATOM     20  C   UNL     1       7.443   4.843  18.205  0.00  0.00    +0.000 A 
ATOM     21  C   UNL     1       7.239   5.117  16.873  0.00  0.00    +0.000 A 
ATOM     22  O   UNL     1       7.405   6.445  16.621  0.00  0.00    +0.000 OA
ENDBRANCH  15  18
ENDBRANCH   1  16
TORSDOF 2
ENDMDL
MODEL 2
REMARK VINA RESULT:      -7.1      7.784      8.517
REMARK  Name = 
REMARK  2 active torsions:
REMARK  status: ('A' for Active; 'I' for Inactive)
REMARK    1  A    between atoms: C_2  and  C_17
REMARK    2  A    between atoms: N_3  and  C_4
REMARK                            x       y       z     vdW  Elec       q    Type
REMARK                         _______ _______ _______ _____ _____    ______ ____
ROOT
ATOM      1  C   UNL     1       2.932   7.174  18.211  0.00  0.00    +0.000 A 
ATOM      2  C   UNL     1       2.564   6.715  19.481  0.00  0.00    +0.000 A 
ATOM      3  C   UNL     1       1.783   7.477  20.354  0.00  0.00    +0.000 A 
ATOM      4  C   UNL     1       1.381   8.729  19.907  0.00  0.00    +0.000 A 
ATOM      5  C   UNL     1       1.740   9.241  18.668  0.00  0.00    +0.000 A 
ATOM      6  C   UNL     1       2.549   8.467  17.809  0.00  0.00    +0.000 A 
ATOM      7  N   UNL     1       1.186  10.489  18.486  0.00  0.00    +0.000 NA
ATOM      8  C   UNL     1       0.468  10.736  19.571  0.00  0.00    +0.000 A 
ATOM      9  N   UNL     1       0.602   9.707  20.473  0.00  0.00    +0.000 N 
ATOM     10  C   UNL     1      -0.033   9.607  21.774  0.00  0.00    +0.000 C 
ATOM     11  C   UNL     1      -0.479  10.938  22.353  0.00  0.00    +0.000 C 
ATOM     12  S   UNL     1      -1.551  11.807  21.176  0.00  0.00    +0.000 S 
ATOM     13  C   UNL     1      -0.343  11.967  19.822  0.00  0.00    +0.000 C 
ENDROOT
BRANCH   1  16
ATOM     14  O   UNL     1       5.763   7.355  17.489  0.00  0.00    +0.000 OA
ATOM     15  C   UNL     1       5.019   6.508  17.004  0.00  0.00    +0.000 C 
ATOM     16  N   UNL     1       3.668   6.370  17.304  0.00  0.00    +0.000 N 
ATOM     17  H   UNL     1       3.209   5.555  16.912  0.00  0.00    +0.000 HD
BRANCH  15  18
ATOM     18  C   UNL     1       5.544   5.525  16.076  0.00  0.00    +0.000 A 
ATOM     19  C   UNL     1       5.157   4.211  15.884  0.00  0.00    +0.000 A 
ATOM     20  C   UNL     1       5.955   3.699  14.838  0.00  0.00    +0.000 A 
ATOM     21  C   UNL     1       6.793   4.722  14.465  0.00  0.00    +0.000 A 
ATOM     22  O   UNL     1       6.555   5.838  15.208  0.00  0.00    +0.000 OA
ENDBRANCH  15  18
ENDBRANCH   1  16
TORSDOF 2
ENDMDL
MODEL 3
REMARK VINA RESULT:      -7.1      8.075      9.230
REMARK  Name = 
REMARK  2 active torsions:
REMARK  status: ('A' for Active; 'I' for Inactive)
REMARK    1  A    between atoms: C_2  and  C_17
REMARK    2  A    between atoms: N_3  and  C_4
REMARK                            x       y       z     vdW  Elec       q    Type
REMARK                         _______ _______ _______ _____ _____    ______ ____
ROOT
ATOM      1  C   UNL     1       2.417   7.952  18.624  0.00  0.00    +0.000 A 
ATOM      2  C   UNL     1       1.851   8.980  17.860  0.00  0.00    +0.000 A 
ATOM      3  C   UNL     1       0.942   9.895  18.396  0.00  0.00    +0.000 A 
ATOM      4  C   UNL     1       0.613   9.744  19.737  0.00  0.00    +0.000 A 
ATOM      5  C   UNL     1       1.126   8.727  20.531  0.00  0.00    +0.000 A 
ATOM      6  C   UNL     1       2.024   7.797  19.966  0.00  0.00    +0.000 A 
ATOM      7  N   UNL     1       0.643   8.832  21.817  0.00  0.00    +0.000 NA
ATOM      8  C   UNL     1      -0.125   9.911  21.835  0.00  0.00    +0.000 A 
ATOM      9  N   UNL     1      -0.201  10.461  20.577  0.00  0.00    +0.000 N 
ATOM     10  C   UNL     1      -0.939  11.650  20.195  0.00  0.00    +0.000 C 
ATOM     11  C   UNL     1      -2.067  12.015  21.143  0.00  0.00    +0.000 C 
ATOM     12  S   UNL     1      -1.440  12.162  22.839  0.00  0.00    +0.000 S 
ATOM     13  C   UNL     1      -0.851  10.447  23.027  0.00  0.00    +0.000 C 
ENDROOT
BRANCH   1  16
ATOM     14  O   UNL     1       2.148   5.107  17.991  0.00  0.00    +0.000 OA
ATOM     15  C   UNL     1       3.197   5.718  17.812  0.00  0.00    +0.000 C 
ATOM     16  N   UNL     1       3.389   7.068  18.093  0.00  0.00    +0.000 N 
ATOM     17  H   UNL     1       4.273   7.461  17.789  0.00  0.00    +0.000 HD
BRANCH  15  18
ATOM     18  C   UNL     1       4.341   5.045  17.229  0.00  0.00    +0.000 A 
ATOM     19  C   UNL     1       4.372   3.974  16.355  0.00  0.00    +0.000 A 
ATOM     20  C   UNL     1       5.730   3.724  16.061  0.00  0.00    +0.000 A 
ATOM     21  C   UNL     1       6.449   4.646  16.784  0.00  0.00    +0.000 A 
ATOM     22  O   UNL     1       5.619   5.455  17.499  0.00  0.00    +0.000 OA
ENDBRANCH  15  18
ENDBRANCH   1  16
TORSDOF 2
ENDMDL
MODEL 4
REMARK VINA RESULT:      -6.9      8.303     10.747
REMARK  Name = 
REMARK  2 active torsions:
REMARK  status: ('A' for Active; 'I' for Inactive)
REMARK    1  A    between atoms: C_2  and  C_17
REMARK    2  A    between atoms: N_3  and  C_4
REMARK                            x       y       z     vdW  Elec       q    Type
REMARK                         _______ _______ _______ _____ _____    ______ ____
ROOT
ATOM      1  C   UNL     1       1.002   9.065  19.757  0.00  0.00    +0.000 A 
ATOM      2  C   UNL     1       1.471   9.507  18.515  0.00  0.00    +0.000 A 
ATOM      3  C   UNL     1       2.413   8.790  17.774  0.00  0.00    +0.000 A 
ATOM      4  C   UNL     1       2.876   7.603  18.325  0.00  0.00    +0.000 A 
ATOM      5  C   UNL     1       2.463   7.133  19.565  0.00  0.00    +0.000 A 
ATOM      6  C   UNL     1       1.529   7.884  20.311  0.00  0.00    +0.000 A 
ATOM      7  N   UNL     1       3.069   5.929  19.849  0.00  0.00    +0.000 NA
ATOM      8  C   UNL     1       3.816   5.635  18.795  0.00  0.00    +0.000 A 
ATOM      9  N   UNL     1       3.757   6.653  17.872  0.00  0.00    +0.000 N 
ATOM     10  C   UNL     1       4.432   6.699  16.589  0.00  0.00    +0.000 C 
ATOM     11  C   UNL     1       5.643   5.788  16.489  0.00  0.00    +0.000 C 
ATOM     12  S   UNL     1       5.185   4.085  16.917  0.00  0.00    +0.000 S 
ATOM     13  C   UNL     1       4.647   4.404  18.629  0.00  0.00    +0.000 C 
ENDROOT
BRANCH   1  16
ATOM     14  O   UNL     1       1.273  11.453  21.428  0.00  0.00    +0.000 OA
ATOM     15  C   UNL     1       0.192  10.899  21.254  0.00  0.00    +0.000 C 
ATOM     16  N   UNL     1      -0.003   9.763  20.474  0.00  0.00    +0.000 N 
ATOM     17  H   UNL     1      -0.967   9.485  20.332  0.00  0.00    +0.000 HD
BRANCH  15  18
ATOM     18  C   UNL     1      -1.011  11.449  21.846  0.00  0.00    +0.000 A 
ATOM     19  C   UNL     1      -1.496  11.304  23.134  0.00  0.00    +0.000 A 
ATOM     20  C   UNL     1      -2.680  12.068  23.213  0.00  0.00    +0.000 A 
ATOM     21  C   UNL     1      -2.859  12.620  21.967  0.00  0.00    +0.000 A 
ATOM     22  O   UNL     1      -1.853  12.253  21.126  0.00  0.00    +0.000 OA
ENDBRANCH  15  18
ENDBRANCH   1  16
TORSDOF 2
ENDMDL
MODEL 5
REMARK VINA RESULT:      -6.9      9.264     11.541
REMARK  Name = 
REMARK  2 active torsions:
REMARK  status: ('A' for Active; 'I' for Inactive)
REMARK    1  A    between atoms: C_2  and  C_17
REMARK    2  A    between atoms: N_3  and  C_4
REMARK                            x       y       z     vdW  Elec       q    Type
REMARK                         _______ _______ _______ _____ _____    ______ ____
ROOT
ATOM      1  C   UNL     1       1.426   8.656  20.104  0.00  0.00    +0.000 A 
ATOM      2  C   UNL     1       1.869   8.632  18.776  0.00  0.00    +0.000 A 
ATOM      3  C   UNL     1       2.395   7.480  18.185  0.00  0.00    +0.000 A 
ATOM      4  C   UNL     1       2.465   6.342  18.977  0.00  0.00    +0.000 A 
ATOM      5  C   UNL     1       2.064   6.320  20.306  0.00  0.00    +0.000 A 
ATOM      6  C   UNL     1       1.558   7.499  20.894  0.00  0.00    +0.000 A 
ATOM      7  N   UNL     1       2.228   5.059  20.836  0.00  0.00    +0.000 NA
ATOM      8  C   UNL     1       2.688   4.302  19.851  0.00  0.00    +0.000 A 
ATOM      9  N   UNL     1       2.885   5.061  18.721  0.00  0.00    +0.000 N 
ATOM     10  C   UNL     1       3.372   4.593  17.438  0.00  0.00    +0.000 C 
ATOM     11  C   UNL     1       4.155   3.293  17.504  0.00  0.00    +0.000 C 
ATOM     12  S   UNL     1       3.173   2.010  18.330  0.00  0.00    +0.000 S 
ATOM     13  C   UNL     1       2.996   2.842  19.942  0.00  0.00    +0.000 C 
ENDROOT
BRANCH   1  16
ATOM     14  O   UNL     1      -0.551   8.814  22.257  0.00  0.00    +0.000 OA
ATOM     15  C   UNL     1      -0.106   9.816  21.705  0.00  0.00    +0.000 C 
ATOM     16  N   UNL     1       0.833   9.808  20.678  0.00  0.00    +0.000 N 
ATOM     17  H   UNL     1       1.189  10.715  20.398  0.00  0.00    +0.000 HD
BRANCH  15  18
ATOM     18  C   UNL     1      -0.522  11.133  22.144  0.00  0.00    +0.000 A 
ATOM     19  C   UNL     1      -1.601  11.491  22.932  0.00  0.00    +0.000 A 
ATOM     20  C   UNL     1      -1.541  12.892  23.097  0.00  0.00    +0.000 A 
ATOM     21  C   UNL     1      -0.439  13.310  22.389  0.00  0.00    +0.000 A 
ATOM     22  O   UNL     1       0.190  12.253  21.804  0.00  0.00    +0.000 OA
ENDBRANCH  15  18
ENDBRANCH   1  16
TORSDOF 2
ENDMDL
MODEL 6
REMARK VINA RESULT:      -6.8      9.192     11.531
REMARK  Name = 
REMARK  2 active torsions:
REMARK  status: ('A' for Active; 'I' for Inactive)
REMARK    1  A    between atoms: C_2  and  C_17
REMARK    2  A    between atoms: N_3  and  C_4
REMARK                            x       y       z     vdW  Elec       q    Type
REMARK                         _______ _______ _______ _____ _____    ______ ____
ROOT
ATOM      1  C   UNL     1       1.440   8.631  20.072  0.00  0.00    +0.000 A 
ATOM      2  C   UNL     1       1.940   8.615  18.765  0.00  0.00    +0.000 A 
ATOM      3  C   UNL     1       2.475   7.463  18.183  0.00  0.00    +0.000 A 
ATOM      4  C   UNL     1       2.493   6.315  18.964  0.00  0.00    +0.000 A 
ATOM      5  C   UNL     1       2.033   6.283  20.274  0.00  0.00    +0.000 A 
ATOM      6  C   UNL     1       1.519   7.463  20.853  0.00  0.00    +0.000 A 
ATOM      7  N   UNL     1       2.156   5.014  20.795  0.00  0.00    +0.000 NA
ATOM      8  C   UNL     1       2.647   4.261  19.822  0.00  0.00    +0.000 A 
ATOM      9  N   UNL     1       2.906   5.031  18.711  0.00  0.00    +0.000 N 
ATOM     10  C   UNL     1       3.443   4.570  17.445  0.00  0.00    +0.000 C 
ATOM     11  C   UNL     1       4.203   3.258  17.530  0.00  0.00    +0.000 C 
ATOM     12  S   UNL     1       3.167   1.981  18.296  0.00  0.00    +0.000 S 
ATOM     13  C   UNL     1       2.931   2.796  19.908  0.00  0.00    +0.000 C 
ENDROOT
BRANCH   1  16
ATOM     14  O   UNL     1      -1.027   9.984  19.263  0.00  0.00    +0.000 OA
ATOM     15  C   UNL     1      -0.342  10.382  20.200  0.00  0.00    +0.000 C 
ATOM     16  N   UNL     1       0.838   9.785  20.633  0.00  0.00    +0.000 N 
ATOM     17  H   UNL     1       1.234  10.159  21.488  0.00  0.00    +0.000 HD
BRANCH  15  18
ATOM     18  C   UNL     1      -0.768  11.529  20.977  0.00  0.00    +0.000 A 
ATOM     19  C   UNL     1      -1.904  12.306  20.836  0.00  0.00    +0.000 A 
ATOM     20  C   UNL     1      -1.868  13.274  21.863  0.00  0.00    +0.000 A 
ATOM     21  C   UNL     1      -0.706  13.044  22.560  0.00  0.00    +0.000 A 
ATOM     22  O   UNL     1      -0.027  11.987  22.033  0.00  0.00    +0.000 OA
ENDBRANCH  15  18
ENDBRANCH   1  16
TORSDOF 2
ENDMDL
MODEL 7
REMARK VINA RESULT:      -6.8      8.337      8.840
REMARK  Name = 
REMARK  2 active torsions:
REMARK  status: ('A' for Active; 'I' for Inactive)
REMARK    1  A    between atoms: C_2  and  C_17
REMARK    2  A    between atoms: N_3  and  C_4
REMARK                            x       y       z     vdW  Elec       q    Type
REMARK                         _______ _______ _______ _____ _____    ______ ____
ROOT
ATOM      1  C   UNL     1       2.205   7.141  19.189  0.00  0.00    +0.000 A 
ATOM      2  C   UNL     1       2.345   7.943  18.050  0.00  0.00    +0.000 A 
ATOM      3  C   UNL     1       1.932   9.277  18.022  0.00  0.00    +0.000 A 
ATOM      4  C   UNL     1       1.368   9.787  19.184  0.00  0.00    +0.000 A 
ATOM      5  C   UNL     1       1.184   9.026  20.331  0.00  0.00    +0.000 A 
ATOM      6  C   UNL     1       1.584   7.673  20.334  0.00  0.00    +0.000 A 
ATOM      7  N   UNL     1       0.622   9.792  21.329  0.00  0.00    +0.000 NA
ATOM      8  C   UNL     1       0.492  11.012  20.829  0.00  0.00    +0.000 A 
ATOM      9  N   UNL     1       0.893  11.031  19.514  0.00  0.00    +0.000 N 
ATOM     10  C   UNL     1       0.905  12.181  18.629  0.00  0.00    +0.000 C 
ATOM     11  C   UNL     1      -0.029  13.301  19.049  0.00  0.00    +0.000 C 
ATOM     12  S   UNL     1       0.317  13.798  20.759  0.00  0.00    +0.000 S 
ATOM     13  C   UNL     1      -0.051  12.201  21.554  0.00  0.00    +0.000 C 
ENDROOT
BRANCH   1  16
ATOM     14  O   UNL     1       1.316   4.824  17.637  0.00  0.00    +0.000 OA
ATOM     15  C   UNL     1       2.218   4.746  18.465  0.00  0.00    +0.000 C 
ATOM     16  N   UNL     1       2.686   5.808  19.234  0.00  0.00    +0.000 N 
ATOM     17  H   UNL     1       3.510   5.618  19.793  0.00  0.00    +0.000 HD
BRANCH  15  18
ATOM     18  C   UNL     1       2.912   3.490  18.668  0.00  0.00    +0.000 A 
ATOM     19  C   UNL     1       2.835   2.320  17.934  0.00  0.00    +0.000 A 
ATOM     20  C   UNL     1       3.736   1.407  18.523  0.00  0.00    +0.000 A 
ATOM     21  C   UNL     1       4.297   2.065  19.592  0.00  0.00    +0.000 A 
ATOM     22  O   UNL     1       3.806   3.331  19.693  0.00  0.00    +0.000 OA
ENDBRANCH  15  18
ENDBRANCH   1  16
TORSDOF 2
ENDMDL
MODEL 8
REMARK VINA RESULT:      -6.7      8.258     10.451
REMARK  Name = 
REMARK  2 active torsions:
REMARK  status: ('A' for Active; 'I' for Inactive)
REMARK    1  A    between atoms: C_2  and  C_17
REMARK    2  A    between atoms: N_3  and  C_4
REMARK                            x       y       z     vdW  Elec       q    Type
REMARK                         _______ _______ _______ _____ _____    ______ ____
ROOT
ATOM      1  C   UNL     1       1.427   8.076  20.041  0.00  0.00    +0.000 A 
ATOM      2  C   UNL     1       1.549   6.784  20.566  0.00  0.00    +0.000 A 
ATOM      3  C   UNL     1       2.367   5.814  19.981  0.00  0.00    +0.000 A 
ATOM      4  C   UNL     1       3.064   6.184  18.839  0.00  0.00    +0.000 A 
ATOM      5  C   UNL     1       2.959   7.444  18.264  0.00  0.00    +0.000 A 
ATOM      6  C   UNL     1       2.109   8.403  18.854  0.00  0.00    +0.000 A 
ATOM      7  N   UNL     1       3.773   7.535  17.156  0.00  0.00    +0.000 NA
ATOM      8  C   UNL     1       4.401   6.373  17.063  0.00  0.00    +0.000 A 
ATOM      9  N   UNL     1       3.959   5.514  18.043  0.00  0.00    +0.000 N 
ATOM     10  C   UNL     1       4.411   4.155  18.271  0.00  0.00    +0.000 C 
ATOM     11  C   UNL     1       5.053   3.500  17.062  0.00  0.00    +0.000 C 
ATOM     12  S   UNL     1       6.404   4.532  16.432  0.00  0.00    +0.000 S 
ATOM     13  C   UNL     1       5.413   6.006  16.026  0.00  0.00    +0.000 C 
ENDROOT
BRANCH   1  16
ATOM     14  O   UNL     1       1.881   9.385  22.619  0.00  0.00    +0.000 OA
ATOM     15  C   UNL     1       0.920   9.661  21.909  0.00  0.00    +0.000 C 
ATOM     16  N   UNL     1       0.648   9.075  20.676  0.00  0.00    +0.000 N 
ATOM     17  H   UNL     1      -0.119   9.483  20.153  0.00  0.00    +0.000 HD
BRANCH  15  18
ATOM     18  C   UNL     1      -0.011  10.695  22.314  0.00  0.00    +0.000 A 
ATOM     19  C   UNL     1      -1.138  10.593  23.110  0.00  0.00    +0.000 A 
ATOM     20  C   UNL     1      -1.673  11.893  23.231  0.00  0.00    +0.000 A 
ATOM     21  C   UNL     1      -0.853  12.711  22.489  0.00  0.00    +0.000 A 
ATOM     22  O   UNL     1       0.161  11.996  21.926  0.00  0.00    +0.000 OA
ENDBRANCH  15  18
ENDBRANCH   1  16
TORSDOF 2
ENDMDL
MODEL 9
REMARK VINA RESULT:      -6.6      7.609      8.855
REMARK  Name = 
REMARK  2 active torsions:
REMARK  status: ('A' for Active; 'I' for Inactive)
REMARK    1  A    between atoms: C_2  and  C_17
REMARK    2  A    between atoms: N_3  and  C_4
REMARK                            x       y       z     vdW  Elec       q    Type
REMARK                         _______ _______ _______ _____ _____    ______ ____
ROOT
ATOM      1  C   UNL     1       2.639   7.532  18.302  0.00  0.00    +0.000 A 
ATOM      2  C   UNL     1       2.151   8.637  17.594  0.00  0.00    +0.000 A 
ATOM      3  C   UNL     1       1.311   9.588  18.179  0.00  0.00    +0.000 A 
ATOM      4  C   UNL     1       0.971   9.392  19.511  0.00  0.00    +0.000 A 
ATOM      5  C   UNL     1       1.407   8.301  20.251  0.00  0.00    +0.000 A 
ATOM      6  C   UNL     1       2.235   7.337  19.636  0.00  0.00    +0.000 A 
ATOM      7  N   UNL     1       0.932   8.376  21.542  0.00  0.00    +0.000 NA
ATOM      8  C   UNL     1       0.246   9.506  21.618  0.00  0.00    +0.000 A 
ATOM      9  N   UNL     1       0.212  10.124  20.389  0.00  0.00    +0.000 N 
ATOM     10  C   UNL     1      -0.436  11.382  20.071  0.00  0.00    +0.000 C 
ATOM     11  C   UNL     1      -1.535  11.781  21.040  0.00  0.00    +0.000 C 
ATOM     12  S   UNL     1      -0.900  11.793  22.739  0.00  0.00    +0.000 S 
ATOM     13  C   UNL     1      -0.439  10.033  22.837  0.00  0.00    +0.000 C 
ENDROOT
BRANCH   1  16
ATOM     14  O   UNL     1       5.430   7.947  17.523  0.00  0.00    +0.000 OA
ATOM     15  C   UNL     1       4.865   6.868  17.375  0.00  0.00    +0.000 C 
ATOM     16  N   UNL     1       3.543   6.607  17.723  0.00  0.00    +0.000 N 
ATOM     17  H   UNL     1       3.249   5.640  17.645  0.00  0.00    +0.000 HD
BRANCH  15  18
ATOM     18  C   UNL     1       5.592   5.733  16.840  0.00  0.00    +0.000 A 
ATOM     19  C   UNL     1       5.202   4.820  15.877  0.00  0.00    +0.000 A 
ATOM     20  C   UNL     1       6.286   3.936  15.689  0.00  0.00    +0.000 A 
ATOM     21  C   UNL     1       7.267   4.349  16.558  0.00  0.00    +0.000 A 
ATOM     22  O   UNL     1       6.860   5.440  17.265  0.00  0.00    +0.000 OA
ENDBRANCH  15  18
ENDBRANCH   1  16
TORSDOF 2
ENDMDL
