MODEL 1
REMARK VINA RESULT:      -7.5      0.000      0.000
REMARK  Name = 
REMARK  5 active torsions:
REMARK  status: ('A' for Active; 'I' for Inactive)
REMARK    1  A    between atoms: C_2  and  C_15
REMARK    2  A    between atoms: N_3  and  N_4
REMARK    3  A    between atoms: N_4  and  S_5
REMARK    4  A    between atoms: S_5  and  C_8
REMARK    5  A    between atoms: C_18  and  O_19
REMARK                            x       y       z     vdW  Elec       q    Type
REMARK                         _______ _______ _______ _____ _____    ______ ____
ROOT
ATOM      1  O   UNL     1       2.339   7.791  19.161  0.00  0.00    +0.000 OA
ATOM      2  C   UNL     1       1.985   6.943  19.974  0.00  0.00    +0.000 C 
ATOM      3  N   UNL     1       1.702   7.233  21.294  0.00  0.00    +0.000 N 
ATOM      4  H   UNL     1       1.398   6.536  21.970  0.00  0.00    +0.000 HD
ENDROOT
BRANCH   2   5
ATOM      5  C   UNL     1       1.847   5.510  19.584  0.00  0.00    +0.000 A 
ATOM      6  C   UNL     1       1.342   4.601  20.523  0.00  0.00    +0.000 A 
ATOM      7  C   UNL     1       1.173   3.254  20.183  0.00  0.00    +0.000 A 
ATOM      8  C   UNL     1       1.523   2.822  18.908  0.00  0.00    +0.000 A 
ATOM      9  C   UNL     1       2.052   3.706  17.975  0.00  0.00    +0.000 A 
ATOM     10  C   UNL     1       2.224   5.051  18.312  0.00  0.00    +0.000 A 
BRANCH   8  11
ATOM     11  O   UNL     1       1.371   1.522  18.527  0.00  0.00    +0.000 OA
ATOM     12  H   UNL     1       0.665   1.118  19.058  0.00  0.00    +0.000 HD
ENDBRANCH   8  11
ENDBRANCH   2   5
BRANCH   3  13
ATOM     13  N   UNL     1       1.699   8.620  21.737  0.00  0.00    +0.000 NA
ATOM     14  H   UNL     1       2.422   9.237  21.352  0.00  0.00    +0.000 HD
BRANCH  13  15
ATOM     15  S   UNL     1       0.192   9.258  22.165  0.00  0.00    +0.000 S 
ATOM     16  O   UNL     1      -0.776   8.189  22.022  0.00  0.00    +0.000 OA
ATOM     17  O   UNL     1       0.351   9.938  23.433  0.00  0.00    +0.000 OA
BRANCH  15  18
ATOM     18  C   UNL     1      -0.131  10.463  20.907  0.00  0.00    +0.000 A 
ATOM     19  C   UNL     1       0.015  11.825  21.201  0.00  0.00    +0.000 A 
ATOM     20  C   UNL     1      -0.135  12.768  20.183  0.00  0.00    +0.000 A 
ATOM     21  C   UNL     1      -0.418  12.344  18.888  0.00  0.00    +0.000 A 
ATOM     22  F   UNL     1      -0.548  13.251  17.912  0.00  0.00    +0.000 F 
ATOM     23  C   UNL     1      -0.553  10.991  18.587  0.00  0.00    +0.000 A 
ATOM     24  C   UNL     1      -0.405  10.041  19.600  0.00  0.00    +0.000 A 
ENDBRANCH  15  18
ENDBRANCH  13  15
ENDBRANCH   3  13
TORSDOF 5
ENDMDL
MODEL 2
REMARK VINA RESULT:      -7.5      0.112      1.062
REMARK  Name = 
REMARK  5 active torsions:
REMARK  status: ('A' for Active; 'I' for Inactive)
REMARK    1  A    between atoms: C_2  and  C_15
REMARK    2  A    between atoms: N_3  and  N_4
REMARK    3  A    between atoms: N_4  and  S_5
REMARK    4  A    between atoms: S_5  and  C_8
REMARK    5  A    between atoms: C_18  and  O_19
REMARK                            x       y       z     vdW  Elec       q    Type
REMARK                         _______ _______ _______ _____ _____    ______ ____
ROOT
ATOM      1  O   UNL     1       2.278   7.820  19.152  0.00  0.00    +0.000 OA
ATOM      2  C   UNL     1       1.967   6.962  19.973  0.00  0.00    +0.000 C 
ATOM      3  N   UNL     1       1.724   7.242  21.303  0.00  0.00    +0.000 N 
ATOM      4  H   UNL     1       1.456   6.537  21.985  0.00  0.00    +0.000 HD
ENDROOT
BRANCH   2   5
ATOM      5  C   UNL     1       1.840   5.529  19.581  0.00  0.00    +0.000 A 
ATOM      6  C   UNL     1       2.218   5.147  18.286  0.00  0.00    +0.000 A 
ATOM      7  C   UNL     1       2.139   3.807  17.893  0.00  0.00    +0.000 A 
ATOM      8  C   UNL     1       1.668   2.857  18.793  0.00  0.00    +0.000 A 
ATOM      9  C   UNL     1       1.262   3.224  20.072  0.00  0.00    +0.000 A 
ATOM     10  C   UNL     1       1.339   4.562  20.467  0.00  0.00    +0.000 A 
BRANCH   8  11
ATOM     11  O   UNL     1       1.578   1.538  18.460  0.00  0.00    +0.000 OA
ATOM     12  H   UNL     1       0.852   1.134  18.963  0.00  0.00    +0.000 HD
ENDBRANCH   8  11
ENDBRANCH   2   5
BRANCH   3  13
ATOM     13  N   UNL     1       1.713   8.627  21.752  0.00  0.00    +0.000 NA
ATOM     14  H   UNL     1       2.444   9.245  21.386  0.00  0.00    +0.000 HD
BRANCH  13  15
ATOM     15  S   UNL     1       0.198   9.264  22.153  0.00  0.00    +0.000 S 
ATOM     16  O   UNL     1      -0.766   8.193  21.994  0.00  0.00    +0.000 OA
ATOM     17  O   UNL     1       0.334   9.945  23.423  0.00  0.00    +0.000 OA
BRANCH  15  18
ATOM     18  C   UNL     1      -0.104  10.466  20.888  0.00  0.00    +0.000 A 
ATOM     19  C   UNL     1       0.189  11.814  21.132  0.00  0.00    +0.000 A 
ATOM     20  C   UNL     1       0.052  12.746  20.101  0.00  0.00    +0.000 A 
ATOM     21  C   UNL     1      -0.363  12.322  18.842  0.00  0.00    +0.000 A 
ATOM     22  F   UNL     1      -0.480  13.217  17.852  0.00  0.00    +0.000 F 
ATOM     23  C   UNL     1      -0.644  10.982  18.590  0.00  0.00    +0.000 A 
ATOM     24  C   UNL     1      -0.510  10.045  19.615  0.00  0.00    +0.000 A 
ENDBRANCH  15  18
ENDBRANCH  13  15
ENDBRANCH   3  13
TORSDOF 5
ENDMDL
MODEL 3
REMARK VINA RESULT:      -7.4      4.584      6.313
REMARK  Name = 
REMARK  5 active torsions:
REMARK  status: ('A' for Active; 'I' for Inactive)
REMARK    1  A    between atoms: C_2  and  C_15
REMARK    2  A    between atoms: N_3  and  N_4
REMARK    3  A    between atoms: N_4  and  S_5
REMARK    4  A    between atoms: S_5  and  C_8
REMARK    5  A    between atoms: C_18  and  O_19
REMARK                            x       y       z     vdW  Elec       q    Type
REMARK                         _______ _______ _______ _____ _____    ______ ____
ROOT
ATOM      1  O   UNL     1       5.459   4.590  19.496  0.00  0.00    +0.000 OA
ATOM      2  C   UNL     1       5.227   3.905  18.505  0.00  0.00    +0.000 C 
ATOM      3  N   UNL     1       4.428   2.779  18.534  0.00  0.00    +0.000 N 
ATOM      4  H   UNL     1       4.223   2.214  17.714  0.00  0.00    +0.000 HD
ENDROOT
BRANCH   2   5
ATOM      5  C   UNL     1       5.817   4.243  17.177  0.00  0.00    +0.000 A 
ATOM      6  C   UNL     1       5.006   4.158  16.037  0.00  0.00    +0.000 A 
ATOM      7  C   UNL     1       5.518   4.494  14.779  0.00  0.00    +0.000 A 
ATOM      8  C   UNL     1       6.843   4.902  14.667  0.00  0.00    +0.000 A 
ATOM      9  C   UNL     1       7.668   4.965  15.785  0.00  0.00    +0.000 A 
ATOM     10  C   UNL     1       7.161   4.628  17.042  0.00  0.00    +0.000 A 
BRANCH   8  11
ATOM     11  O   UNL     1       7.385   5.247  13.465  0.00  0.00    +0.000 OA
ATOM     12  H   UNL     1       7.226   6.192  13.306  0.00  0.00    +0.000 HD
ENDBRANCH   8  11
ENDBRANCH   2   5
BRANCH   3  13
ATOM     13  N   UNL     1       3.719   2.437  19.759  0.00  0.00    +0.000 NA
ATOM     14  H   UNL     1       4.259   2.441  20.630  0.00  0.00    +0.000 HD
BRANCH  13  15
ATOM     15  S   UNL     1       2.070   2.815  19.792  0.00  0.00    +0.000 S 
ATOM     16  O   UNL     1       1.460   2.140  18.663  0.00  0.00    +0.000 OA
ATOM     17  O   UNL     1       1.594   2.573  21.136  0.00  0.00    +0.000 OA
BRANCH  15  18
ATOM     18  C   UNL     1       2.029   4.558  19.476  0.00  0.00    +0.000 A 
ATOM     19  C   UNL     1       2.067   5.456  20.551  0.00  0.00    +0.000 A 
ATOM     20  C   UNL     1       2.143   6.827  20.300  0.00  0.00    +0.000 A 
ATOM     21  C   UNL     1       2.190   7.285  18.986  0.00  0.00    +0.000 A 
ATOM     22  F   UNL     1       2.276   8.600  18.749  0.00  0.00    +0.000 F 
ATOM     23  C   UNL     1       2.165   6.396  17.914  0.00  0.00    +0.000 A 
ATOM     24  C   UNL     1       2.089   5.024  18.156  0.00  0.00    +0.000 A 
ENDBRANCH  15  18
ENDBRANCH  13  15
ENDBRANCH   3  13
TORSDOF 5
ENDMDL
MODEL 4
REMARK VINA RESULT:      -7.4      4.911      6.471
REMARK  Name = 
REMARK  5 active torsions:
REMARK  status: ('A' for Active; 'I' for Inactive)
REMARK    1  A    between atoms: C_2  and  C_15
REMARK    2  A    between atoms: N_3  and  N_4
REMARK    3  A    between atoms: N_4  and  S_5
REMARK    4  A    between atoms: S_5  and  C_8
REMARK    5  A    between atoms: C_18  and  O_19
REMARK                            x       y       z     vdW  Elec       q    Type
REMARK                         _______ _______ _______ _____ _____    ______ ____
ROOT
ATOM      1  O   UNL     1       5.009   2.838  20.043  0.00  0.00    +0.000 OA
ATOM      2  C   UNL     1       4.815   3.274  18.913  0.00  0.00    +0.000 C 
ATOM      3  N   UNL     1       3.809   2.813  18.087  0.00  0.00    +0.000 N 
ATOM      4  H   UNL     1       3.636   3.178  17.154  0.00  0.00    +0.000 HD
ENDROOT
BRANCH   2   5
ATOM      5  C   UNL     1       5.679   4.346  18.340  0.00  0.00    +0.000 A 
ATOM      6  C   UNL     1       5.684   4.540  16.952  0.00  0.00    +0.000 A 
ATOM      7  C   UNL     1       6.461   5.555  16.383  0.00  0.00    +0.000 A 
ATOM      8  C   UNL     1       7.241   6.361  17.205  0.00  0.00    +0.000 A 
ATOM      9  C   UNL     1       7.269   6.163  18.581  0.00  0.00    +0.000 A 
ATOM     10  C   UNL     1       6.495   5.150  19.152  0.00  0.00    +0.000 A 
BRANCH   8  11
ATOM     11  O   UNL     1       8.009   7.367  16.699  0.00  0.00    +0.000 OA
ATOM     12  H   UNL     1       7.820   8.185  17.186  0.00  0.00    +0.000 HD
ENDBRANCH   8  11
ENDBRANCH   2   5
BRANCH   3  13
ATOM     13  N   UNL     1       2.846   1.850  18.602  0.00  0.00    +0.000 NA
ATOM     14  H   UNL     1       3.207   0.938  18.899  0.00  0.00    +0.000 HD
BRANCH  13  15
ATOM     15  S   UNL     1       1.481   2.500  19.362  0.00  0.00    +0.000 S 
ATOM     16  O   UNL     1       0.334   2.131  18.556  0.00  0.00    +0.000 OA
ATOM     17  O   UNL     1       1.544   2.132  20.760  0.00  0.00    +0.000 OA
BRANCH  15  18
ATOM     18  C   UNL     1       1.711   4.251  19.220  0.00  0.00    +0.000 A 
ATOM     19  C   UNL     1       1.904   5.018  20.376  0.00  0.00    +0.000 A 
ATOM     20  C   UNL     1       2.192   6.379  20.259  0.00  0.00    +0.000 A 
ATOM     21  C   UNL     1       2.293   6.955  18.995  0.00  0.00    +0.000 A 
ATOM     22  F   UNL     1       2.581   8.257  18.886  0.00  0.00    +0.000 F 
ATOM     23  C   UNL     1       2.113   6.195  17.842  0.00  0.00    +0.000 A 
ATOM     24  C   UNL     1       1.825   4.833  17.951  0.00  0.00    +0.000 A 
ENDBRANCH  15  18
ENDBRANCH  13  15
ENDBRANCH   3  13
TORSDOF 5
ENDMDL
MODEL 5
REMARK VINA RESULT:      -7.4      4.627      6.253
REMARK  Name = 
REMARK  5 active torsions:
REMARK  status: ('A' for Active; 'I' for Inactive)
REMARK    1  A    between atoms: C_2  and  C_15
REMARK    2  A    between atoms: N_3  and  N_4
REMARK    3  A    between atoms: N_4  and  S_5
REMARK    4  A    between atoms: S_5  and  C_8
REMARK    5  A    between atoms: C_18  and  O_19
REMARK                            x       y       z     vdW  Elec       q    Type
REMARK                         _______ _______ _______ _____ _____    ______ ____
ROOT
ATOM      1  O   UNL     1       5.783   4.644  19.840  0.00  0.00    +0.000 OA
ATOM      2  C   UNL     1       5.414   3.965  18.886  0.00  0.00    +0.000 C 
ATOM      3  N   UNL     1       4.600   2.858  19.016  0.00  0.00    +0.000 N 
ATOM      4  H   UNL     1       4.284   2.297  18.229  0.00  0.00    +0.000 HD
ENDROOT
BRANCH   2   5
ATOM      5  C   UNL     1       5.841   4.293  17.495  0.00  0.00    +0.000 A 
ATOM      6  C   UNL     1       7.086   4.905  17.297  0.00  0.00    +0.000 A 
ATOM      7  C   UNL     1       7.531   5.201  16.005  0.00  0.00    +0.000 A 
ATOM      8  C   UNL     1       6.721   4.895  14.916  0.00  0.00    +0.000 A 
ATOM      9  C   UNL     1       5.471   4.313  15.097  0.00  0.00    +0.000 A 
ATOM     10  C   UNL     1       5.023   4.018  16.387  0.00  0.00    +0.000 A 
BRANCH   8  11
ATOM     11  O   UNL     1       7.113   5.157  13.637  0.00  0.00    +0.000 OA
ATOM     12  H   UNL     1       6.626   4.574  13.032  0.00  0.00    +0.000 HD
ENDBRANCH   8  11
ENDBRANCH   2   5
BRANCH   3  13
ATOM     13  N   UNL     1       4.042   2.530  20.321  0.00  0.00    +0.000 NA
ATOM     14  H   UNL     1       4.683   2.539  21.121  0.00  0.00    +0.000 HD
BRANCH  13  15
ATOM     15  S   UNL     1       2.410   2.914  20.547  0.00  0.00    +0.000 S 
ATOM     16  O   UNL     1       1.639   1.923  19.823  0.00  0.00    +0.000 OA
ATOM     17  O   UNL     1       2.202   3.113  21.965  0.00  0.00    +0.000 OA
BRANCH  15  18
ATOM     18  C   UNL     1       2.223   4.468  19.717  0.00  0.00    +0.000 A 
ATOM     19  C   UNL     1       2.482   5.657  20.411  0.00  0.00    +0.000 A 
ATOM     20  C   UNL     1       2.438   6.875  19.730  0.00  0.00    +0.000 A 
ATOM     21  C   UNL     1       2.148   6.892  18.369  0.00  0.00    +0.000 A 
ATOM     22  F   UNL     1       2.121   8.061  17.716  0.00  0.00    +0.000 F 
ATOM     23  C   UNL     1       1.902   5.713  17.671  0.00  0.00    +0.000 A 
ATOM     24  C   UNL     1       1.943   4.491  18.345  0.00  0.00    +0.000 A 
ENDBRANCH  15  18
ENDBRANCH  13  15
ENDBRANCH   3  13
TORSDOF 5
ENDMDL
MODEL 6
REMARK VINA RESULT:      -7.4      4.928      6.423
REMARK  Name = 
REMARK  5 active torsions:
REMARK  status: ('A' for Active; 'I' for Inactive)
REMARK    1  A    between atoms: C_2  and  C_15
REMARK    2  A    between atoms: N_3  and  N_4
REMARK    3  A    between atoms: N_4  and  S_5
REMARK    4  A    between atoms: S_5  and  C_8
REMARK    5  A    between atoms: C_18  and  O_19
REMARK                            x       y       z     vdW  Elec       q    Type
REMARK                         _______ _______ _______ _____ _____    ______ ____
ROOT
ATOM      1  O   UNL     1       4.953   2.834  19.902  0.00  0.00    +0.000 OA
ATOM      2  C   UNL     1       4.733   3.277  18.779  0.00  0.00    +0.000 C 
ATOM      3  N   UNL     1       3.718   2.810  17.967  0.00  0.00    +0.000 N 
ATOM      4  H   UNL     1       3.525   3.180  17.040  0.00  0.00    +0.000 HD
ENDROOT
BRANCH   2   5
ATOM      5  C   UNL     1       5.575   4.364  18.200  0.00  0.00    +0.000 A 
ATOM      6  C   UNL     1       6.469   5.045  19.037  0.00  0.00    +0.000 A 
ATOM      7  C   UNL     1       7.293   6.051  18.522  0.00  0.00    +0.000 A 
ATOM      8  C   UNL     1       7.209   6.380  17.173  0.00  0.00    +0.000 A 
ATOM      9  C   UNL     1       6.307   5.733  16.335  0.00  0.00    +0.000 A 
ATOM     10  C   UNL     1       5.481   4.729  16.847  0.00  0.00    +0.000 A 
BRANCH   8  11
ATOM     11  O   UNL     1       7.996   7.347  16.623  0.00  0.00    +0.000 OA
ATOM     12  H   UNL     1       8.698   6.925  16.102  0.00  0.00    +0.000 HD
ENDBRANCH   8  11
ENDBRANCH   2   5
BRANCH   3  13
ATOM     13  N   UNL     1       2.777   1.831  18.491  0.00  0.00    +0.000 NA
ATOM     14  H   UNL     1       3.156   0.925  18.785  0.00  0.00    +0.000 HD
BRANCH  13  15
ATOM     15  S   UNL     1       1.409   2.458  19.264  0.00  0.00    +0.000 S 
ATOM     16  O   UNL     1       0.265   2.115  18.443  0.00  0.00    +0.000 OA
ATOM     17  O   UNL     1       1.465   2.048  20.651  0.00  0.00    +0.000 OA
BRANCH  15  18
ATOM     18  C   UNL     1       1.640   4.213  19.176  0.00  0.00    +0.000 A 
ATOM     19  C   UNL     1       1.873   4.938  20.352  0.00  0.00    +0.000 A 
ATOM     20  C   UNL     1       2.162   6.302  20.273  0.00  0.00    +0.000 A 
ATOM     21  C   UNL     1       2.224   6.921  19.028  0.00  0.00    +0.000 A 
ATOM     22  F   UNL     1       2.513   8.226  18.956  0.00  0.00    +0.000 F 
ATOM     23  C   UNL     1       2.005   6.203  17.856  0.00  0.00    +0.000 A 
ATOM     24  C   UNL     1       1.715   4.839  17.926  0.00  0.00    +0.000 A 
ENDBRANCH  15  18
ENDBRANCH  13  15
ENDBRANCH   3  13
TORSDOF 5
ENDMDL
MODEL 7
REMARK VINA RESULT:      -7.3      4.774      6.212
REMARK  Name = 
REMARK  5 active torsions:
REMARK  status: ('A' for Active; 'I' for Inactive)
REMARK    1  A    between atoms: C_2  and  C_15
REMARK    2  A    between atoms: N_3  and  N_4
REMARK    3  A    between atoms: N_4  and  S_5
REMARK    4  A    between atoms: S_5  and  C_8
REMARK    5  A    between atoms: C_18  and  O_19
REMARK                            x       y       z     vdW  Elec       q    Type
REMARK                         _______ _______ _______ _____ _____    ______ ____
ROOT
ATOM      1  O   UNL     1       5.033   3.263  19.956  0.00  0.00    +0.000 OA
ATOM      2  C   UNL     1       4.647   3.203  18.793  0.00  0.00    +0.000 C 
ATOM      3  N   UNL     1       3.504   2.528  18.410  0.00  0.00    +0.000 N 
ATOM      4  H   UNL     1       3.174   2.483  17.449  0.00  0.00    +0.000 HD
ENDROOT
BRANCH   2   5
ATOM      5  C   UNL     1       5.409   3.858  17.692  0.00  0.00    +0.000 A 
ATOM      6  C   UNL     1       6.609   4.514  17.999  0.00  0.00    +0.000 A 
ATOM      7  C   UNL     1       7.365   5.116  16.987  0.00  0.00    +0.000 A 
ATOM      8  C   UNL     1       6.909   5.069  15.673  0.00  0.00    +0.000 A 
ATOM      9  C   UNL     1       5.707   4.445  15.357  0.00  0.00    +0.000 A 
ATOM     10  C   UNL     1       4.949   3.845  16.365  0.00  0.00    +0.000 A 
BRANCH   8  11
ATOM     11  O   UNL     1       7.613   5.633  14.652  0.00  0.00    +0.000 OA
ATOM     12  H   UNL     1       7.145   5.468  13.817  0.00  0.00    +0.000 HD
ENDBRANCH   8  11
ENDBRANCH   2   5
BRANCH   3  13
ATOM     13  N   UNL     1       2.636   1.956  19.429  0.00  0.00    +0.000 NA
ATOM     14  H   UNL     1       3.081   1.402  20.168  0.00  0.00    +0.000 HD
BRANCH  13  15
ATOM     15  S   UNL     1       1.218   2.816  19.763  0.00  0.00    +0.000 S 
ATOM     16  O   UNL     1       0.212   2.352  18.829  0.00  0.00    +0.000 OA
ATOM     17  O   UNL     1       0.986   2.737  21.190  0.00  0.00    +0.000 OA
BRANCH  15  18
ATOM     18  C   UNL     1       1.628   4.488  19.342  0.00  0.00    +0.000 A 
ATOM     19  C   UNL     1       2.122   5.348  20.332  0.00  0.00    +0.000 A 
ATOM     20  C   UNL     1       2.545   6.631  19.979  0.00  0.00    +0.000 A 
ATOM     21  C   UNL     1       2.480   7.035  18.649  0.00  0.00    +0.000 A 
ATOM     22  F   UNL     1       2.900   8.261  18.313  0.00  0.00    +0.000 F 
ATOM     23  C   UNL     1       2.002   6.180  17.659  0.00  0.00    +0.000 A 
ATOM     24  C   UNL     1       1.576   4.896  18.004  0.00  0.00    +0.000 A 
ENDBRANCH  15  18
ENDBRANCH  13  15
ENDBRANCH   3  13
TORSDOF 5
ENDMDL
MODEL 8
REMARK VINA RESULT:      -7.3      4.618      6.230
REMARK  Name = 
REMARK  5 active torsions:
REMARK  status: ('A' for Active; 'I' for Inactive)
REMARK    1  A    between atoms: C_2  and  C_15
REMARK    2  A    between atoms: N_3  and  N_4
REMARK    3  A    between atoms: N_4  and  S_5
REMARK    4  A    between atoms: S_5  and  C_8
REMARK    5  A    between atoms: C_18  and  O_19
REMARK                            x       y       z     vdW  Elec       q    Type
REMARK                         _______ _______ _______ _____ _____    ______ ____
ROOT
ATOM      1  O   UNL     1       5.082   3.488  19.817  0.00  0.00    +0.000 OA
ATOM      2  C   UNL     1       4.703   3.315  18.663  0.00  0.00    +0.000 C 
ATOM      3  N   UNL     1       3.592   2.562  18.338  0.00  0.00    +0.000 N 
ATOM      4  H   UNL     1       3.267   2.424  17.384  0.00  0.00    +0.000 HD
ENDROOT
BRANCH   2   5
ATOM      5  C   UNL     1       5.440   3.909  17.511  0.00  0.00    +0.000 A 
ATOM      6  C   UNL     1       6.685   4.509  17.744  0.00  0.00    +0.000 A 
ATOM      7  C   UNL     1       7.418   5.052  16.682  0.00  0.00    +0.000 A 
ATOM      8  C   UNL     1       6.894   5.003  15.395  0.00  0.00    +0.000 A 
ATOM      9  C   UNL     1       5.647   4.436  15.152  0.00  0.00    +0.000 A 
ATOM     10  C   UNL     1       4.913   3.895  16.210  0.00  0.00    +0.000 A 
BRANCH   8  11
ATOM     11  O   UNL     1       7.572   5.511  14.327  0.00  0.00    +0.000 OA
ATOM     12  H   UNL     1       8.521   5.343  14.446  0.00  0.00    +0.000 HD
ENDBRANCH   8  11
ENDBRANCH   2   5
BRANCH   3  13
ATOM     13  N   UNL     1       2.746   2.039  19.401  0.00  0.00    +0.000 NA
ATOM     14  H   UNL     1       3.208   1.531  20.161  0.00  0.00    +0.000 HD
BRANCH  13  15
ATOM     15  S   UNL     1       1.325   2.904  19.711  0.00  0.00    +0.000 S 
ATOM     16  O   UNL     1       0.358   2.500  18.710  0.00  0.00    +0.000 OA
ATOM     17  O   UNL     1       1.026   2.760  21.120  0.00  0.00    +0.000 OA
BRANCH  15  18
ATOM     18  C   UNL     1       1.776   4.587  19.390  0.00  0.00    +0.000 A 
ATOM     19  C   UNL     1       1.856   5.040  18.067  0.00  0.00    +0.000 A 
ATOM     20  C   UNL     1       2.106   6.391  17.816  0.00  0.00    +0.000 A 
ATOM     21  C   UNL     1       2.263   7.271  18.883  0.00  0.00    +0.000 A 
ATOM     22  F   UNL     1       2.490   8.568  18.639  0.00  0.00    +0.000 F 
ATOM     23  C   UNL     1       2.173   6.829  20.200  0.00  0.00    +0.000 A 
ATOM     24  C   UNL     1       1.923   5.480  20.459  0.00  0.00    +0.000 A 
ENDBRANCH  15  18
ENDBRANCH  13  15
ENDBRANCH   3  13
TORSDOF 5
ENDMDL
MODEL 9
REMARK VINA RESULT:      -7.3      6.282      8.498
REMARK  Name = 
REMARK  5 active torsions:
REMARK  status: ('A' for Active; 'I' for Inactive)
REMARK    1  A    between atoms: C_2  and  C_15
REMARK    2  A    between atoms: N_3  and  N_4
REMARK    3  A    between atoms: N_4  and  S_5
REMARK    4  A    between atoms: S_5  and  C_8
REMARK    5  A    between atoms: C_18  and  O_19
REMARK                            x       y       z     vdW  Elec       q    Type
REMARK                         _______ _______ _______ _____ _____    ______ ____
ROOT
ATOM      1  O   UNL     1       3.661   3.638  16.794  0.00  0.00    +0.000 OA
ATOM      2  C   UNL     1       3.787   4.261  17.844  0.00  0.00    +0.000 C 
ATOM      3  N   UNL     1       4.566   5.394  17.962  0.00  0.00    +0.000 N 
ATOM      4  H   UNL     1       4.665   5.921  18.826  0.00  0.00    +0.000 HD
ENDROOT
BRANCH   2   5
ATOM      5  C   UNL     1       3.100   3.817  19.091  0.00  0.00    +0.000 A 
ATOM      6  C   UNL     1       1.851   4.370  19.407  0.00  0.00    +0.000 A 
ATOM      7  C   UNL     1       1.165   3.957  20.555  0.00  0.00    +0.000 A 
ATOM      8  C   UNL     1       1.739   3.002  21.388  0.00  0.00    +0.000 A 
ATOM      9  C   UNL     1       2.990   2.465  21.102  0.00  0.00    +0.000 A 
ATOM     10  C   UNL     1       3.678   2.876  19.959  0.00  0.00    +0.000 A 
BRANCH   8  11
ATOM     11  O   UNL     1       1.108   2.563  22.513  0.00  0.00    +0.000 OA
ATOM     12  H   UNL     1       0.356   3.148  22.702  0.00  0.00    +0.000 HD
ENDBRANCH   8  11
ENDBRANCH   2   5
BRANCH   3  13
ATOM     13  N   UNL     1       5.182   5.966  16.772  0.00  0.00    +0.000 NA
ATOM     14  H   UNL     1       4.831   6.874  16.452  0.00  0.00    +0.000 HD
BRANCH  13  15
ATOM     15  S   UNL     1       6.798   5.547  16.500  0.00  0.00    +0.000 S 
ATOM     16  O   UNL     1       7.570   6.772  16.575  0.00  0.00    +0.000 OA
ATOM     17  O   UNL     1       7.111   4.430  17.365  0.00  0.00    +0.000 OA
BRANCH  15  18
ATOM     18  C   UNL     1       6.814   4.992  14.818  0.00  0.00    +0.000 A 
ATOM     19  C   UNL     1       7.708   5.571  13.907  0.00  0.00    +0.000 A 
ATOM     20  C   UNL     1       7.796   5.061  12.611  0.00  0.00    +0.000 A 
ATOM     21  C   UNL     1       7.002   3.979  12.241  0.00  0.00    +0.000 A 
ATOM     22  F   UNL     1       7.099   3.485  11.001  0.00  0.00    +0.000 F 
ATOM     23  C   UNL     1       6.121   3.392  13.145  0.00  0.00    +0.000 A 
ATOM     24  C   UNL     1       6.027   3.895  14.444  0.00  0.00    +0.000 A 
ENDBRANCH  15  18
ENDBRANCH  13  15
ENDBRANCH   3  13
TORSDOF 5
ENDMDL
