MODEL 1
REMARK VINA RESULT:      -8.0      0.000      0.000
REMARK  Name = 
REMARK  5 active torsions:
REMARK  status: ('A' for Active; 'I' for Inactive)
REMARK    1  A    between atoms: C_1  and  C_2
REMARK    2  A    between atoms: C_4  and  C_5
REMARK    3  A    between atoms: C_5  and  N_6
REMARK    4  A    between atoms: N_6  and  C_7
REMARK    5  A    between atoms: C_10  and  N_11
REMARK                            x       y       z     vdW  Elec       q    Type
REMARK                         _______ _______ _______ _____ _____    ______ ____
ROOT
ATOM      1  N   UNL     1       6.375   6.167  17.341  0.00  0.00    +0.000 N 
ATOM      2  C   UNL     1       7.093   7.433  17.384  0.00  0.00    +0.000 C 
ATOM      3  C   UNL     1       5.006   6.211  17.556  0.00  0.00    +0.000 A 
ATOM      4  C   UNL     1       4.229   5.066  17.680  0.00  0.00    +0.000 A 
ATOM      5  C   UNL     1       2.875   5.185  17.961  0.00  0.00    +0.000 A 
ATOM      6  N   UNL     1       2.318   6.400  18.069  0.00  0.00    +0.000 NA
ATOM      7  C   UNL     1       3.125   7.454  17.925  0.00  0.00    +0.000 A 
ATOM      8  N   UNL     1       4.436   7.420  17.685  0.00  0.00    +0.000 NA
ENDROOT
BRANCH   5   9
ATOM      9  N   UNL     1       2.085   4.082  18.221  0.00  0.00    +0.000 N 
ATOM     10  C   UNL     1       1.238   3.950  19.413  0.00  0.00    +0.000 C 
ATOM     11  C   UNL     1       1.760   2.829  20.330  0.00  0.00    +0.000 C 
ATOM     12  O   UNL     1       1.946   1.591  19.625  0.00  0.00    +0.000 OA
ATOM     13  C   UNL     1       2.888   1.771  18.552  0.00  0.00    +0.000 C 
ATOM     14  C   UNL     1       2.383   2.810  17.543  0.00  0.00    +0.000 C 
ENDBRANCH   5   9
BRANCH   1  15
ATOM     15  C   UNL     1       7.054   4.991  16.782  0.00  0.00    +0.000 C 
BRANCH  15  19
ATOM     16  C   UNL     1       5.917   3.195  12.131  0.00  0.00    +0.000 C 
ATOM     17  C   UNL     1       6.355   3.907  13.345  0.00  0.00    +0.000 A 
ATOM     18  C   UNL     1       6.024   3.820  14.672  0.00  0.00    +0.000 A 
ATOM     19  C   UNL     1       6.899   4.730  15.312  0.00  0.00    +0.000 A 
ATOM     20  N   UNL     1       7.663   5.375  14.418  0.00  0.00    +0.000 NA
ATOM     21  O   UNL     1       7.316   4.855  13.183  0.00  0.00    +0.000 OA
ENDBRANCH  15  19
ENDBRANCH   1  15
TORSDOF 3
ENDMDL
MODEL 2
REMARK VINA RESULT:      -7.2      0.731      1.180
REMARK  Name = 
REMARK  5 active torsions:
REMARK  status: ('A' for Active; 'I' for Inactive)
REMARK    1  A    between atoms: C_1  and  C_2
REMARK    2  A    between atoms: C_4  and  C_5
REMARK    3  A    between atoms: C_5  and  N_6
REMARK    4  A    between atoms: N_6  and  C_7
REMARK    5  A    between atoms: C_10  and  N_11
REMARK                            x       y       z     vdW  Elec       q    Type
REMARK                         _______ _______ _______ _____ _____    ______ ____
ROOT
ATOM      1  N   UNL     1       6.307   6.385  17.336  0.00  0.00    +0.000 N 
ATOM      2  C   UNL     1       6.796   7.716  17.008  0.00  0.00    +0.000 C 
ATOM      3  C   UNL     1       5.022   6.294  17.848  0.00  0.00    +0.000 A 
ATOM      4  C   UNL     1       4.490   5.105  18.331  0.00  0.00    +0.000 A 
ATOM      5  C   UNL     1       3.220   5.101  18.892  0.00  0.00    +0.000 A 
ATOM      6  N   UNL     1       2.500   6.232  18.926  0.00  0.00    +0.000 NA
ATOM      7  C   UNL     1       3.073   7.332  18.432  0.00  0.00    +0.000 A 
ATOM      8  N   UNL     1       4.295   7.421  17.907  0.00  0.00    +0.000 NA
ENDROOT
BRANCH   5   9
ATOM      9  N   UNL     1       2.694   3.978  19.501  0.00  0.00    +0.000 N 
ATOM     10  C   UNL     1       3.444   2.729  19.690  0.00  0.00    +0.000 C 
ATOM     11  C   UNL     1       2.845   1.600  18.832  0.00  0.00    +0.000 C 
ATOM     12  O   UNL     1       1.430   1.451  19.039  0.00  0.00    +0.000 OA
ATOM     13  C   UNL     1       0.752   2.676  18.707  0.00  0.00    +0.000 C 
ATOM     14  C   UNL     1       1.233   3.830  19.596  0.00  0.00    +0.000 C 
ENDBRANCH   5   9
BRANCH   1  15
ATOM     15  C   UNL     1       7.047   5.220  16.835  0.00  0.00    +0.000 C 
BRANCH  15  19
ATOM     16  C   UNL     1       5.887   3.209  12.279  0.00  0.00    +0.000 C 
ATOM     17  C   UNL     1       6.347   3.967  13.456  0.00  0.00    +0.000 A 
ATOM     18  C   UNL     1       5.985   3.986  14.778  0.00  0.00    +0.000 A 
ATOM     19  C   UNL     1       6.904   4.876  15.381  0.00  0.00    +0.000 A 
ATOM     20  N   UNL     1       7.726   5.413  14.466  0.00  0.00    +0.000 NA
ATOM     21  O   UNL     1       7.370   4.839  13.258  0.00  0.00    +0.000 OA
ENDBRANCH  15  19
ENDBRANCH   1  15
TORSDOF 3
ENDMDL
MODEL 3
REMARK VINA RESULT:      -7.0      2.843      4.386
REMARK  Name = 
REMARK  5 active torsions:
REMARK  status: ('A' for Active; 'I' for Inactive)
REMARK    1  A    between atoms: C_1  and  C_2
REMARK    2  A    between atoms: C_4  and  C_5
REMARK    3  A    between atoms: C_5  and  N_6
REMARK    4  A    between atoms: N_6  and  C_7
REMARK    5  A    between atoms: C_10  and  N_11
REMARK                            x       y       z     vdW  Elec       q    Type
REMARK                         _______ _______ _______ _____ _____    ______ ____
ROOT
ATOM      1  N   UNL     1       4.389   3.819  18.939  0.00  0.00    +0.000 N 
ATOM      2  C   UNL     1       4.227   2.372  18.956  0.00  0.00    +0.000 C 
ATOM      3  C   UNL     1       3.366   4.574  19.492  0.00  0.00    +0.000 A 
ATOM      4  C   UNL     1       3.331   5.961  19.414  0.00  0.00    +0.000 A 
ATOM      5  C   UNL     1       2.242   6.648  19.932  0.00  0.00    +0.000 A 
ATOM      6  N   UNL     1       1.255   5.976  20.540  0.00  0.00    +0.000 NA
ATOM      7  C   UNL     1       1.363   4.646  20.589  0.00  0.00    +0.000 A 
ATOM      8  N   UNL     1       2.359   3.915  20.089  0.00  0.00    +0.000 NA
ENDROOT
BRANCH   5   9
ATOM      9  N   UNL     1       2.096   8.012  19.768  0.00  0.00    +0.000 N 
ATOM     10  C   UNL     1       1.355   8.869  20.703  0.00  0.00    +0.000 C 
ATOM     11  C   UNL     1       0.086   9.430  20.035  0.00  0.00    +0.000 C 
ATOM     12  O   UNL     1       0.368  10.070  18.779  0.00  0.00    +0.000 OA
ATOM     13  C   UNL     1       0.975   9.130  17.874  0.00  0.00    +0.000 C 
ATOM     14  C   UNL     1       2.301   8.601  18.435  0.00  0.00    +0.000 C 
ENDBRANCH   5   9
BRANCH   1  15
ATOM     15  C   UNL     1       5.713   4.375  18.636  0.00  0.00    +0.000 C 
BRANCH  15  19
ATOM     16  C   UNL     1       6.198   3.912  13.567  0.00  0.00    +0.000 C 
ATOM     17  C   UNL     1       6.275   4.181  15.014  0.00  0.00    +0.000 A 
ATOM     18  C   UNL     1       5.383   4.088  16.050  0.00  0.00    +0.000 A 
ATOM     19  C   UNL     1       6.145   4.404  17.199  0.00  0.00    +0.000 A 
ATOM     20  N   UNL     1       7.403   4.734  16.868  0.00  0.00    +0.000 NA
ATOM     21  O   UNL     1       7.478   4.595  15.493  0.00  0.00    +0.000 OA
ENDBRANCH  15  19
ENDBRANCH   1  15
TORSDOF 3
ENDMDL
MODEL 4
REMARK VINA RESULT:      -6.7      3.014      4.368
REMARK  Name = 
REMARK  5 active torsions:
REMARK  status: ('A' for Active; 'I' for Inactive)
REMARK    1  A    between atoms: C_1  and  C_2
REMARK    2  A    between atoms: C_4  and  C_5
REMARK    3  A    between atoms: C_5  and  N_6
REMARK    4  A    between atoms: N_6  and  C_7
REMARK    5  A    between atoms: C_10  and  N_11
REMARK                            x       y       z     vdW  Elec       q    Type
REMARK                         _______ _______ _______ _____ _____    ______ ____
ROOT
ATOM      1  N   UNL     1       4.395   5.103  17.966  0.00  0.00    +0.000 N 
ATOM      2  C   UNL     1       4.508   3.653  17.900  0.00  0.00    +0.000 C 
ATOM      3  C   UNL     1       3.455   5.622  18.842  0.00  0.00    +0.000 A 
ATOM      4  C   UNL     1       3.150   6.976  18.899  0.00  0.00    +0.000 A 
ATOM      5  C   UNL     1       2.149   7.418  19.753  0.00  0.00    +0.000 A 
ATOM      6  N   UNL     1       1.514   6.544  20.548  0.00  0.00    +0.000 NA
ATOM      7  C   UNL     1       1.870   5.261  20.447  0.00  0.00    +0.000 A 
ATOM      8  N   UNL     1       2.796   4.758  19.631  0.00  0.00    +0.000 NA
ENDROOT
BRANCH   5   9
ATOM      9  N   UNL     1       1.718   8.730  19.756  0.00  0.00    +0.000 N 
ATOM     10  C   UNL     1       0.973   9.340  20.865  0.00  0.00    +0.000 C 
ATOM     11  C   UNL     1      -0.465   9.677  20.433  0.00  0.00    +0.000 C 
ATOM     12  O   UNL     1      -0.503  10.457  19.226  0.00  0.00    +0.000 OA
ATOM     13  C   UNL     1       0.132   9.737  18.154  0.00  0.00    +0.000 C 
ATOM     14  C   UNL     1       1.604   9.451  18.478  0.00  0.00    +0.000 C 
ENDBRANCH   5   9
BRANCH   1  15
ATOM     15  C   UNL     1       5.455   5.920  17.362  0.00  0.00    +0.000 C 
BRANCH  15  19
ATOM     16  C   UNL     1       6.450   3.694  12.867  0.00  0.00    +0.000 C 
ATOM     17  C   UNL     1       6.368   4.481  14.110  0.00  0.00    +0.000 A 
ATOM     18  C   UNL     1       5.394   4.671  15.056  0.00  0.00    +0.000 A 
ATOM     19  C   UNL     1       6.015   5.471  16.043  0.00  0.00    +0.000 A 
ATOM     20  N   UNL     1       7.265   5.799  15.683  0.00  0.00    +0.000 NA
ATOM     21  O   UNL     1       7.481   5.176  14.466  0.00  0.00    +0.000 OA
ENDBRANCH  15  19
ENDBRANCH   1  15
TORSDOF 3
ENDMDL
MODEL 5
REMARK VINA RESULT:      -6.7      3.161      4.687
REMARK  Name = 
REMARK  5 active torsions:
REMARK  status: ('A' for Active; 'I' for Inactive)
REMARK    1  A    between atoms: C_1  and  C_2
REMARK    2  A    between atoms: C_4  and  C_5
REMARK    3  A    between atoms: C_5  and  N_6
REMARK    4  A    between atoms: N_6  and  C_7
REMARK    5  A    between atoms: C_10  and  N_11
REMARK                            x       y       z     vdW  Elec       q    Type
REMARK                         _______ _______ _______ _____ _____    ______ ____
ROOT
ATOM      1  N   UNL     1       4.746   5.478  18.347  0.00  0.00    +0.000 N 
ATOM      2  C   UNL     1       5.170   4.125  18.678  0.00  0.00    +0.000 C 
ATOM      3  C   UNL     1       3.676   5.996  19.061  0.00  0.00    +0.000 A 
ATOM      4  C   UNL     1       3.086   7.214  18.749  0.00  0.00    +0.000 A 
ATOM      5  C   UNL     1       1.974   7.639  19.464  0.00  0.00    +0.000 A 
ATOM      6  N   UNL     1       1.504   6.895  20.474  0.00  0.00    +0.000 NA
ATOM      7  C   UNL     1       2.130   5.742  20.724  0.00  0.00    +0.000 A 
ATOM      8  N   UNL     1       3.181   5.253  20.064  0.00  0.00    +0.000 NA
ENDROOT
BRANCH   5   9
ATOM      9  N   UNL     1       1.274   8.777  19.114  0.00  0.00    +0.000 N 
ATOM     10  C   UNL     1       1.558   9.570  17.911  0.00  0.00    +0.000 C 
ATOM     11  C   UNL     1       2.107  10.958  18.292  0.00  0.00    +0.000 C 
ATOM     12  O   UNL     1       1.261  11.638  19.235  0.00  0.00    +0.000 OA
ATOM     13  C   UNL     1       1.137  10.857  20.438  0.00  0.00    +0.000 C 
ATOM     14  C   UNL     1       0.503   9.492  20.145  0.00  0.00    +0.000 C 
ENDBRANCH   5   9
BRANCH   1  15
ATOM     15  C   UNL     1       5.634   6.314  17.529  0.00  0.00    +0.000 C 
BRANCH  15  19
ATOM     16  C   UNL     1       6.349   3.789  13.141  0.00  0.00    +0.000 C 
ATOM     17  C   UNL     1       6.366   4.631  14.350  0.00  0.00    +0.000 A 
ATOM     18  C   UNL     1       5.421   4.989  15.275  0.00  0.00    +0.000 A 
ATOM     19  C   UNL     1       6.137   5.739  16.237  0.00  0.00    +0.000 A 
ATOM     20  N   UNL     1       7.422   5.881  15.879  0.00  0.00    +0.000 NA
ATOM     21  O   UNL     1       7.560   5.184  14.691  0.00  0.00    +0.000 OA
ENDBRANCH  15  19
ENDBRANCH   1  15
TORSDOF 3
ENDMDL
MODEL 6
REMARK VINA RESULT:      -6.7      3.047      5.147
REMARK  Name = 
REMARK  5 active torsions:
REMARK  status: ('A' for Active; 'I' for Inactive)
REMARK    1  A    between atoms: C_1  and  C_2
REMARK    2  A    between atoms: C_4  and  C_5
REMARK    3  A    between atoms: C_5  and  N_6
REMARK    4  A    between atoms: N_6  and  C_7
REMARK    5  A    between atoms: C_10  and  N_11
REMARK                            x       y       z     vdW  Elec       q    Type
REMARK                         _______ _______ _______ _____ _____    ______ ____
ROOT
ATOM      1  N   UNL     1       3.422   3.585  17.834  0.00  0.00    +0.000 N 
ATOM      2  C   UNL     1       3.153   2.156  17.875  0.00  0.00    +0.000 C 
ATOM      3  C   UNL     1       2.810   4.370  18.798  0.00  0.00    +0.000 A 
ATOM      4  C   UNL     1       2.871   5.759  18.786  0.00  0.00    +0.000 A 
ATOM      5  C   UNL     1       2.177   6.483  19.745  0.00  0.00    +0.000 A 
ATOM      6  N   UNL     1       1.490   5.841  20.701  0.00  0.00    +0.000 NA
ATOM      7  C   UNL     1       1.488   4.507  20.656  0.00  0.00    +0.000 A 
ATOM      8  N   UNL     1       2.101   3.744  19.752  0.00  0.00    +0.000 NA
ENDROOT
BRANCH   5   9
ATOM      9  N   UNL     1       2.100   7.862  19.703  0.00  0.00    +0.000 N 
ATOM     10  C   UNL     1       1.433   8.671  20.732  0.00  0.00    +0.000 C 
ATOM     11  C   UNL     1       0.177   9.352  20.158  0.00  0.00    +0.000 C 
ATOM     12  O   UNL     1       0.456  10.082  18.953  0.00  0.00    +0.000 OA
ATOM     13  C   UNL     1       0.984   9.195  17.950  0.00  0.00    +0.000 C 
ATOM     14  C   UNL     1       2.296   8.553  18.418  0.00  0.00    +0.000 C 
ENDBRANCH   5   9
BRANCH   1  15
ATOM     15  C   UNL     1       4.533   4.069  17.003  0.00  0.00    +0.000 C 
BRANCH  15  19
ATOM     16  C   UNL     1       8.201   7.340  18.412  0.00  0.00    +0.000 C 
ATOM     17  C   UNL     1       7.188   6.286  18.233  0.00  0.00    +0.000 A 
ATOM     18  C   UNL     1       6.131   6.115  17.378  0.00  0.00    +0.000 A 
ATOM     19  C   UNL     1       5.634   4.827  17.686  0.00  0.00    +0.000 A 
ATOM     20  N   UNL     1       6.308   4.282  18.709  0.00  0.00    +0.000 NA
ATOM     21  O   UNL     1       7.282   5.204  19.051  0.00  0.00    +0.000 OA
ENDBRANCH  15  19
ENDBRANCH   1  15
TORSDOF 3
ENDMDL
MODEL 7
REMARK VINA RESULT:      -6.6      1.095      1.119
REMARK  Name = 
REMARK  5 active torsions:
REMARK  status: ('A' for Active; 'I' for Inactive)
REMARK    1  A    between atoms: C_1  and  C_2
REMARK    2  A    between atoms: C_4  and  C_5
REMARK    3  A    between atoms: C_5  and  N_6
REMARK    4  A    between atoms: N_6  and  C_7
REMARK    5  A    between atoms: C_10  and  N_11
REMARK                            x       y       z     vdW  Elec       q    Type
REMARK                         _______ _______ _______ _____ _____    ______ ____
ROOT
ATOM      1  N   UNL     1       6.191   6.293  17.520  0.00  0.00    +0.000 N 
ATOM      2  C   UNL     1       6.969   7.500  17.284  0.00  0.00    +0.000 C 
ATOM      3  C   UNL     1       4.832   6.452  17.741  0.00  0.00    +0.000 A 
ATOM      4  C   UNL     1       4.005   5.400  18.117  0.00  0.00    +0.000 A 
ATOM      5  C   UNL     1       2.666   5.646  18.386  0.00  0.00    +0.000 A 
ATOM      6  N   UNL     1       2.170   6.883  18.242  0.00  0.00    +0.000 NA
ATOM      7  C   UNL     1       3.022   7.840  17.866  0.00  0.00    +0.000 A 
ATOM      8  N   UNL     1       4.323   7.689  17.619  0.00  0.00    +0.000 NA
ENDROOT
BRANCH   5   9
ATOM      9  N   UNL     1       1.831   4.665  18.886  0.00  0.00    +0.000 N 
ATOM     10  C   UNL     1       1.583   4.459  20.318  0.00  0.00    +0.000 C 
ATOM     11  C   UNL     1       2.170   3.114  20.784  0.00  0.00    +0.000 C 
ATOM     12  O   UNL     1       1.731   2.016  19.968  0.00  0.00    +0.000 OA
ATOM     13  C   UNL     1       2.126   2.230  18.601  0.00  0.00    +0.000 C 
ATOM     14  C   UNL     1       1.494   3.509  18.038  0.00  0.00    +0.000 C 
ENDBRANCH   5   9
BRANCH   1  15
ATOM     15  C   UNL     1       6.800   4.992  17.214  0.00  0.00    +0.000 C 
BRANCH  15  19
ATOM     16  C   UNL     1       6.877   4.160  12.169  0.00  0.00    +0.000 C 
ATOM     17  C   UNL     1       6.743   4.170  13.637  0.00  0.00    +0.000 A 
ATOM     18  C   UNL     1       7.302   4.917  14.640  0.00  0.00    +0.000 A 
ATOM     19  C   UNL     1       6.655   4.468  15.815  0.00  0.00    +0.000 A 
ATOM     20  N   UNL     1       5.806   3.465  15.545  0.00  0.00    +0.000 NA
ATOM     21  O   UNL     1       5.867   3.280  14.175  0.00  0.00    +0.000 OA
ENDBRANCH  15  19
ENDBRANCH   1  15
TORSDOF 3
ENDMDL
MODEL 8
REMARK VINA RESULT:      -6.5      4.126      7.424
REMARK  Name = 
REMARK  5 active torsions:
REMARK  status: ('A' for Active; 'I' for Inactive)
REMARK    1  A    between atoms: C_1  and  C_2
REMARK    2  A    between atoms: C_4  and  C_5
REMARK    3  A    between atoms: C_5  and  N_6
REMARK    4  A    between atoms: N_6  and  C_7
REMARK    5  A    between atoms: C_10  and  N_11
REMARK                            x       y       z     vdW  Elec       q    Type
REMARK                         _______ _______ _______ _____ _____    ______ ____
ROOT
ATOM      1  N   UNL     1       1.620   8.609  19.551  0.00  0.00    +0.000 N 
ATOM      2  C   UNL     1       0.849   8.796  20.771  0.00  0.00    +0.000 C 
ATOM      3  C   UNL     1       2.230   7.377  19.372  0.00  0.00    +0.000 A 
ATOM      4  C   UNL     1       3.105   7.118  18.325  0.00  0.00    +0.000 A 
ATOM      5  C   UNL     1       3.731   5.881  18.246  0.00  0.00    +0.000 A 
ATOM      6  N   UNL     1       3.457   4.933  19.153  0.00  0.00    +0.000 NA
ATOM      7  C   UNL     1       2.596   5.251  20.124  0.00  0.00    +0.000 A 
ATOM      8  N   UNL     1       1.980   6.422  20.284  0.00  0.00    +0.000 NA
ENDROOT
BRANCH   5   9
ATOM      9  N   UNL     1       4.703   5.615  17.302  0.00  0.00    +0.000 N 
ATOM     10  C   UNL     1       5.428   4.341  17.217  0.00  0.00    +0.000 C 
ATOM     11  C   UNL     1       6.915   4.537  17.569  0.00  0.00    +0.000 C 
ATOM     12  O   UNL     1       7.522   5.589  16.801  0.00  0.00    +0.000 OA
ATOM     13  C   UNL     1       6.836   6.832  17.038  0.00  0.00    +0.000 C 
ATOM     14  C   UNL     1       5.365   6.737  16.616  0.00  0.00    +0.000 C 
ENDBRANCH   5   9
BRANCH   1  15
ATOM     15  C   UNL     1       1.462   9.583  18.463  0.00  0.00    +0.000 C 
BRANCH  15  19
ATOM     16  C   UNL     1      -3.227  11.419  17.575  0.00  0.00    +0.000 C 
ATOM     17  C   UNL     1      -1.854  11.087  17.994  0.00  0.00    +0.000 A 
ATOM     18  C   UNL     1      -1.066   9.971  17.879  0.00  0.00    +0.000 A 
ATOM     19  C   UNL     1       0.184  10.368  18.411  0.00  0.00    +0.000 A 
ATOM     20  N   UNL     1       0.133  11.624  18.879  0.00  0.00    +0.000 NA
ATOM     21  O   UNL     1      -1.151  12.071  18.616  0.00  0.00    +0.000 OA
ENDBRANCH  15  19
ENDBRANCH   1  15
TORSDOF 3
ENDMDL
MODEL 9
REMARK VINA RESULT:      -6.5      1.272      1.398
REMARK  Name = 
REMARK  5 active torsions:
REMARK  status: ('A' for Active; 'I' for Inactive)
REMARK    1  A    between atoms: C_1  and  C_2
REMARK    2  A    between atoms: C_4  and  C_5
REMARK    3  A    between atoms: C_5  and  N_6
REMARK    4  A    between atoms: N_6  and  C_7
REMARK    5  A    between atoms: C_10  and  N_11
REMARK                            x       y       z     vdW  Elec       q    Type
REMARK                         _______ _______ _______ _____ _____    ______ ____
ROOT
ATOM      1  N   UNL     1       6.193   6.212  17.459  0.00  0.00    +0.000 N 
ATOM      2  C   UNL     1       6.685   7.547  17.151  0.00  0.00    +0.000 C 
ATOM      3  C   UNL     1       4.866   6.103  17.846  0.00  0.00    +0.000 A 
ATOM      4  C   UNL     1       4.313   4.913  18.301  0.00  0.00    +0.000 A 
ATOM      5  C   UNL     1       2.994   4.892  18.735  0.00  0.00    +0.000 A 
ATOM      6  N   UNL     1       2.253   6.007  18.674  0.00  0.00    +0.000 NA
ATOM      7  C   UNL     1       2.849   7.110  18.214  0.00  0.00    +0.000 A 
ATOM      8  N   UNL     1       4.114   7.215  17.808  0.00  0.00    +0.000 NA
ENDROOT
BRANCH   5   9
ATOM      9  N   UNL     1       2.435   3.770  19.315  0.00  0.00    +0.000 N 
ATOM     10  C   UNL     1       1.210   3.798  20.125  0.00  0.00    +0.000 C 
ATOM     11  C   UNL     1       1.522   3.455  21.593  0.00  0.00    +0.000 C 
ATOM     12  O   UNL     1       2.261   2.230  21.722  0.00  0.00    +0.000 OA
ATOM     13  C   UNL     1       3.507   2.328  21.009  0.00  0.00    +0.000 C 
ATOM     14  C   UNL     1       3.268   2.573  19.514  0.00  0.00    +0.000 C 
ENDBRANCH   5   9
BRANCH   1  15
ATOM     15  C   UNL     1       7.001   5.054  17.058  0.00  0.00    +0.000 C 
BRANCH  15  19
ATOM     16  C   UNL     1       6.971   4.237  12.010  0.00  0.00    +0.000 C 
ATOM     17  C   UNL     1       6.869   4.242  13.480  0.00  0.00    +0.000 A 
ATOM     18  C   UNL     1       7.447   4.988  14.474  0.00  0.00    +0.000 A 
ATOM     19  C   UNL     1       6.828   4.533  15.661  0.00  0.00    +0.000 A 
ATOM     20  N   UNL     1       5.976   3.528  15.407  0.00  0.00    +0.000 NA
ATOM     21  O   UNL     1       6.008   3.347  14.035  0.00  0.00    +0.000 OA
ENDBRANCH  15  19
ENDBRANCH   1  15
TORSDOF 3
ENDMDL
