MODEL 1
REMARK VINA RESULT:      -6.7      0.000      0.000
REMARK  Name = 
REMARK  3 active torsions:
REMARK  status: ('A' for Active; 'I' for Inactive)
REMARK    1  A    between atoms: C_1  and  C_2
REMARK    2  A    between atoms: C_7  and  C_9
REMARK    3  A    between atoms: C_12  and  C_13
REMARK                            x       y       z     vdW  Elec       q    Type
REMARK                         _______ _______ _______ _____ _____    ______ ____
ROOT
ATOM      1  C   UNL     1       6.101   3.666  13.005  0.00  0.00    +0.000 C 
ATOM      2  C   UNL     1       6.194   4.198  14.388  0.00  0.00    +0.000 A 
ATOM      3  C   UNL     1       7.311   4.756  14.979  0.00  0.00    +0.000 A 
ATOM      4  S   UNL     1       6.972   5.140  16.612  0.00  0.00    +0.000 S 
ATOM      5  C   UNL     1       5.375   4.569  16.415  0.00  0.00    +0.000 A 
ATOM      6  N   UNL     1       4.450   4.596  17.431  0.00  0.00    +0.000 N 
ATOM      7  C   UNL     1       4.724   4.681  18.778  0.00  0.00    +0.000 C 
ATOM      8  O   UNL     1       5.846   4.768  19.273  0.00  0.00    +0.000 OA
ATOM      9  N   UNL     1       5.072   4.146  15.209  0.00  0.00    +0.000 NA
ATOM     10  H   UNL     1       3.503   4.376  17.150  0.00  0.00    +0.000 HD
ENDROOT
BRANCH   7  11
ATOM     11  C   UNL     1       3.545   4.600  19.627  0.00  0.00    +0.000 A 
ATOM     12  C   UNL     1       2.612   5.575  19.938  0.00  0.00    +0.000 A 
ATOM     13  C   UNL     1       1.682   4.990  20.824  0.00  0.00    +0.000 A 
ATOM     14  C   UNL     1       2.078   3.682  20.991  0.00  0.00    +0.000 A 
ATOM     15  C   UNL     1       1.509   2.555  21.758  0.00  0.00    +0.000 C 
ATOM     16  O   UNL     1       3.216   3.434  20.274  0.00  0.00    +0.000 OA
ENDBRANCH   7  11
TORSDOF 1
ENDMDL
MODEL 2
REMARK VINA RESULT:      -6.5      1.203      1.373
REMARK  Name = 
REMARK  3 active torsions:
REMARK  status: ('A' for Active; 'I' for Inactive)
REMARK    1  A    between atoms: C_1  and  C_2
REMARK    2  A    between atoms: C_7  and  C_9
REMARK    3  A    between atoms: C_12  and  C_13
REMARK                            x       y       z     vdW  Elec       q    Type
REMARK                         _______ _______ _______ _____ _____    ______ ____
ROOT
ATOM      1  C   UNL     1       6.792   4.223  12.750  0.00  0.00    +0.000 C 
ATOM      2  C   UNL     1       6.581   4.440  14.204  0.00  0.00    +0.000 A 
ATOM      3  C   UNL     1       7.479   5.004  15.088  0.00  0.00    +0.000 A 
ATOM      4  S   UNL     1       6.837   4.961  16.674  0.00  0.00    +0.000 S 
ATOM      5  C   UNL     1       5.416   4.226  16.078  0.00  0.00    +0.000 A 
ATOM      6  N   UNL     1       4.359   3.892  16.891  0.00  0.00    +0.000 N 
ATOM      7  C   UNL     1       4.410   3.711  18.256  0.00  0.00    +0.000 C 
ATOM      8  O   UNL     1       5.412   3.845  18.956  0.00  0.00    +0.000 OA
ATOM      9  N   UNL     1       5.377   4.045  14.778  0.00  0.00    +0.000 NA
ATOM     10  H   UNL     1       3.520   3.608  16.404  0.00  0.00    +0.000 HD
ENDROOT
BRANCH   7  11
ATOM     11  C   UNL     1       3.152   3.274  18.841  0.00  0.00    +0.000 A 
ATOM     12  C   UNL     1       1.976   2.885  18.219  0.00  0.00    +0.000 A 
ATOM     13  C   UNL     1       1.049   2.582  19.239  0.00  0.00    +0.000 A 
ATOM     14  C   UNL     1       1.710   2.775  20.431  0.00  0.00    +0.000 A 
ATOM     15  C   UNL     1       1.303   2.596  21.840  0.00  0.00    +0.000 C 
ATOM     16  O   UNL     1       2.988   3.205  20.202  0.00  0.00    +0.000 OA
ENDBRANCH   7  11
TORSDOF 1
ENDMDL
MODEL 3
REMARK VINA RESULT:      -6.4      2.186      6.380
REMARK  Name = 
REMARK  3 active torsions:
REMARK  status: ('A' for Active; 'I' for Inactive)
REMARK    1  A    between atoms: C_1  and  C_2
REMARK    2  A    between atoms: C_7  and  C_9
REMARK    3  A    between atoms: C_12  and  C_13
REMARK                            x       y       z     vdW  Elec       q    Type
REMARK                         _______ _______ _______ _____ _____    ______ ____
ROOT
ATOM      1  C   UNL     1       1.732   2.557  21.600  0.00  0.00    +0.000 C 
ATOM      2  C   UNL     1       2.308   3.656  20.784  0.00  0.00    +0.000 A 
ATOM      3  C   UNL     1       2.018   5.002  20.898  0.00  0.00    +0.000 A 
ATOM      4  S   UNL     1       2.848   5.879  19.686  0.00  0.00    +0.000 S 
ATOM      5  C   UNL     1       3.546   4.429  19.115  0.00  0.00    +0.000 A 
ATOM      6  N   UNL     1       4.423   4.398  18.057  0.00  0.00    +0.000 N 
ATOM      7  C   UNL     1       4.559   5.364  17.085  0.00  0.00    +0.000 C 
ATOM      8  O   UNL     1       3.926   6.417  17.034  0.00  0.00    +0.000 OA
ATOM      9  N   UNL     1       3.229   3.347  19.789  0.00  0.00    +0.000 NA
ATOM     10  H   UNL     1       4.884   3.509  17.913  0.00  0.00    +0.000 HD
ENDROOT
BRANCH   7  11
ATOM     11  C   UNL     1       5.506   5.019  16.036  0.00  0.00    +0.000 A 
ATOM     12  C   UNL     1       6.872   5.240  15.973  0.00  0.00    +0.000 A 
ATOM     13  C   UNL     1       7.315   4.736  14.731  0.00  0.00    +0.000 A 
ATOM     14  C   UNL     1       6.204   4.210  14.110  0.00  0.00    +0.000 A 
ATOM     15  C   UNL     1       6.016   3.515  12.819  0.00  0.00    +0.000 C 
ATOM     16  O   UNL     1       5.095   4.384  14.891  0.00  0.00    +0.000 OA
ENDBRANCH   7  11
TORSDOF 1
ENDMDL
MODEL 4
REMARK VINA RESULT:      -6.3      1.102      1.484
REMARK  Name = 
REMARK  3 active torsions:
REMARK  status: ('A' for Active; 'I' for Inactive)
REMARK    1  A    between atoms: C_1  and  C_2
REMARK    2  A    between atoms: C_7  and  C_9
REMARK    3  A    between atoms: C_12  and  C_13
REMARK                            x       y       z     vdW  Elec       q    Type
REMARK                         _______ _______ _______ _____ _____    ______ ____
ROOT
ATOM      1  C   UNL     1       6.210   3.544  12.346  0.00  0.00    +0.000 C 
ATOM      2  C   UNL     1       6.300   4.046  13.741  0.00  0.00    +0.000 A 
ATOM      3  C   UNL     1       7.287   4.863  14.257  0.00  0.00    +0.000 A 
ATOM      4  S   UNL     1       7.025   5.101  15.931  0.00  0.00    +0.000 S 
ATOM      5  C   UNL     1       5.621   4.134  15.850  0.00  0.00    +0.000 A 
ATOM      6  N   UNL     1       4.828   3.889  16.945  0.00  0.00    +0.000 N 
ATOM      7  C   UNL     1       5.205   4.007  18.264  0.00  0.00    +0.000 C 
ATOM      8  O   UNL     1       6.309   4.375  18.659  0.00  0.00    +0.000 OA
ATOM      9  N   UNL     1       5.319   3.677  14.655  0.00  0.00    +0.000 NA
ATOM     10  H   UNL     1       3.948   3.434  16.740  0.00  0.00    +0.000 HD
ENDROOT
BRANCH   7  11
ATOM     11  C   UNL     1       4.180   3.595  19.211  0.00  0.00    +0.000 A 
ATOM     12  C   UNL     1       4.210   2.587  20.161  0.00  0.00    +0.000 A 
ATOM     13  C   UNL     1       2.951   2.584  20.801  0.00  0.00    +0.000 A 
ATOM     14  C   UNL     1       2.225   3.605  20.228  0.00  0.00    +0.000 A 
ATOM     15  C   UNL     1       0.867   4.129  20.481  0.00  0.00    +0.000 C 
ATOM     16  O   UNL     1       2.960   4.222  19.253  0.00  0.00    +0.000 OA
ENDBRANCH   7  11
TORSDOF 1
ENDMDL
MODEL 5
REMARK VINA RESULT:      -6.1      2.263      6.371
REMARK  Name = 
REMARK  3 active torsions:
REMARK  status: ('A' for Active; 'I' for Inactive)
REMARK    1  A    between atoms: C_1  and  C_2
REMARK    2  A    between atoms: C_7  and  C_9
REMARK    3  A    between atoms: C_12  and  C_13
REMARK                            x       y       z     vdW  Elec       q    Type
REMARK                         _______ _______ _______ _____ _____    ______ ____
ROOT
ATOM      1  C   UNL     1       0.564   2.428  19.282  0.00  0.00    +0.000 C 
ATOM      2  C   UNL     1       2.013   2.722  19.137  0.00  0.00    +0.000 A 
ATOM      3  C   UNL     1       2.924   2.881  20.162  0.00  0.00    +0.000 A 
ATOM      4  S   UNL     1       4.453   3.300  19.518  0.00  0.00    +0.000 S 
ATOM      5  C   UNL     1       3.811   3.217  17.938  0.00  0.00    +0.000 A 
ATOM      6  N   UNL     1       4.571   3.449  16.818  0.00  0.00    +0.000 N 
ATOM      7  C   UNL     1       5.762   4.140  16.772  0.00  0.00    +0.000 C 
ATOM      8  O   UNL     1       6.336   4.635  17.741  0.00  0.00    +0.000 OA
ATOM      9  N   UNL     1       2.548   2.864  17.861  0.00  0.00    +0.000 NA
ATOM     10  H   UNL     1       4.120   3.220  15.942  0.00  0.00    +0.000 HD
ENDROOT
BRANCH   7  11
ATOM     11  C   UNL     1       6.299   4.306  15.430  0.00  0.00    +0.000 A 
ATOM     12  C   UNL     1       7.268   5.183  14.969  0.00  0.00    +0.000 A 
ATOM     13  C   UNL     1       7.403   4.956  13.582  0.00  0.00    +0.000 A 
ATOM     14  C   UNL     1       6.531   3.937  13.271  0.00  0.00    +0.000 A 
ATOM     15  C   UNL     1       6.232   3.228  12.009  0.00  0.00    +0.000 C 
ATOM     16  O   UNL     1       5.847   3.539  14.386  0.00  0.00    +0.000 OA
ENDBRANCH   7  11
TORSDOF 1
ENDMDL
MODEL 6
REMARK VINA RESULT:      -6.1      2.237      6.397
REMARK  Name = 
REMARK  3 active torsions:
REMARK  status: ('A' for Active; 'I' for Inactive)
REMARK    1  A    between atoms: C_1  and  C_2
REMARK    2  A    between atoms: C_7  and  C_9
REMARK    3  A    between atoms: C_12  and  C_13
REMARK                            x       y       z     vdW  Elec       q    Type
REMARK                         _______ _______ _______ _____ _____    ______ ____
ROOT
ATOM      1  C   UNL     1       0.752   3.125  20.172  0.00  0.00    +0.000 C 
ATOM      2  C   UNL     1       1.821   4.017  19.655  0.00  0.00    +0.000 A 
ATOM      3  C   UNL     1       2.147   5.270  20.135  0.00  0.00    +0.000 A 
ATOM      4  S   UNL     1       3.379   5.959  19.168  0.00  0.00    +0.000 S 
ATOM      5  C   UNL     1       3.410   4.550  18.204  0.00  0.00    +0.000 A 
ATOM      6  N   UNL     1       4.269   4.400  17.141  0.00  0.00    +0.000 N 
ATOM      7  C   UNL     1       4.900   5.415  16.457  0.00  0.00    +0.000 C 
ATOM      8  O   UNL     1       4.805   6.614  16.714  0.00  0.00    +0.000 OA
ATOM      9  N   UNL     1       2.592   3.593  18.578  0.00  0.00    +0.000 NA
ATOM     10  H   UNL     1       4.300   3.469  16.748  0.00  0.00    +0.000 HD
ENDROOT
BRANCH   7  11
ATOM     11  C   UNL     1       5.682   4.962  15.317  0.00  0.00    +0.000 A 
ATOM     12  C   UNL     1       7.026   5.153  15.036  0.00  0.00    +0.000 A 
ATOM     13  C   UNL     1       7.280   4.534  13.793  0.00  0.00    +0.000 A 
ATOM     14  C   UNL     1       6.088   3.976  13.389  0.00  0.00    +0.000 A 
ATOM     15  C   UNL     1       5.709   3.175  12.207  0.00  0.00    +0.000 C 
ATOM     16  O   UNL     1       5.105   4.238  14.304  0.00  0.00    +0.000 OA
ENDBRANCH   7  11
TORSDOF 1
ENDMDL
MODEL 7
REMARK VINA RESULT:      -6.1      2.305      6.615
REMARK  Name = 
REMARK  3 active torsions:
REMARK  status: ('A' for Active; 'I' for Inactive)
REMARK    1  A    between atoms: C_1  and  C_2
REMARK    2  A    between atoms: C_7  and  C_9
REMARK    3  A    between atoms: C_12  and  C_13
REMARK                            x       y       z     vdW  Elec       q    Type
REMARK                         _______ _______ _______ _____ _____    ______ ____
ROOT
ATOM      1  C   UNL     1       1.269   2.124  19.322  0.00  0.00    +0.000 C 
ATOM      2  C   UNL     1       2.607   2.718  19.073  0.00  0.00    +0.000 A 
ATOM      3  C   UNL     1       3.441   3.286  20.015  0.00  0.00    +0.000 A 
ATOM      4  S   UNL     1       4.833   3.922  19.250  0.00  0.00    +0.000 S 
ATOM      5  C   UNL     1       4.249   3.382  17.739  0.00  0.00    +0.000 A 
ATOM      6  N   UNL     1       4.946   3.566  16.569  0.00  0.00    +0.000 N 
ATOM      7  C   UNL     1       5.937   4.497  16.350  0.00  0.00    +0.000 C 
ATOM      8  O   UNL     1       6.363   5.293  17.185  0.00  0.00    +0.000 OA
ATOM      9  N   UNL     1       3.108   2.732  17.775  0.00  0.00    +0.000 NA
ATOM     10  H   UNL     1       4.573   3.070  15.770  0.00  0.00    +0.000 HD
ENDROOT
BRANCH   7  11
ATOM     11  C   UNL     1       6.435   4.520  14.983  0.00  0.00    +0.000 A 
ATOM     12  C   UNL     1       6.035   3.776  13.885  0.00  0.00    +0.000 A 
ATOM     13  C   UNL     1       6.856   4.163  12.803  0.00  0.00    +0.000 A 
ATOM     14  C   UNL     1       7.698   5.139  13.287  0.00  0.00    +0.000 A 
ATOM     15  C   UNL     1       8.751   5.956  12.650  0.00  0.00    +0.000 C 
ATOM     16  O   UNL     1       7.457   5.359  14.616  0.00  0.00    +0.000 OA
ENDBRANCH   7  11
TORSDOF 1
ENDMDL
MODEL 8
REMARK VINA RESULT:      -6.0      2.313      6.616
REMARK  Name = 
REMARK  3 active torsions:
REMARK  status: ('A' for Active; 'I' for Inactive)
REMARK    1  A    between atoms: C_1  and  C_2
REMARK    2  A    between atoms: C_7  and  C_9
REMARK    3  A    between atoms: C_12  and  C_13
REMARK                            x       y       z     vdW  Elec       q    Type
REMARK                         _______ _______ _______ _____ _____    ______ ____
ROOT
ATOM      1  C   UNL     1       2.248   2.813  19.888  0.00  0.00    +0.000 C 
ATOM      2  C   UNL     1       3.256   3.637  19.172  0.00  0.00    +0.000 A 
ATOM      3  C   UNL     1       3.795   4.832  19.604  0.00  0.00    +0.000 A 
ATOM      4  S   UNL     1       4.843   5.461  18.406  0.00  0.00    +0.000 S 
ATOM      5  C   UNL     1       4.530   4.104  17.419  0.00  0.00    +0.000 A 
ATOM      6  N   UNL     1       5.116   3.935  16.187  0.00  0.00    +0.000 N 
ATOM      7  C   UNL     1       5.674   4.926  15.409  0.00  0.00    +0.000 C 
ATOM      8  O   UNL     1       5.750   6.114  15.716  0.00  0.00    +0.000 OA
ATOM      9  N   UNL     1       3.728   3.203  17.937  0.00  0.00    +0.000 NA
ATOM     10  H   UNL     1       4.973   3.026  15.769  0.00  0.00    +0.000 HD
ENDROOT
BRANCH   7  11
ATOM     11  C   UNL     1       6.140   4.466  14.110  0.00  0.00    +0.000 A 
ATOM     12  C   UNL     1       7.221   4.895  13.357  0.00  0.00    +0.000 A 
ATOM     13  C   UNL     1       7.218   4.142  12.164  0.00  0.00    +0.000 A 
ATOM     14  C   UNL     1       6.153   3.274  12.257  0.00  0.00    +0.000 A 
ATOM     15  C   UNL     1       5.643   2.217  11.359  0.00  0.00    +0.000 C 
ATOM     16  O   UNL     1       5.484   3.468  13.434  0.00  0.00    +0.000 OA
ENDBRANCH   7  11
TORSDOF 1
ENDMDL
MODEL 9
REMARK VINA RESULT:      -6.0      2.762      6.747
REMARK  Name = 
REMARK  3 active torsions:
REMARK  status: ('A' for Active; 'I' for Inactive)
REMARK    1  A    between atoms: C_1  and  C_2
REMARK    2  A    between atoms: C_7  and  C_9
REMARK    3  A    between atoms: C_12  and  C_13
REMARK                            x       y       z     vdW  Elec       q    Type
REMARK                         _______ _______ _______ _____ _____    ______ ____
ROOT
ATOM      1  C   UNL     1       4.024   5.106  19.898  0.00  0.00    +0.000 C 
ATOM      2  C   UNL     1       5.056   5.001  18.835  0.00  0.00    +0.000 A 
ATOM      3  C   UNL     1       6.356   5.460  18.906  0.00  0.00    +0.000 A 
ATOM      4  S   UNL     1       7.145   5.202  17.409  0.00  0.00    +0.000 S 
ATOM      5  C   UNL     1       5.728   4.483  16.786  0.00  0.00    +0.000 A 
ATOM      6  N   UNL     1       5.652   3.983  15.509  0.00  0.00    +0.000 N 
ATOM      7  C   UNL     1       6.476   4.315  14.456  0.00  0.00    +0.000 C 
ATOM      8  O   UNL     1       7.423   5.098  14.512  0.00  0.00    +0.000 OA
ATOM      9  N   UNL     1       4.724   4.393  17.629  0.00  0.00    +0.000 NA
ATOM     10  H   UNL     1       4.818   3.447  15.309  0.00  0.00    +0.000 HD
ENDROOT
BRANCH   7  11
ATOM     11  C   UNL     1       6.104   3.693  13.194  0.00  0.00    +0.000 A 
ATOM     12  C   UNL     1       6.875   2.954  12.312  0.00  0.00    +0.000 A 
ATOM     13  C   UNL     1       6.042   2.603  11.228  0.00  0.00    +0.000 A 
ATOM     14  C   UNL     1       4.799   3.123  11.513  0.00  0.00    +0.000 A 
ATOM     15  C   UNL     1       3.507   3.072  10.798  0.00  0.00    +0.000 C 
ATOM     16  O   UNL     1       4.826   3.797  12.703  0.00  0.00    +0.000 OA
ENDBRANCH   7  11
TORSDOF 1
ENDMDL
