MODEL 1
REMARK VINA RESULT:      -8.3      0.000      0.000
REMARK  Name = 
REMARK  8 active torsions:
REMARK  status: ('A' for Active; 'I' for Inactive)
REMARK    1  A    between atoms: C_1  and  O_2
REMARK    2  A    between atoms: O_2  and  C_3
REMARK    3  A    between atoms: C_6  and  N_7
REMARK    4  A    between atoms: N_7  and  S_8
REMARK    5  A    between atoms: S_8  and  C_11
REMARK    6  A    between atoms: C_22  and  N_23
REMARK    7  A    between atoms: C_25  and  C_26
REMARK    8  A    between atoms: C_28  and  C_29
REMARK                            x       y       z     vdW  Elec       q    Type
REMARK                         _______ _______ _______ _____ _____    ______ ____
ROOT
ATOM      1  C   UNL     1       1.344   8.312  20.424  0.00  0.00    +0.000 A 
ATOM      2  C   UNL     1       1.749   7.070  20.941  0.00  0.00    +0.000 A 
ATOM      3  C   UNL     1       2.319   6.105  20.122  0.00  0.00    +0.000 A 
ATOM      4  C   UNL     1       2.525   6.383  18.782  0.00  0.00    +0.000 A 
ATOM      5  C   UNL     1       2.143   7.621  18.251  0.00  0.00    +0.000 A 
ATOM      6  C   UNL     1       1.552   8.634  19.051  0.00  0.00    +0.000 A 
ENDROOT
BRANCH   6   7
ATOM      7  N   UNL     1       1.250   9.868  18.484  0.00  0.00    +0.000 N 
ATOM      8  C   UNL     1      -0.098  10.217  17.995  0.00  0.00    +0.000 C 
ATOM      9  C   UNL     1      -0.497  11.619  18.537  0.00  0.00    +0.000 C 
ATOM     10  C   UNL     1      -1.885  12.021  18.044  0.00  0.00    +0.000 C 
ATOM     11  N   UNL     1       0.475  12.677  18.172  0.00  0.00    +0.000 NA
ATOM     12  C   UNL     1       1.824  12.287  18.650  0.00  0.00    +0.000 C 
ATOM     13  C   UNL     1       2.813  13.371  18.217  0.00  0.00    +0.000 C 
ATOM     14  C   UNL     1       2.270  10.882  18.143  0.00  0.00    +0.000 C 
ATOM     15  H   UNL     1       0.201  13.551  18.621  0.00  0.00    +0.000 HD
ENDBRANCH   6   7
BRANCH   1  17
ATOM     16  C   UNL     1      -0.322   8.772  22.073  0.00  0.00    +0.000 C 
ATOM     17  O   UNL     1       0.720   9.245  21.226  0.00  0.00    +0.000 OA
ENDBRANCH   1  17
BRANCH   4  18
ATOM     18  N   UNL     1       3.088   5.356  17.985  0.00  0.00    +0.000 N 
ATOM     19  H   UNL     1       2.741   5.204  17.039  0.00  0.00    +0.000 HD
BRANCH  18  20
ATOM     20  S   UNL     1       4.584   4.683  18.329  0.00  0.00    +0.000 S 
ATOM     21  O   UNL     1       5.225   5.611  19.241  0.00  0.00    +0.000 OA
ATOM     22  O   UNL     1       4.408   3.294  18.692  0.00  0.00    +0.000 OA
BRANCH  20  23
ATOM     23  C   UNL     1       5.481   4.743  16.790  0.00  0.00    +0.000 A 
ATOM     24  C   UNL     1       6.606   5.556  16.702  0.00  0.00    +0.000 A 
ATOM     25  C   UNL     1       7.334   5.617  15.511  0.00  0.00    +0.000 A 
ATOM     26  C   UNL     1       6.927   4.888  14.383  0.00  0.00    +0.000 A 
ATOM     27  C   UNL     1       7.695   4.886  13.208  0.00  0.00    +0.000 A 
ATOM     28  C   UNL     1       7.270   4.191  12.078  0.00  0.00    +0.000 A 
ATOM     29  C   UNL     1       6.044   3.533  12.090  0.00  0.00    +0.000 A 
ATOM     30  C   UNL     1       5.275   3.511  13.257  0.00  0.00    +0.000 A 
ATOM     31  C   UNL     1       5.718   4.148  14.432  0.00  0.00    +0.000 A 
ATOM     32  C   UNL     1       5.009   4.066  15.648  0.00  0.00    +0.000 A 
ENDBRANCH  20  23
ENDBRANCH  18  20
ENDBRANCH   4  18
TORSDOF 5
ENDMDL
MODEL 2
REMARK VINA RESULT:      -8.2      2.290      3.803
REMARK  Name = 
REMARK  8 active torsions:
REMARK  status: ('A' for Active; 'I' for Inactive)
REMARK    1  A    between atoms: C_1  and  O_2
REMARK    2  A    between atoms: O_2  and  C_3
REMARK    3  A    between atoms: C_6  and  N_7
REMARK    4  A    between atoms: N_7  and  S_8
REMARK    5  A    between atoms: S_8  and  C_11
REMARK    6  A    between atoms: C_22  and  N_23
REMARK    7  A    between atoms: C_25  and  C_26
REMARK    8  A    between atoms: C_28  and  C_29
REMARK                            x       y       z     vdW  Elec       q    Type
REMARK                         _______ _______ _______ _____ _____    ______ ____
ROOT
ATOM      1  C   UNL     1       1.602   9.303  18.577  0.00  0.00    +0.000 A 
ATOM      2  C   UNL     1       2.420   8.218  18.220  0.00  0.00    +0.000 A 
ATOM      3  C   UNL     1       2.593   7.139  19.075  0.00  0.00    +0.000 A 
ATOM      4  C   UNL     1       1.922   7.113  20.285  0.00  0.00    +0.000 A 
ATOM      5  C   UNL     1       1.090   8.177  20.653  0.00  0.00    +0.000 A 
ATOM      6  C   UNL     1       0.888   9.303  19.812  0.00  0.00    +0.000 A 
ENDROOT
BRANCH   6   7
ATOM      7  N   UNL     1       0.000  10.301  20.200  0.00  0.00    +0.000 N 
ATOM      8  C   UNL     1       0.303  11.268  21.273  0.00  0.00    +0.000 C 
ATOM      9  C   UNL     1      -0.036  12.705  20.781  0.00  0.00    +0.000 C 
ATOM     10  C   UNL     1       0.254  13.736  21.870  0.00  0.00    +0.000 C 
ATOM     11  N   UNL     1      -1.444  12.847  20.339  0.00  0.00    +0.000 NA
ATOM     12  C   UNL     1      -1.727  11.845  19.283  0.00  0.00    +0.000 C 
ATOM     13  C   UNL     1      -3.197  11.981  18.881  0.00  0.00    +0.000 C 
ATOM     14  C   UNL     1      -1.395  10.385  19.720  0.00  0.00    +0.000 C 
ATOM     15  H   UNL     1      -1.580  13.783  19.957  0.00  0.00    +0.000 HD
ENDBRANCH   6   7
BRANCH   1  17
ATOM     16  C   UNL     1       2.343  11.505  18.021  0.00  0.00    +0.000 C 
ATOM     17  O   UNL     1       1.481  10.403  17.754  0.00  0.00    +0.000 OA
ENDBRANCH   1  17
BRANCH   4  18
ATOM     18  N   UNL     1       2.152   6.000  21.131  0.00  0.00    +0.000 N 
ATOM     19  H   UNL     1       2.169   6.130  22.141  0.00  0.00    +0.000 HD
BRANCH  18  20
ATOM     20  S   UNL     1       1.944   4.424  20.602  0.00  0.00    +0.000 S 
ATOM     21  O   UNL     1       2.465   3.587  21.666  0.00  0.00    +0.000 OA
ATOM     22  O   UNL     1       0.589   4.257  20.127  0.00  0.00    +0.000 OA
BRANCH  20  23
ATOM     23  C   UNL     1       3.043   4.259  19.208  0.00  0.00    +0.000 A 
ATOM     24  C   UNL     1       2.547   3.723  18.024  0.00  0.00    +0.000 A 
ATOM     25  C   UNL     1       3.382   3.589  16.913  0.00  0.00    +0.000 A 
ATOM     26  C   UNL     1       4.734   3.962  16.981  0.00  0.00    +0.000 A 
ATOM     27  C   UNL     1       5.558   3.901  15.847  0.00  0.00    +0.000 A 
ATOM     28  C   UNL     1       6.908   4.238  15.926  0.00  0.00    +0.000 A 
ATOM     29  C   UNL     1       7.463   4.588  17.152  0.00  0.00    +0.000 A 
ATOM     30  C   UNL     1       6.652   4.671  18.288  0.00  0.00    +0.000 A 
ATOM     31  C   UNL     1       5.272   4.403  18.217  0.00  0.00    +0.000 A 
ATOM     32  C   UNL     1       4.413   4.565  19.323  0.00  0.00    +0.000 A 
ENDBRANCH  20  23
ENDBRANCH  18  20
ENDBRANCH   4  18
TORSDOF 5
ENDMDL
MODEL 3
REMARK VINA RESULT:      -8.1      4.079      6.434
REMARK  Name = 
REMARK  8 active torsions:
REMARK  status: ('A' for Active; 'I' for Inactive)
REMARK    1  A    between atoms: C_1  and  O_2
REMARK    2  A    between atoms: O_2  and  C_3
REMARK    3  A    between atoms: C_6  and  N_7
REMARK    4  A    between atoms: N_7  and  S_8
REMARK    5  A    between atoms: S_8  and  C_11
REMARK    6  A    between atoms: C_22  and  N_23
REMARK    7  A    between atoms: C_25  and  C_26
REMARK    8  A    between atoms: C_28  and  C_29
REMARK                            x       y       z     vdW  Elec       q    Type
REMARK                         _______ _______ _______ _____ _____    ______ ____
ROOT
ATOM      1  C   UNL     1      -2.575  11.359  18.048  0.00  0.00    +0.000 A 
ATOM      2  C   UNL     1      -1.600  10.474  17.556  0.00  0.00    +0.000 A 
ATOM      3  C   UNL     1      -0.498  10.124  18.324  0.00  0.00    +0.000 A 
ATOM      4  C   UNL     1      -0.373  10.627  19.607  0.00  0.00    +0.000 A 
ATOM      5  C   UNL     1      -1.342  11.498  20.122  0.00  0.00    +0.000 A 
ATOM      6  C   UNL     1      -2.482  11.886  19.370  0.00  0.00    +0.000 A 
ENDROOT
BRANCH   6   7
ATOM      7  N   UNL     1      -3.445  12.703  19.954  0.00  0.00    +0.000 N 
ATOM      8  C   UNL     1      -4.894  12.466  19.805  0.00  0.00    +0.000 C 
ATOM      9  C   UNL     1      -5.577  12.554  21.199  0.00  0.00    +0.000 C 
ATOM     10  C   UNL     1      -7.082  12.324  21.085  0.00  0.00    +0.000 C 
ATOM     11  N   UNL     1      -5.332  13.846  21.883  0.00  0.00    +0.000 NA
ATOM     12  C   UNL     1      -3.870  14.070  21.993  0.00  0.00    +0.000 C 
ATOM     13  C   UNL     1      -3.647  15.431  22.656  0.00  0.00    +0.000 C 
ATOM     14  C   UNL     1      -3.133  13.984  20.622  0.00  0.00    +0.000 C 
ATOM     15  H   UNL     1      -5.736  13.810  22.819  0.00  0.00    +0.000 HD
ENDBRANCH   6   7
BRANCH   1  17
ATOM     16  C   UNL     1      -3.817  11.063  16.029  0.00  0.00    +0.000 C 
ATOM     17  O   UNL     1      -3.636  11.755  17.261  0.00  0.00    +0.000 OA
ENDBRANCH   1  17
BRANCH   4  18
ATOM     18  N   UNL     1       0.782  10.258  20.339  0.00  0.00    +0.000 N 
ATOM     19  H   UNL     1       1.526  10.938  20.484  0.00  0.00    +0.000 HD
BRANCH  18  20
ATOM     20  S   UNL     1       0.799   8.930  21.362  0.00  0.00    +0.000 S 
ATOM     21  O   UNL     1       1.691   9.290  22.448  0.00  0.00    +0.000 OA
ATOM     22  O   UNL     1      -0.561   8.518  21.629  0.00  0.00    +0.000 OA
BRANCH  20  23
ATOM     23  C   UNL     1       1.594   7.639  20.425  0.00  0.00    +0.000 A 
ATOM     24  C   UNL     1       2.173   7.958  19.201  0.00  0.00    +0.000 A 
ATOM     25  C   UNL     1       2.810   6.969  18.450  0.00  0.00    +0.000 A 
ATOM     26  C   UNL     1       2.851   5.640  18.899  0.00  0.00    +0.000 A 
ATOM     27  C   UNL     1       3.554   4.657  18.185  0.00  0.00    +0.000 A 
ATOM     28  C   UNL     1       3.563   3.331  18.614  0.00  0.00    +0.000 A 
ATOM     29  C   UNL     1       2.822   2.961  19.732  0.00  0.00    +0.000 A 
ATOM     30  C   UNL     1       2.130   3.931  20.464  0.00  0.00    +0.000 A 
ATOM     31  C   UNL     1       2.165   5.287  20.089  0.00  0.00    +0.000 A 
ATOM     32  C   UNL     1       1.554   6.298  20.857  0.00  0.00    +0.000 A 
ENDBRANCH  20  23
ENDBRANCH  18  20
ENDBRANCH   4  18
TORSDOF 5
ENDMDL
MODEL 4
REMARK VINA RESULT:      -8.0      3.957      6.485
REMARK  Name = 
REMARK  8 active torsions:
REMARK  status: ('A' for Active; 'I' for Inactive)
REMARK    1  A    between atoms: C_1  and  O_2
REMARK    2  A    between atoms: O_2  and  C_3
REMARK    3  A    between atoms: C_6  and  N_7
REMARK    4  A    between atoms: N_7  and  S_8
REMARK    5  A    between atoms: S_8  and  C_11
REMARK    6  A    between atoms: C_22  and  N_23
REMARK    7  A    between atoms: C_25  and  C_26
REMARK    8  A    between atoms: C_28  and  C_29
REMARK                            x       y       z     vdW  Elec       q    Type
REMARK                         _______ _______ _______ _____ _____    ______ ____
ROOT
ATOM      1  C   UNL     1      -3.003  11.708  18.891  0.00  0.00    +0.000 A 
ATOM      2  C   UNL     1      -2.192  10.754  18.253  0.00  0.00    +0.000 A 
ATOM      3  C   UNL     1      -0.984  10.355  18.808  0.00  0.00    +0.000 A 
ATOM      4  C   UNL     1      -0.587  10.878  20.026  0.00  0.00    +0.000 A 
ATOM      5  C   UNL     1      -1.388  11.818  20.686  0.00  0.00    +0.000 A 
ATOM      6  C   UNL     1      -2.628  12.258  20.153  0.00  0.00    +0.000 A 
ENDROOT
BRANCH   6   7
ATOM      7  N   UNL     1      -3.413  13.145  20.881  0.00  0.00    +0.000 N 
ATOM      8  C   UNL     1      -4.631  12.730  21.604  0.00  0.00    +0.000 C 
ATOM      9  C   UNL     1      -4.600  13.313  23.045  0.00  0.00    +0.000 C 
ATOM     10  C   UNL     1      -5.852  12.912  23.823  0.00  0.00    +0.000 C 
ATOM     11  N   UNL     1      -4.463  14.789  23.069  0.00  0.00    +0.000 NA
ATOM     12  C   UNL     1      -3.248  15.178  22.312  0.00  0.00    +0.000 C 
ATOM     13  C   UNL     1      -3.159  16.706  22.311  0.00  0.00    +0.000 C 
ATOM     14  C   UNL     1      -3.224  14.611  20.860  0.00  0.00    +0.000 C 
ATOM     15  H   UNL     1      -4.369  15.100  24.036  0.00  0.00    +0.000 HD
ENDBRANCH   6   7
BRANCH   1  17
ATOM     16  C   UNL     1      -5.168  11.167  18.039  0.00  0.00    +0.000 C 
ATOM     17  O   UNL     1      -4.172  12.149  18.309  0.00  0.00    +0.000 OA
ENDBRANCH   1  17
BRANCH   4  18
ATOM     18  N   UNL     1       0.666  10.455  20.537  0.00  0.00    +0.000 N 
ATOM     19  H   UNL     1       1.423  11.129  20.634  0.00  0.00    +0.000 HD
BRANCH  18  20
ATOM     20  S   UNL     1       0.836   9.036  21.411  0.00  0.00    +0.000 S 
ATOM     21  O   UNL     1       1.794   9.337  22.457  0.00  0.00    +0.000 OA
ATOM     22  O   UNL     1      -0.475   8.518  21.736  0.00  0.00    +0.000 OA
BRANCH  20  23
ATOM     23  C   UNL     1       1.617   7.895  20.285  0.00  0.00    +0.000 A 
ATOM     24  C   UNL     1       2.006   8.352  19.031  0.00  0.00    +0.000 A 
ATOM     25  C   UNL     1       2.628   7.484  18.131  0.00  0.00    +0.000 A 
ATOM     26  C   UNL     1       2.841   6.137  18.464  0.00  0.00    +0.000 A 
ATOM     27  C   UNL     1       3.532   5.278  17.595  0.00  0.00    +0.000 A 
ATOM     28  C   UNL     1       3.711   3.933  17.912  0.00  0.00    +0.000 A 
ATOM     29  C   UNL     1       3.153   3.417  19.077  0.00  0.00    +0.000 A 
ATOM     30  C   UNL     1       2.476   4.262  19.962  0.00  0.00    +0.000 A 
ATOM     31  C   UNL     1       2.344   5.638  19.696  0.00  0.00    +0.000 A 
ATOM     32  C   UNL     1       1.748   6.530  20.610  0.00  0.00    +0.000 A 
ENDBRANCH  20  23
ENDBRANCH  18  20
ENDBRANCH   4  18
TORSDOF 5
ENDMDL
MODEL 5
REMARK VINA RESULT:      -8.0      2.054      2.993
REMARK  Name = 
REMARK  8 active torsions:
REMARK  status: ('A' for Active; 'I' for Inactive)
REMARK    1  A    between atoms: C_1  and  O_2
REMARK    2  A    between atoms: O_2  and  C_3
REMARK    3  A    between atoms: C_6  and  N_7
REMARK    4  A    between atoms: N_7  and  S_8
REMARK    5  A    between atoms: S_8  and  C_11
REMARK    6  A    between atoms: C_22  and  N_23
REMARK    7  A    between atoms: C_25  and  C_26
REMARK    8  A    between atoms: C_28  and  C_29
REMARK                            x       y       z     vdW  Elec       q    Type
REMARK                         _______ _______ _______ _____ _____    ______ ____
ROOT
ATOM      1  C   UNL     1      -0.238   9.888  21.273  0.00  0.00    +0.000 A 
ATOM      2  C   UNL     1       0.205   8.995  22.263  0.00  0.00    +0.000 A 
ATOM      3  C   UNL     1       1.137   8.008  21.973  0.00  0.00    +0.000 A 
ATOM      4  C   UNL     1       1.666   7.924  20.697  0.00  0.00    +0.000 A 
ATOM      5  C   UNL     1       1.250   8.815  19.700  0.00  0.00    +0.000 A 
ATOM      6  C   UNL     1       0.296   9.836  19.952  0.00  0.00    +0.000 A 
ENDROOT
BRANCH   6   7
ATOM      7  N   UNL     1      -0.033  10.733  18.941  0.00  0.00    +0.000 N 
ATOM      8  C   UNL     1      -0.816  10.347  17.751  0.00  0.00    +0.000 C 
ATOM      9  C   UNL     1      -1.947  11.390  17.518  0.00  0.00    +0.000 C 
ATOM     10  C   UNL     1      -2.774  11.030  16.286  0.00  0.00    +0.000 C 
ATOM     11  N   UNL     1      -1.435  12.774  17.373  0.00  0.00    +0.000 NA
ATOM     12  C   UNL     1      -0.630  13.124  18.569  0.00  0.00    +0.000 C 
ATOM     13  C   UNL     1      -0.075  14.536  18.370  0.00  0.00    +0.000 C 
ATOM     14  C   UNL     1       0.514  12.103  18.855  0.00  0.00    +0.000 C 
ATOM     15  H   UNL     1      -2.225  13.415  17.303  0.00  0.00    +0.000 HD
ENDBRANCH   6   7
BRANCH   1  17
ATOM     16  C   UNL     1      -1.285  11.302  22.888  0.00  0.00    +0.000 C 
ATOM     17  O   UNL     1      -1.209  10.827  21.548  0.00  0.00    +0.000 OA
ENDBRANCH   1  17
BRANCH   4  18
ATOM     18  N   UNL     1       2.596   6.884  20.447  0.00  0.00    +0.000 N 
ATOM     19  H   UNL     1       3.575   7.015  20.692  0.00  0.00    +0.000 HD
BRANCH  18  20
ATOM     20  S   UNL     1       2.111   5.299  20.198  0.00  0.00    +0.000 S 
ATOM     21  O   UNL     1       2.535   4.575  21.381  0.00  0.00    +0.000 OA
ATOM     22  O   UNL     1       0.727   5.286  19.780  0.00  0.00    +0.000 OA
BRANCH  20  23
ATOM     23  C   UNL     1       3.106   4.723  18.836  0.00  0.00    +0.000 A 
ATOM     24  C   UNL     1       3.324   3.356  18.697  0.00  0.00    +0.000 A 
ATOM     25  C   UNL     1       4.092   2.874  17.635  0.00  0.00    +0.000 A 
ATOM     26  C   UNL     1       4.679   3.757  16.715  0.00  0.00    +0.000 A 
ATOM     27  C   UNL     1       5.389   3.276  15.604  0.00  0.00    +0.000 A 
ATOM     28  C   UNL     1       6.000   4.154  14.711  0.00  0.00    +0.000 A 
ATOM     29  C   UNL     1       5.956   5.524  14.950  0.00  0.00    +0.000 A 
ATOM     30  C   UNL     1       5.239   6.021  16.042  0.00  0.00    +0.000 A 
ATOM     31  C   UNL     1       4.555   5.156  16.917  0.00  0.00    +0.000 A 
ATOM     32  C   UNL     1       3.750   5.631  17.972  0.00  0.00    +0.000 A 
ENDBRANCH  20  23
ENDBRANCH  18  20
ENDBRANCH   4  18
TORSDOF 5
ENDMDL
MODEL 6
REMARK VINA RESULT:      -8.0      3.144      9.493
REMARK  Name = 
REMARK  8 active torsions:
REMARK  status: ('A' for Active; 'I' for Inactive)
REMARK    1  A    between atoms: C_1  and  O_2
REMARK    2  A    between atoms: O_2  and  C_3
REMARK    3  A    between atoms: C_6  and  N_7
REMARK    4  A    between atoms: N_7  and  S_8
REMARK    5  A    between atoms: S_8  and  C_11
REMARK    6  A    between atoms: C_22  and  N_23
REMARK    7  A    between atoms: C_25  and  C_26
REMARK    8  A    between atoms: C_28  and  C_29
REMARK                            x       y       z     vdW  Elec       q    Type
REMARK                         _______ _______ _______ _____ _____    ______ ____
ROOT
ATOM      1  C   UNL     1       2.168   6.628  20.100  0.00  0.00    +0.000 A 
ATOM      2  C   UNL     1       1.363   7.642  20.647  0.00  0.00    +0.000 A 
ATOM      3  C   UNL     1       1.159   8.837  19.973  0.00  0.00    +0.000 A 
ATOM      4  C   UNL     1       1.728   9.022  18.725  0.00  0.00    +0.000 A 
ATOM      5  C   UNL     1       2.520   8.019  18.154  0.00  0.00    +0.000 A 
ATOM      6  C   UNL     1       2.759   6.783  18.811  0.00  0.00    +0.000 A 
ENDROOT
BRANCH   6   7
ATOM      7  N   UNL     1       3.502   5.797  18.170  0.00  0.00    +0.000 N 
ATOM      8  C   UNL     1       4.895   6.003  17.729  0.00  0.00    +0.000 C 
ATOM      9  C   UNL     1       5.764   4.796  18.184  0.00  0.00    +0.000 C 
ATOM     10  C   UNL     1       7.214   4.969  17.736  0.00  0.00    +0.000 C 
ATOM     11  N   UNL     1       5.252   3.496  17.688  0.00  0.00    +0.000 NA
ATOM     12  C   UNL     1       3.844   3.329  18.121  0.00  0.00    +0.000 C 
ATOM     13  C   UNL     1       3.327   2.005  17.555  0.00  0.00    +0.000 C 
ATOM     14  C   UNL     1       2.929   4.519  17.699  0.00  0.00    +0.000 C 
ATOM     15  H   UNL     1       5.815   2.743  18.084  0.00  0.00    +0.000 HD
ENDBRANCH   6   7
BRANCH   1  17
ATOM     16  C   UNL     1       1.399   4.475  20.790  0.00  0.00    +0.000 C 
ATOM     17  O   UNL     1       2.421   5.467  20.798  0.00  0.00    +0.000 OA
ENDBRANCH   1  17
BRANCH   4  18
ATOM     18  N   UNL     1       1.507  10.270  18.090  0.00  0.00    +0.000 N 
ATOM     19  H   UNL     1       1.498  10.322  17.073  0.00  0.00    +0.000 HD
BRANCH  18  20
ATOM     20  S   UNL     1       0.814  11.566  18.894  0.00  0.00    +0.000 S 
ATOM     21  O   UNL     1       1.086  11.340  20.300  0.00  0.00    +0.000 OA
ATOM     22  O   UNL     1       1.219  12.796  18.251  0.00  0.00    +0.000 OA
BRANCH  20  23
ATOM     23  C   UNL     1      -0.942  11.370  18.653  0.00  0.00    +0.000 A 
ATOM     24  C   UNL     1      -1.389  10.543  17.628  0.00  0.00    +0.000 A 
ATOM     25  C   UNL     1      -2.758  10.364  17.421  0.00  0.00    +0.000 A 
ATOM     26  C   UNL     1      -3.699  11.033  18.219  0.00  0.00    +0.000 A 
ATOM     27  C   UNL     1      -5.074  10.798  18.064  0.00  0.00    +0.000 A 
ATOM     28  C   UNL     1      -6.008  11.491  18.834  0.00  0.00    +0.000 A 
ATOM     29  C   UNL     1      -5.580  12.466  19.728  0.00  0.00    +0.000 A 
ATOM     30  C   UNL     1      -4.213  12.700  19.906  0.00  0.00    +0.000 A 
ATOM     31  C   UNL     1      -3.250  11.963  19.191  0.00  0.00    +0.000 A 
ATOM     32  C   UNL     1      -1.866  12.112  19.414  0.00  0.00    +0.000 A 
ENDBRANCH  20  23
ENDBRANCH  18  20
ENDBRANCH   4  18
TORSDOF 5
ENDMDL
MODEL 7
REMARK VINA RESULT:      -8.0      2.046      3.228
REMARK  Name = 
REMARK  8 active torsions:
REMARK  status: ('A' for Active; 'I' for Inactive)
REMARK    1  A    between atoms: C_1  and  O_2
REMARK    2  A    between atoms: O_2  and  C_3
REMARK    3  A    between atoms: C_6  and  N_7
REMARK    4  A    between atoms: N_7  and  S_8
REMARK    5  A    between atoms: S_8  and  C_11
REMARK    6  A    between atoms: C_22  and  N_23
REMARK    7  A    between atoms: C_25  and  C_26
REMARK    8  A    between atoms: C_28  and  C_29
REMARK                            x       y       z     vdW  Elec       q    Type
REMARK                         _______ _______ _______ _____ _____    ______ ____
ROOT
ATOM      1  C   UNL     1       1.789   9.525  18.311  0.00  0.00    +0.000 A 
ATOM      2  C   UNL     1       2.614   8.476  17.869  0.00  0.00    +0.000 A 
ATOM      3  C   UNL     1       2.802   7.339  18.641  0.00  0.00    +0.000 A 
ATOM      4  C   UNL     1       2.141   7.218  19.851  0.00  0.00    +0.000 A 
ATOM      5  C   UNL     1       1.302   8.245  20.302  0.00  0.00    +0.000 A 
ATOM      6  C   UNL     1       1.085   9.427  19.547  0.00  0.00    +0.000 A 
ENDROOT
BRANCH   6   7
ATOM      7  N   UNL     1       0.192  10.386  20.015  0.00  0.00    +0.000 N 
ATOM      8  C   UNL     1       0.536  11.349  21.079  0.00  0.00    +0.000 C 
ATOM      9  C   UNL     1       0.111  12.779  20.637  0.00  0.00    +0.000 C 
ATOM     10  C   UNL     1       0.442  13.805  21.719  0.00  0.00    +0.000 C 
ATOM     11  N   UNL     1      -1.329  12.875  20.299  0.00  0.00    +0.000 NA
ATOM     12  C   UNL     1      -1.651  11.878  19.249  0.00  0.00    +0.000 C 
ATOM     13  C   UNL     1      -3.150  11.965  18.955  0.00  0.00    +0.000 C 
ATOM     14  C   UNL     1      -1.236  10.426  19.637  0.00  0.00    +0.000 C 
ATOM     15  H   UNL     1      -1.526  13.810  19.943  0.00  0.00    +0.000 HD
ENDBRANCH   6   7
BRANCH   1  17
ATOM     16  C   UNL     1       2.505  11.769  17.917  0.00  0.00    +0.000 C 
ATOM     17  O   UNL     1       1.653  10.681  17.572  0.00  0.00    +0.000 OA
ENDBRANCH   1  17
BRANCH   4  18
ATOM     18  N   UNL     1       2.386   6.048  20.611  0.00  0.00    +0.000 N 
ATOM     19  H   UNL     1       2.242   6.062  21.619  0.00  0.00    +0.000 HD
BRANCH  18  20
ATOM     20  S   UNL     1       2.456   4.529  19.906  0.00  0.00    +0.000 S 
ATOM     21  O   UNL     1       2.767   3.614  20.988  0.00  0.00    +0.000 OA
ATOM     22  O   UNL     1       1.282   4.331  19.086  0.00  0.00    +0.000 OA
BRANCH  20  23
ATOM     23  C   UNL     1       3.878   4.586  18.832  0.00  0.00    +0.000 A 
ATOM     24  C   UNL     1       5.118   4.899  19.379  0.00  0.00    +0.000 A 
ATOM     25  C   UNL     1       6.251   4.943  18.563  0.00  0.00    +0.000 A 
ATOM     26  C   UNL     1       6.153   4.705  17.184  0.00  0.00    +0.000 A 
ATOM     27  C   UNL     1       7.298   4.674  16.373  0.00  0.00    +0.000 A 
ATOM     28  C   UNL     1       7.194   4.472  14.997  0.00  0.00    +0.000 A 
ATOM     29  C   UNL     1       5.939   4.354  14.409  0.00  0.00    +0.000 A 
ATOM     30  C   UNL     1       4.789   4.365  15.204  0.00  0.00    +0.000 A 
ATOM     31  C   UNL     1       4.875   4.498  16.603  0.00  0.00    +0.000 A 
ATOM     32  C   UNL     1       3.743   4.422  17.439  0.00  0.00    +0.000 A 
ENDBRANCH  20  23
ENDBRANCH  18  20
ENDBRANCH   4  18
TORSDOF 5
ENDMDL
MODEL 8
REMARK VINA RESULT:      -7.9      2.526      9.063
REMARK  Name = 
REMARK  8 active torsions:
REMARK  status: ('A' for Active; 'I' for Inactive)
REMARK    1  A    between atoms: C_1  and  O_2
REMARK    2  A    between atoms: O_2  and  C_3
REMARK    3  A    between atoms: C_6  and  N_7
REMARK    4  A    between atoms: N_7  and  S_8
REMARK    5  A    between atoms: S_8  and  C_11
REMARK    6  A    between atoms: C_22  and  N_23
REMARK    7  A    between atoms: C_25  and  C_26
REMARK    8  A    between atoms: C_28  and  C_29
REMARK                            x       y       z     vdW  Elec       q    Type
REMARK                         _______ _______ _______ _____ _____    ______ ____
ROOT
ATOM      1  C   UNL     1       2.506   4.920  20.107  0.00  0.00    +0.000 A 
ATOM      2  C   UNL     1       1.332   5.408  20.707  0.00  0.00    +0.000 A 
ATOM      3  C   UNL     1       0.984   6.747  20.614  0.00  0.00    +0.000 A 
ATOM      4  C   UNL     1       1.785   7.612  19.889  0.00  0.00    +0.000 A 
ATOM      5  C   UNL     1       2.950   7.143  19.269  0.00  0.00    +0.000 A 
ATOM      6  C   UNL     1       3.347   5.782  19.343  0.00  0.00    +0.000 A 
ENDROOT
BRANCH   6   7
ATOM      7  N   UNL     1       4.480   5.359  18.656  0.00  0.00    +0.000 N 
ATOM      8  C   UNL     1       4.435   4.869  17.264  0.00  0.00    +0.000 C 
ATOM      9  C   UNL     1       5.556   5.563  16.438  0.00  0.00    +0.000 C 
ATOM     10  C   UNL     1       5.549   5.074  14.991  0.00  0.00    +0.000 C 
ATOM     11  N   UNL     1       6.907   5.362  17.014  0.00  0.00    +0.000 NA
ATOM     12  C   UNL     1       6.914   5.836  18.419  0.00  0.00    +0.000 C 
ATOM     13  C   UNL     1       8.303   5.572  19.002  0.00  0.00    +0.000 C 
ATOM     14  C   UNL     1       5.801   5.178  19.291  0.00  0.00    +0.000 C 
ATOM     15  H   UNL     1       7.583   5.904  16.475  0.00  0.00    +0.000 HD
ENDBRANCH   6   7
BRANCH   1  17
ATOM     16  C   UNL     1       1.991   2.616  19.743  0.00  0.00    +0.000 C 
ATOM     17  O   UNL     1       2.883   3.602  20.253  0.00  0.00    +0.000 OA
ENDBRANCH   1  17
BRANCH   4  18
ATOM     18  N   UNL     1       1.396   8.974  19.844  0.00  0.00    +0.000 N 
ATOM     19  H   UNL     1       1.502   9.555  20.674  0.00  0.00    +0.000 HD
BRANCH  18  20
ATOM     20  S   UNL     1       1.204   9.797  18.397  0.00  0.00    +0.000 S 
ATOM     21  O   UNL     1       2.039  10.977  18.509  0.00  0.00    +0.000 OA
ATOM     22  O   UNL     1       1.376   8.872  17.298  0.00  0.00    +0.000 OA
BRANCH  20  23
ATOM     23  C   UNL     1      -0.493  10.342  18.400  0.00  0.00    +0.000 A 
ATOM     24  C   UNL     1      -1.334   9.921  17.376  0.00  0.00    +0.000 A 
ATOM     25  C   UNL     1      -2.670  10.326  17.357  0.00  0.00    +0.000 A 
ATOM     26  C   UNL     1      -3.176  11.182  18.347  0.00  0.00    +0.000 A 
ATOM     27  C   UNL     1      -4.535  11.531  18.376  0.00  0.00    +0.000 A 
ATOM     28  C   UNL     1      -5.027  12.410  19.339  0.00  0.00    +0.000 A 
ATOM     29  C   UNL     1      -4.155  12.994  20.253  0.00  0.00    +0.000 A 
ATOM     30  C   UNL     1      -2.801  12.644  20.249  0.00  0.00    +0.000 A 
ATOM     31  C   UNL     1      -2.296  11.705  19.329  0.00  0.00    +0.000 A 
ATOM     32  C   UNL     1      -0.957  11.264  19.359  0.00  0.00    +0.000 A 
ENDBRANCH  20  23
ENDBRANCH  18  20
ENDBRANCH   4  18
TORSDOF 5
ENDMDL
MODEL 9
REMARK VINA RESULT:      -7.9      2.523      8.913
REMARK  Name = 
REMARK  8 active torsions:
REMARK  status: ('A' for Active; 'I' for Inactive)
REMARK    1  A    between atoms: C_1  and  O_2
REMARK    2  A    between atoms: O_2  and  C_3
REMARK    3  A    between atoms: C_6  and  N_7
REMARK    4  A    between atoms: N_7  and  S_8
REMARK    5  A    between atoms: S_8  and  C_11
REMARK    6  A    between atoms: C_22  and  N_23
REMARK    7  A    between atoms: C_25  and  C_26
REMARK    8  A    between atoms: C_28  and  C_29
REMARK                            x       y       z     vdW  Elec       q    Type
REMARK                         _______ _______ _______ _____ _____    ______ ____
ROOT
ATOM      1  C   UNL     1       2.596   4.853  20.178  0.00  0.00    +0.000 A 
ATOM      2  C   UNL     1       1.432   5.352  20.787  0.00  0.00    +0.000 A 
ATOM      3  C   UNL     1       1.086   6.691  20.681  0.00  0.00    +0.000 A 
ATOM      4  C   UNL     1       1.880   7.544  19.934  0.00  0.00    +0.000 A 
ATOM      5  C   UNL     1       3.035   7.064  19.305  0.00  0.00    +0.000 A 
ATOM      6  C   UNL     1       3.429   5.702  19.392  0.00  0.00    +0.000 A 
ENDROOT
BRANCH   6   7
ATOM      7  N   UNL     1       4.552   5.267  18.695  0.00  0.00    +0.000 N 
ATOM      8  C   UNL     1       4.486   4.747  17.315  0.00  0.00    +0.000 C 
ATOM      9  C   UNL     1       5.591   5.425  16.455  0.00  0.00    +0.000 C 
ATOM     10  C   UNL     1       5.561   4.904  15.020  0.00  0.00    +0.000 C 
ATOM     11  N   UNL     1       6.952   5.240  17.013  0.00  0.00    +0.000 NA
ATOM     12  C   UNL     1       6.980   5.745  18.407  0.00  0.00    +0.000 C 
ATOM     13  C   UNL     1       8.380   5.498  18.973  0.00  0.00    +0.000 C 
ATOM     14  C   UNL     1       5.885   5.104  19.312  0.00  0.00    +0.000 C 
ATOM     15  H   UNL     1       7.617   5.772  16.451  0.00  0.00    +0.000 HD
ENDBRANCH   6   7
BRANCH   1  17
ATOM     16  C   UNL     1       2.307   2.574  19.524  0.00  0.00    +0.000 C 
ATOM     17  O   UNL     1       2.972   3.536  20.336  0.00  0.00    +0.000 OA
ENDBRANCH   1  17
BRANCH   4  18
ATOM     18  N   UNL     1       1.495   8.906  19.877  0.00  0.00    +0.000 N 
ATOM     19  H   UNL     1       1.682   9.516  20.670  0.00  0.00    +0.000 HD
BRANCH  18  20
ATOM     20  S   UNL     1       1.168   9.677  18.425  0.00  0.00    +0.000 S 
ATOM     21  O   UNL     1       2.149  10.740  18.322  0.00  0.00    +0.000 OA
ATOM     22  O   UNL     1       1.039   8.687  17.380  0.00  0.00    +0.000 OA
BRANCH  20  23
ATOM     23  C   UNL     1      -0.425  10.444  18.661  0.00  0.00    +0.000 A 
ATOM     24  C   UNL     1      -0.644  11.193  19.812  0.00  0.00    +0.000 A 
ATOM     25  C   UNL     1      -1.878  11.812  20.020  0.00  0.00    +0.000 A 
ATOM     26  C   UNL     1      -2.920  11.665  19.091  0.00  0.00    +0.000 A 
ATOM     27  C   UNL     1      -4.137  12.345  19.257  0.00  0.00    +0.000 A 
ATOM     28  C   UNL     1      -5.183  12.169  18.352  0.00  0.00    +0.000 A 
ATOM     29  C   UNL     1      -5.044  11.268  17.301  0.00  0.00    +0.000 A 
ATOM     30  C   UNL     1      -3.833  10.595  17.112  0.00  0.00    +0.000 A 
ATOM     31  C   UNL     1      -2.740  10.811  17.973  0.00  0.00    +0.000 A 
ATOM     32  C   UNL     1      -1.480  10.217  17.755  0.00  0.00    +0.000 A 
ENDBRANCH  20  23
ENDBRANCH  18  20
ENDBRANCH   4  18
TORSDOF 5
ENDMDL
