MODEL 1
REMARK VINA RESULT:      -7.1      0.000      0.000
REMARK  Name = 
REMARK  6 active torsions:
REMARK  status: ('A' for Active; 'I' for Inactive)
REMARK    1  A    between atoms: N_1  and  C_2
REMARK    2  A    between atoms: N_10  and  C_11
REMARK    3  A    between atoms: C_14  and  C_15
REMARK    4  A    between atoms: C_15  and  P_16
REMARK    5  A    between atoms: P_16  and  O_18
REMARK    6  A    between atoms: P_16  and  O_19
REMARK                            x       y       z     vdW  Elec       q    Type
REMARK                         _______ _______ _______ _____ _____    ______ ____
ROOT
ATOM      1  C   UNL     1       0.265  10.440  20.134  0.00  0.00    +0.000 A 
ATOM      2  N   UNL     1       0.078   9.924  21.372  0.00  0.00    +0.000 NA
ATOM      3  C   UNL     1       0.664   8.745  21.678  0.00  0.00    +0.000 A 
ATOM      4  N   UNL     1       1.434   7.966  20.891  0.00  0.00    +0.000 NA
ATOM      5  C   UNL     1       1.575   8.515  19.672  0.00  0.00    +0.000 A 
ATOM      6  C   UNL     1       1.039   9.708  19.223  0.00  0.00    +0.000 A 
ATOM      7  N   UNL     1       1.405   9.913  17.918  0.00  0.00    +0.000 NA
ATOM      8  N   UNL     1       2.155   8.884  17.535  0.00  0.00    +0.000 NA
ATOM      9  N   UNL     1       2.262   8.041  18.588  0.00  0.00    +0.000 N 
ENDROOT
BRANCH   9  10
ATOM     10  C   UNL     1       2.997   6.804  18.485  0.00  0.00    +0.000 C 
ATOM     11  C   UNL     1       2.116   5.595  18.182  0.00  0.00    +0.000 C 
ATOM     12  C   UNL     1       3.099   4.530  17.716  0.00  0.00    +0.000 C 
ATOM     13  C   UNL     1       4.293   5.274  17.096  0.00  0.00    +0.000 C 
ATOM     14  C   UNL     1       4.028   6.769  17.352  0.00  0.00    +0.000 C 
BRANCH  13  15
ATOM     15  C   UNL     1       5.633   4.809  17.674  0.00  0.00    +0.000 C 
BRANCH  15  16
ATOM     16  P   UNL     1       6.993   4.733  16.510  0.00  0.00    +0.000 P 
ATOM     17  O   UNL     1       6.734   4.036  15.220  0.00  0.00    +0.000 OA
BRANCH  16  18
ATOM     18  O   UNL     1       7.516   6.234  16.348  0.00  0.00    +0.000 OA
ATOM     19  H   UNL     1       7.576   6.768  17.159  0.00  0.00    +0.000 HD
ENDBRANCH  16  18
BRANCH  16  20
ATOM     20  O   UNL     1       8.187   4.092  17.364  0.00  0.00    +0.000 OA
ATOM     21  H   UNL     1       8.308   4.571  18.207  0.00  0.00    +0.000 HD
ENDBRANCH  16  20
ENDBRANCH  15  16
ENDBRANCH  13  15
ENDBRANCH   9  10
BRANCH   1  22
ATOM     22  N   UNL     1      -0.330  11.659  19.845  0.00  0.00    +0.000 N 
ATOM     23  H   UNL     1      -1.200  11.559  19.337  0.00  0.00    +0.000 HD
ATOM     24  H   UNL     1       0.303  12.396  19.557  0.00  0.00    +0.000 HD
ENDBRANCH   1  22
TORSDOF 6
ENDMDL
MODEL 2
REMARK VINA RESULT:      -6.9      0.173      1.003
REMARK  Name = 
REMARK  6 active torsions:
REMARK  status: ('A' for Active; 'I' for Inactive)
REMARK    1  A    between atoms: N_1  and  C_2
REMARK    2  A    between atoms: N_10  and  C_11
REMARK    3  A    between atoms: C_14  and  C_15
REMARK    4  A    between atoms: C_15  and  P_16
REMARK    5  A    between atoms: P_16  and  O_18
REMARK    6  A    between atoms: P_16  and  O_19
REMARK                            x       y       z     vdW  Elec       q    Type
REMARK                         _______ _______ _______ _____ _____    ______ ____
ROOT
ATOM      1  C   UNL     1       0.183  10.497  19.978  0.00  0.00    +0.000 A 
ATOM      2  N   UNL     1      -0.036  10.010  21.223  0.00  0.00    +0.000 NA
ATOM      3  C   UNL     1       0.556   8.848  21.577  0.00  0.00    +0.000 A 
ATOM      4  N   UNL     1       1.360   8.060  20.833  0.00  0.00    +0.000 NA
ATOM      5  C   UNL     1       1.531   8.579  19.606  0.00  0.00    +0.000 A 
ATOM      6  C   UNL     1       0.994   9.754  19.111  0.00  0.00    +0.000 A 
ATOM      7  N   UNL     1       1.397   9.932  17.813  0.00  0.00    +0.000 NA
ATOM      8  N   UNL     1       2.171   8.903  17.478  0.00  0.00    +0.000 NA
ATOM      9  N   UNL     1       2.257   8.088  18.556  0.00  0.00    +0.000 N 
ENDROOT
BRANCH   9  10
ATOM     10  C   UNL     1       3.011   6.859  18.506  0.00  0.00    +0.000 C 
ATOM     11  C   UNL     1       2.167   5.641  18.140  0.00  0.00    +0.000 C 
ATOM     12  C   UNL     1       3.193   4.587  17.747  0.00  0.00    +0.000 C 
ATOM     13  C   UNL     1       4.420   5.344  17.216  0.00  0.00    +0.000 C 
ATOM     14  C   UNL     1       4.122   6.836  17.451  0.00  0.00    +0.000 C 
BRANCH  13  15
ATOM     15  C   UNL     1       5.720   4.893  17.890  0.00  0.00    +0.000 C 
BRANCH  15  16
ATOM     16  P   UNL     1       7.147   4.767  16.813  0.00  0.00    +0.000 P 
ATOM     17  O   UNL     1       8.348   4.083  17.368  0.00  0.00    +0.000 OA
BRANCH  16  18
ATOM     18  O   UNL     1       6.610   4.137  15.446  0.00  0.00    +0.000 OA
ATOM     19  H   UNL     1       6.868   4.589  14.624  0.00  0.00    +0.000 HD
ENDBRANCH  16  18
BRANCH  16  20
ATOM     20  O   UNL     1       7.414   6.279  16.360  0.00  0.00    +0.000 OA
ATOM     21  H   UNL     1       8.064   6.315  15.631  0.00  0.00    +0.000 HD
ENDBRANCH  16  20
ENDBRANCH  15  16
ENDBRANCH  13  15
ENDBRANCH   9  10
BRANCH   1  22
ATOM     22  N   UNL     1      -0.418  11.701  19.641  0.00  0.00    +0.000 N 
ATOM     23  H   UNL     1      -0.230  12.434  20.314  0.00  0.00    +0.000 HD
ATOM     24  H   UNL     1      -1.358  11.631  19.270  0.00  0.00    +0.000 HD
ENDBRANCH   1  22
TORSDOF 6
ENDMDL
MODEL 3
REMARK VINA RESULT:      -6.6      5.626      7.489
REMARK  Name = 
REMARK  6 active torsions:
REMARK  status: ('A' for Active; 'I' for Inactive)
REMARK    1  A    between atoms: N_1  and  C_2
REMARK    2  A    between atoms: N_10  and  C_11
REMARK    3  A    between atoms: C_14  and  C_15
REMARK    4  A    between atoms: C_15  and  P_16
REMARK    5  A    between atoms: P_16  and  O_18
REMARK    6  A    between atoms: P_16  and  O_19
REMARK                            x       y       z     vdW  Elec       q    Type
REMARK                         _______ _______ _______ _____ _____    ______ ____
ROOT
ATOM      1  C   UNL     1       7.467   5.183  13.958  0.00  0.00    +0.000 A 
ATOM      2  N   UNL     1       6.769   4.333  13.167  0.00  0.00    +0.000 NA
ATOM      3  C   UNL     1       5.656   3.751  13.666  0.00  0.00    +0.000 A 
ATOM      4  N   UNL     1       5.120   3.890  14.896  0.00  0.00    +0.000 NA
ATOM      5  C   UNL     1       5.857   4.730  15.643  0.00  0.00    +0.000 A 
ATOM      6  C   UNL     1       7.009   5.395  15.265  0.00  0.00    +0.000 A 
ATOM      7  N   UNL     1       7.468   6.150  16.313  0.00  0.00    +0.000 NA
ATOM      8  N   UNL     1       6.638   5.978  17.338  0.00  0.00    +0.000 NA
ATOM      9  N   UNL     1       5.665   5.126  16.937  0.00  0.00    +0.000 N 
ENDROOT
BRANCH   9  10
ATOM     10  C   UNL     1       4.616   4.713  17.837  0.00  0.00    +0.000 C 
ATOM     11  C   UNL     1       3.293   5.438  17.605  0.00  0.00    +0.000 C 
ATOM     12  C   UNL     1       2.270   4.582  18.341  0.00  0.00    +0.000 C 
ATOM     13  C   UNL     1       2.816   3.145  18.341  0.00  0.00    +0.000 C 
ATOM     14  C   UNL     1       4.222   3.236  17.721  0.00  0.00    +0.000 C 
BRANCH  13  15
ATOM     15  C   UNL     1       2.832   2.528  19.742  0.00  0.00    +0.000 C 
BRANCH  15  16
ATOM     16  P   UNL     1       1.800   3.343  20.959  0.00  0.00    +0.000 P 
ATOM     17  O   UNL     1       2.205   4.715  21.373  0.00  0.00    +0.000 OA
BRANCH  16  18
ATOM     18  O   UNL     1       0.305   3.245  20.403  0.00  0.00    +0.000 OA
ATOM     19  H   UNL     1      -0.007   3.981  19.848  0.00  0.00    +0.000 HD
ENDBRANCH  16  18
BRANCH  16  20
ATOM     20  O   UNL     1       1.738   2.294  22.167  0.00  0.00    +0.000 OA
ATOM     21  H   UNL     1       0.835   1.932  22.269  0.00  0.00    +0.000 HD
ENDBRANCH  16  20
ENDBRANCH  15  16
ENDBRANCH  13  15
ENDBRANCH   9  10
BRANCH   1  22
ATOM     22  N   UNL     1       8.596   5.785  13.422  0.00  0.00    +0.000 N 
ATOM     23  H   UNL     1       8.594   6.790  13.536  0.00  0.00    +0.000 HD
ATOM     24  H   UNL     1       8.910   5.411  12.534  0.00  0.00    +0.000 HD
ENDBRANCH   1  22
TORSDOF 6
ENDMDL
MODEL 4
REMARK VINA RESULT:      -6.5      1.073      2.146
REMARK  Name = 
REMARK  6 active torsions:
REMARK  status: ('A' for Active; 'I' for Inactive)
REMARK    1  A    between atoms: N_1  and  C_2
REMARK    2  A    between atoms: N_10  and  C_11
REMARK    3  A    between atoms: C_14  and  C_15
REMARK    4  A    between atoms: C_15  and  P_16
REMARK    5  A    between atoms: P_16  and  O_18
REMARK    6  A    between atoms: P_16  and  O_19
REMARK                            x       y       z     vdW  Elec       q    Type
REMARK                         _______ _______ _______ _____ _____    ______ ____
ROOT
ATOM      1  C   UNL     1       0.892  10.023  19.905  0.00  0.00    +0.000 A 
ATOM      2  N   UNL     1       1.276  10.607  18.745  0.00  0.00    +0.000 NA
ATOM      3  C   UNL     1       1.985   9.877  17.856  0.00  0.00    +0.000 A 
ATOM      4  N   UNL     1       2.395   8.596  17.966  0.00  0.00    +0.000 NA
ATOM      5  C   UNL     1       2.002   8.070  19.138  0.00  0.00    +0.000 A 
ATOM      6  C   UNL     1       1.273   8.694  20.134  0.00  0.00    +0.000 A 
ATOM      7  N   UNL     1       1.082   7.825  21.177  0.00  0.00    +0.000 NA
ATOM      8  N   UNL     1       1.670   6.674  20.865  0.00  0.00    +0.000 NA
ATOM      9  N   UNL     1       2.222   6.816  19.637  0.00  0.00    +0.000 N 
ENDROOT
BRANCH   9  10
ATOM     10  C   UNL     1       2.962   5.742  19.021  0.00  0.00    +0.000 C 
ATOM     11  C   UNL     1       2.123   4.886  18.077  0.00  0.00    +0.000 C 
ATOM     12  C   UNL     1       3.154   4.122  17.256  0.00  0.00    +0.000 C 
ATOM     13  C   UNL     1       4.415   5.000  17.207  0.00  0.00    +0.000 C 
ATOM     14  C   UNL     1       4.123   6.197  18.130  0.00  0.00    +0.000 C 
BRANCH  13  15
ATOM     15  C   UNL     1       5.674   4.234  17.622  0.00  0.00    +0.000 C 
BRANCH  15  16
ATOM     16  P   UNL     1       7.212   5.146  17.494  0.00  0.00    +0.000 P 
ATOM     17  O   UNL     1       7.398   5.980  16.275  0.00  0.00    +0.000 OA
BRANCH  16  18
ATOM     18  O   UNL     1       7.358   5.954  18.865  0.00  0.00    +0.000 OA
ATOM     19  H   UNL     1       7.857   6.789  18.832  0.00  0.00    +0.000 HD
ENDBRANCH  16  18
BRANCH  16  20
ATOM     20  O   UNL     1       8.336   4.023  17.689  0.00  0.00    +0.000 OA
ATOM     21  H   UNL     1       8.023   3.156  17.363  0.00  0.00    +0.000 HD
ENDBRANCH  16  20
ENDBRANCH  15  16
ENDBRANCH  13  15
ENDBRANCH   9  10
BRANCH   1  22
ATOM     22  N   UNL     1       0.148  10.783  20.796  0.00  0.00    +0.000 N 
ATOM     23  H   UNL     1      -0.159  10.252  21.601  0.00  0.00    +0.000 HD
ATOM     24  H   UNL     1      -0.510  11.428  20.376  0.00  0.00    +0.000 HD
ENDBRANCH   1  22
TORSDOF 6
ENDMDL
MODEL 5
REMARK VINA RESULT:      -6.5      5.769      7.547
REMARK  Name = 
REMARK  6 active torsions:
REMARK  status: ('A' for Active; 'I' for Inactive)
REMARK    1  A    between atoms: N_1  and  C_2
REMARK    2  A    between atoms: N_10  and  C_11
REMARK    3  A    between atoms: C_14  and  C_15
REMARK    4  A    between atoms: C_15  and  P_16
REMARK    5  A    between atoms: P_16  and  O_18
REMARK    6  A    between atoms: P_16  and  O_19
REMARK                            x       y       z     vdW  Elec       q    Type
REMARK                         _______ _______ _______ _____ _____    ______ ____
ROOT
ATOM      1  C   UNL     1       3.267   1.874  18.605  0.00  0.00    +0.000 A 
ATOM      2  N   UNL     1       1.928   1.701  18.497  0.00  0.00    +0.000 NA
ATOM      3  C   UNL     1       1.121   2.771  18.675  0.00  0.00    +0.000 A 
ATOM      4  N   UNL     1       1.468   4.040  18.971  0.00  0.00    +0.000 NA
ATOM      5  C   UNL     1       2.803   4.153  19.081  0.00  0.00    +0.000 A 
ATOM      6  C   UNL     1       3.745   3.153  18.923  0.00  0.00    +0.000 A 
ATOM      7  N   UNL     1       4.999   3.667  19.126  0.00  0.00    +0.000 NA
ATOM      8  N   UNL     1       4.872   4.961  19.408  0.00  0.00    +0.000 NA
ATOM      9  N   UNL     1       3.552   5.258  19.379  0.00  0.00    +0.000 N 
ENDROOT
BRANCH   9  10
ATOM     10  C   UNL     1       3.079   6.589  19.672  0.00  0.00    +0.000 C 
ATOM     11  C   UNL     1       2.637   7.365  18.435  0.00  0.00    +0.000 C 
ATOM     12  C   UNL     1       1.818   8.520  18.997  0.00  0.00    +0.000 C 
ATOM     13  C   UNL     1       1.224   8.031  20.328  0.00  0.00    +0.000 C 
ATOM     14  C   UNL     1       1.838   6.640  20.570  0.00  0.00    +0.000 C 
BRANCH  13  15
ATOM     15  C   UNL     1       1.499   9.002  21.480  0.00  0.00    +0.000 C 
BRANCH  15  16
ATOM     16  P   UNL     1       0.069   9.478  22.449  0.00  0.00    +0.000 P 
ATOM     17  O   UNL     1       0.315   9.859  23.867  0.00  0.00    +0.000 OA
BRANCH  16  18
ATOM     18  O   UNL     1      -0.686  10.598  21.594  0.00  0.00    +0.000 OA
ATOM     19  H   UNL     1      -1.349  10.289  20.953  0.00  0.00    +0.000 HD
ENDBRANCH  16  18
BRANCH  16  20
ATOM     20  O   UNL     1      -0.936   8.243  22.275  0.00  0.00    +0.000 OA
ATOM     21  H   UNL     1      -1.772   8.530  21.859  0.00  0.00    +0.000 HD
ENDBRANCH  16  20
ENDBRANCH  15  16
ENDBRANCH  13  15
ENDBRANCH   9  10
BRANCH   1  22
ATOM     22  N   UNL     1       4.080   0.769  18.400  0.00  0.00    +0.000 N 
ATOM     23  H   UNL     1       3.588  -0.106  18.528  0.00  0.00    +0.000 HD
ATOM     24  H   UNL     1       5.019   0.843  18.773  0.00  0.00    +0.000 HD
ENDBRANCH   1  22
TORSDOF 6
ENDMDL
MODEL 6
REMARK VINA RESULT:      -6.5      5.391      7.522
REMARK  Name = 
REMARK  6 active torsions:
REMARK  status: ('A' for Active; 'I' for Inactive)
REMARK    1  A    between atoms: N_1  and  C_2
REMARK    2  A    between atoms: N_10  and  C_11
REMARK    3  A    between atoms: C_14  and  C_15
REMARK    4  A    between atoms: C_15  and  P_16
REMARK    5  A    between atoms: P_16  and  O_18
REMARK    6  A    between atoms: P_16  and  O_19
REMARK                            x       y       z     vdW  Elec       q    Type
REMARK                         _______ _______ _______ _____ _____    ______ ____
ROOT
ATOM      1  C   UNL     1       7.561   5.163  13.600  0.00  0.00    +0.000 A 
ATOM      2  N   UNL     1       6.895   4.316  12.779  0.00  0.00    +0.000 NA
ATOM      3  C   UNL     1       5.798   3.684  13.253  0.00  0.00    +0.000 A 
ATOM      4  N   UNL     1       5.251   3.768  14.483  0.00  0.00    +0.000 NA
ATOM      5  C   UNL     1       5.957   4.608  15.260  0.00  0.00    +0.000 A 
ATOM      6  C   UNL     1       7.089   5.321  14.910  0.00  0.00    +0.000 A 
ATOM      7  N   UNL     1       7.517   6.058  15.984  0.00  0.00    +0.000 NA
ATOM      8  N   UNL     1       6.687   5.827  16.997  0.00  0.00    +0.000 NA
ATOM      9  N   UNL     1       5.744   4.957  16.565  0.00  0.00    +0.000 N 
ENDROOT
BRANCH   9  10
ATOM     10  C   UNL     1       4.704   4.483  17.444  0.00  0.00    +0.000 C 
ATOM     11  C   UNL     1       5.150   4.344  18.897  0.00  0.00    +0.000 C 
ATOM     12  C   UNL     1       3.845   4.247  19.676  0.00  0.00    +0.000 C 
ATOM     13  C   UNL     1       2.788   5.008  18.860  0.00  0.00    +0.000 C 
ATOM     14  C   UNL     1       3.486   5.407  17.547  0.00  0.00    +0.000 C 
BRANCH  13  15
ATOM     15  C   UNL     1       1.525   4.175  18.622  0.00  0.00    +0.000 C 
BRANCH  15  16
ATOM     16  P   UNL     1       1.680   2.421  18.960  0.00  0.00    +0.000 P 
ATOM     17  O   UNL     1       2.875   1.732  18.400  0.00  0.00    +0.000 OA
BRANCH  16  18
ATOM     18  O   UNL     1       1.517   2.264  20.542  0.00  0.00    +0.000 OA
ATOM     19  H   UNL     1       2.332   2.120  21.055  0.00  0.00    +0.000 HD
ENDBRANCH  16  18
BRANCH  16  20
ATOM     20  O   UNL     1       0.286   1.814  18.455  0.00  0.00    +0.000 OA
ATOM     21  H   UNL     1      -0.408   2.502  18.439  0.00  0.00    +0.000 HD
ENDBRANCH  16  20
ENDBRANCH  15  16
ENDBRANCH  13  15
ENDBRANCH   9  10
BRANCH   1  22
ATOM     22  N   UNL     1       8.673   5.817  13.090  0.00  0.00    +0.000 N 
ATOM     23  H   UNL     1       8.893   6.665  13.596  0.00  0.00    +0.000 HD
ATOM     24  H   UNL     1       8.741   5.838  12.080  0.00  0.00    +0.000 HD
ENDBRANCH   1  22
TORSDOF 6
ENDMDL
MODEL 7
REMARK VINA RESULT:      -6.3      4.673      6.787
REMARK  Name = 
REMARK  6 active torsions:
REMARK  status: ('A' for Active; 'I' for Inactive)
REMARK    1  A    between atoms: N_1  and  C_2
REMARK    2  A    between atoms: N_10  and  C_11
REMARK    3  A    between atoms: C_14  and  C_15
REMARK    4  A    between atoms: C_15  and  P_16
REMARK    5  A    between atoms: P_16  and  O_18
REMARK    6  A    between atoms: P_16  and  O_19
REMARK                            x       y       z     vdW  Elec       q    Type
REMARK                         _______ _______ _______ _____ _____    ______ ____
ROOT
ATOM      1  C   UNL     1       7.208   5.277  15.523  0.00  0.00    +0.000 A 
ATOM      2  N   UNL     1       7.960   4.457  16.296  0.00  0.00    +0.000 NA
ATOM      3  C   UNL     1       7.521   4.158  17.539  0.00  0.00    +0.000 A 
ATOM      4  N   UNL     1       6.399   4.585  18.155  0.00  0.00    +0.000 NA
ATOM      5  C   UNL     1       5.700   5.405  17.352  0.00  0.00    +0.000 A 
ATOM      6  C   UNL     1       6.023   5.793  16.064  0.00  0.00    +0.000 A 
ATOM      7  N   UNL     1       5.060   6.644  15.586  0.00  0.00    +0.000 NA
ATOM      8  N   UNL     1       4.142   6.800  16.535  0.00  0.00    +0.000 NA
ATOM      9  N   UNL     1       4.522   6.054  17.599  0.00  0.00    +0.000 N 
ENDROOT
BRANCH   9  10
ATOM     10  C   UNL     1       3.743   6.031  18.813  0.00  0.00    +0.000 C 
ATOM     11  C   UNL     1       2.858   7.261  18.992  0.00  0.00    +0.000 C 
ATOM     12  C   UNL     1       1.860   6.845  20.065  0.00  0.00    +0.000 C 
ATOM     13  C   UNL     1       1.710   5.319  19.958  0.00  0.00    +0.000 C 
ATOM     14  C   UNL     1       2.743   4.873  18.907  0.00  0.00    +0.000 C 
BRANCH  13  15
ATOM     15  C   UNL     1       1.905   4.617  21.305  0.00  0.00    +0.000 C 
BRANCH  15  16
ATOM     16  P   UNL     1       1.890   2.826  21.255  0.00  0.00    +0.000 P 
ATOM     17  O   UNL     1       1.336   2.194  20.025  0.00  0.00    +0.000 OA
BRANCH  16  18
ATOM     18  O   UNL     1       3.378   2.364  21.612  0.00  0.00    +0.000 OA
ATOM     19  H   UNL     1       3.728   1.598  21.127  0.00  0.00    +0.000 HD
ENDBRANCH  16  18
BRANCH  16  20
ATOM     20  O   UNL     1       1.120   2.416  22.597  0.00  0.00    +0.000 OA
ATOM     21  H   UNL     1       1.539   2.826  23.379  0.00  0.00    +0.000 HD
ENDBRANCH  16  20
ENDBRANCH  15  16
ENDBRANCH  13  15
ENDBRANCH   9  10
BRANCH   1  22
ATOM     22  N   UNL     1       7.665   5.557  14.244  0.00  0.00    +0.000 N 
ATOM     23  H   UNL     1       8.543   5.098  14.034  0.00  0.00    +0.000 HD
ATOM     24  H   UNL     1       7.549   6.516  13.939  0.00  0.00    +0.000 HD
ENDBRANCH   1  22
TORSDOF 6
ENDMDL
MODEL 8
REMARK VINA RESULT:      -6.3      5.692      7.405
REMARK  Name = 
REMARK  6 active torsions:
REMARK  status: ('A' for Active; 'I' for Inactive)
REMARK    1  A    between atoms: N_1  and  C_2
REMARK    2  A    between atoms: N_10  and  C_11
REMARK    3  A    between atoms: C_14  and  C_15
REMARK    4  A    between atoms: C_15  and  P_16
REMARK    5  A    between atoms: P_16  and  O_18
REMARK    6  A    between atoms: P_16  and  O_19
REMARK                            x       y       z     vdW  Elec       q    Type
REMARK                         _______ _______ _______ _____ _____    ______ ____
ROOT
ATOM      1  C   UNL     1       4.594   4.313  18.944  0.00  0.00    +0.000 A 
ATOM      2  N   UNL     1       3.876   3.576  19.825  0.00  0.00    +0.000 NA
ATOM      3  C   UNL     1       2.696   4.066  20.267  0.00  0.00    +0.000 A 
ATOM      4  N   UNL     1       2.108   5.239  19.953  0.00  0.00    +0.000 NA
ATOM      5  C   UNL     1       2.867   5.935  19.090  0.00  0.00    +0.000 A 
ATOM      6  C   UNL     1       4.086   5.559  18.555  0.00  0.00    +0.000 A 
ATOM      7  N   UNL     1       4.545   6.547  17.723  0.00  0.00    +0.000 NA
ATOM      8  N   UNL     1       3.651   7.531  17.720  0.00  0.00    +0.000 NA
ATOM      9  N   UNL     1       2.638   7.165  18.540  0.00  0.00    +0.000 N 
ENDROOT
BRANCH   9  10
ATOM     10  C   UNL     1       1.514   8.038  18.775  0.00  0.00    +0.000 C 
ATOM     11  C   UNL     1       1.497   8.648  20.174  0.00  0.00    +0.000 C 
ATOM     12  C   UNL     1       0.515   9.806  20.060  0.00  0.00    +0.000 C 
ATOM     13  C   UNL     1       0.552  10.273  18.596  0.00  0.00    +0.000 C 
ATOM     14  C   UNL     1       1.462   9.269  17.864  0.00  0.00    +0.000 C 
BRANCH  13  15
ATOM     15  C   UNL     1      -0.845  10.358  17.975  0.00  0.00    +0.000 C 
BRANCH  15  16
ATOM     16  P   UNL     1      -1.733  11.886  18.274  0.00  0.00    +0.000 P 
ATOM     17  O   UNL     1      -2.120  12.172  19.683  0.00  0.00    +0.000 OA
BRANCH  16  18
ATOM     18  O   UNL     1      -0.865  13.039  17.588  0.00  0.00    +0.000 OA
ATOM     19  H   UNL     1      -0.598  12.896  16.663  0.00  0.00    +0.000 HD
ENDBRANCH  16  18
BRANCH  16  20
ATOM     20  O   UNL     1      -2.974  11.806  17.265  0.00  0.00    +0.000 OA
ATOM     21  H   UNL     1      -3.547  11.043  17.477  0.00  0.00    +0.000 HD
ENDBRANCH  16  20
ENDBRANCH  15  16
ENDBRANCH  13  15
ENDBRANCH   9  10
BRANCH   1  22
ATOM     22  N   UNL     1       5.793   3.785  18.488  0.00  0.00    +0.000 N 
ATOM     23  H   UNL     1       5.901   3.871  17.485  0.00  0.00    +0.000 HD
ATOM     24  H   UNL     1       6.081   2.916  18.921  0.00  0.00    +0.000 HD
ENDBRANCH   1  22
TORSDOF 6
ENDMDL
MODEL 9
REMARK VINA RESULT:      -6.3      4.970      7.097
REMARK  Name = 
REMARK  6 active torsions:
REMARK  status: ('A' for Active; 'I' for Inactive)
REMARK    1  A    between atoms: N_1  and  C_2
REMARK    2  A    between atoms: N_10  and  C_11
REMARK    3  A    between atoms: C_14  and  C_15
REMARK    4  A    between atoms: C_15  and  P_16
REMARK    5  A    between atoms: P_16  and  O_18
REMARK    6  A    between atoms: P_16  and  O_19
REMARK                            x       y       z     vdW  Elec       q    Type
REMARK                         _______ _______ _______ _____ _____    ______ ____
ROOT
ATOM      1  C   UNL     1       7.258   5.128  14.379  0.00  0.00    +0.000 A 
ATOM      2  N   UNL     1       6.420   4.226  13.814  0.00  0.00    +0.000 NA
ATOM      3  C   UNL     1       5.261   3.935  14.445  0.00  0.00    +0.000 A 
ATOM      4  N   UNL     1       4.801   4.425  15.615  0.00  0.00    +0.000 NA
ATOM      5  C   UNL     1       5.675   5.301  16.139  0.00  0.00    +0.000 A 
ATOM      6  C   UNL     1       6.889   5.695  15.606  0.00  0.00    +0.000 A 
ATOM      7  N   UNL     1       7.488   6.597  16.446  0.00  0.00    +0.000 NA
ATOM      8  N   UNL     1       6.687   6.781  17.491  0.00  0.00    +0.000 NA
ATOM      9  N   UNL     1       5.592   6.005  17.309  0.00  0.00    +0.000 N 
ENDROOT
BRANCH   9  10
ATOM     10  C   UNL     1       4.537   5.959  18.290  0.00  0.00    +0.000 C 
ATOM     11  C   UNL     1       3.316   6.793  17.913  0.00  0.00    +0.000 C 
ATOM     12  C   UNL     1       2.218   6.281  18.836  0.00  0.00    +0.000 C 
ATOM     13  C   UNL     1       2.564   4.818  19.160  0.00  0.00    +0.000 C 
ATOM     14  C   UNL     1       3.941   4.566  18.521  0.00  0.00    +0.000 C 
BRANCH  13  15
ATOM     15  C   UNL     1       2.556   4.537  20.665  0.00  0.00    +0.000 C 
BRANCH  15  16
ATOM     16  P   UNL     1       2.304   2.825  21.131  0.00  0.00    +0.000 P 
ATOM     17  O   UNL     1       1.451   2.573  22.326  0.00  0.00    +0.000 OA
BRANCH  16  18
ATOM     18  O   UNL     1       1.810   2.078  19.807  0.00  0.00    +0.000 OA
ATOM     19  H   UNL     1       2.463   1.971  19.094  0.00  0.00    +0.000 HD
ENDBRANCH  16  18
BRANCH  16  20
ATOM     20  O   UNL     1       3.791   2.246  21.263  0.00  0.00    +0.000 OA
ATOM     21  H   UNL     1       3.835   1.550  21.948  0.00  0.00    +0.000 HD
ENDBRANCH  16  20
ENDBRANCH  15  16
ENDBRANCH  13  15
ENDBRANCH   9  10
BRANCH   1  22
ATOM     22  N   UNL     1       8.434   5.427  13.706  0.00  0.00    +0.000 N 
ATOM     23  H   UNL     1       9.071   5.985  14.262  0.00  0.00    +0.000 HD
ATOM     24  H   UNL     1       8.328   5.666  12.728  0.00  0.00    +0.000 HD
ENDBRANCH   1  22
TORSDOF 6
ENDMDL
