MODEL 1
REMARK VINA RESULT:      -8.6      0.000      0.000
REMARK  Name = 
REMARK  6 active torsions:
REMARK  status: ('A' for Active; 'I' for Inactive)
REMARK    1  A    between atoms: C_1  and  C_2
REMARK    2  A    between atoms: C_2  and  C_3
REMARK    3  A    between atoms: C_7  and  C_8
REMARK    4  A    between atoms: C_8  and  N_9
REMARK    5  A    between atoms: C_11  and  C_12
REMARK    6  A    between atoms: C_20  and  O_21
REMARK                            x       y       z     vdW  Elec       q    Type
REMARK                         _______ _______ _______ _____ _____    ______ ____
ROOT
ATOM      1  C   UNL     1       1.478   2.429  20.166  0.00  0.00    +0.000 C 
ATOM      2  C   UNL     1       1.974   3.821  19.777  0.00  0.00    +0.000 C 
ATOM      3  C   UNL     1       1.075   4.902  20.359  0.00  0.00    +0.000 C 
ATOM      4  O   UNL     1       1.989   3.927  18.355  0.00  0.00    +0.000 OA
ATOM      5  C   UNL     1       3.337   3.742  17.950  0.00  0.00    +0.000 C 
ATOM      6  O   UNL     1       3.828   4.873  17.213  0.00  0.00    +0.000 OA
ATOM      7  C   UNL     1       4.601   5.675  18.133  0.00  0.00    +0.000 C 
ATOM      8  C   UNL     1       5.277   4.630  19.023  0.00  0.00    +0.000 C 
ATOM      9  C   UNL     1       4.164   3.618  19.218  0.00  0.00    +0.000 C 
ATOM     10  O   UNL     1       3.298   4.008  20.283  0.00  0.00    +0.000 OA
ENDROOT
BRANCH   8  11
ATOM     11  O   UNL     1       6.389   4.012  18.362  0.00  0.00    +0.000 OA
ATOM     12  H   UNL     1       6.914   4.703  17.918  0.00  0.00    +0.000 HD
ENDBRANCH   8  11
BRANCH   7  13
ATOM     13  C   UNL     1       5.588   6.561  17.384  0.00  0.00    +0.000 C 
BRANCH  13  14
ATOM     14  N   UNL     1       6.079   5.931  16.176  0.00  0.00    +0.000 N 
ATOM     15  C   UNL     1       5.344   5.275  15.236  0.00  0.00    +0.000 A 
ATOM     16  C   UNL     1       6.286   4.775  14.370  0.00  0.00    +0.000 A 
ATOM     17  N   UNL     1       7.535   5.141  14.804  0.00  0.00    +0.000 NA
ATOM     18  N   UNL     1       7.396   5.852  15.919  0.00  0.00    +0.000 NA
BRANCH  16  19
ATOM     19  C   UNL     1       6.071   3.964  13.212  0.00  0.00    +0.000 C 
ATOM     20  C   UNL     1       4.857   3.718  12.677  0.00  0.00    +0.000 C 
ATOM     21  C   UNL     1       4.622   2.812  11.506  0.00  0.00    +0.000 C 
ATOM     22  C   UNL     1       5.816   1.908  11.211  0.00  0.00    +0.000 C 
ATOM     23  C   UNL     1       7.115   2.703  11.249  0.00  0.00    +0.000 C 
ATOM     24  C   UNL     1       7.329   3.366  12.617  0.00  0.00    +0.000 C 
ENDBRANCH  16  19
ENDBRANCH  13  14
ENDBRANCH   7  13
TORSDOF 4
ENDMDL
MODEL 2
REMARK VINA RESULT:      -8.4      1.128      1.771
REMARK  Name = 
REMARK  6 active torsions:
REMARK  status: ('A' for Active; 'I' for Inactive)
REMARK    1  A    between atoms: C_1  and  C_2
REMARK    2  A    between atoms: C_2  and  C_3
REMARK    3  A    between atoms: C_7  and  C_8
REMARK    4  A    between atoms: C_8  and  N_9
REMARK    5  A    between atoms: C_11  and  C_12
REMARK    6  A    between atoms: C_20  and  O_21
REMARK                            x       y       z     vdW  Elec       q    Type
REMARK                         _______ _______ _______ _____ _____    ______ ____
ROOT
ATOM      1  C   UNL     1       0.762   4.131  20.134  0.00  0.00    +0.000 C 
ATOM      2  C   UNL     1       2.038   3.715  19.403  0.00  0.00    +0.000 C 
ATOM      3  C   UNL     1       1.994   2.242  19.025  0.00  0.00    +0.000 C 
ATOM      4  O   UNL     1       3.157   3.957  20.253  0.00  0.00    +0.000 OA
ATOM      5  C   UNL     1       3.745   5.171  19.812  0.00  0.00    +0.000 C 
ATOM      6  O   UNL     1       5.120   4.988  19.437  0.00  0.00    +0.000 OA
ATOM      7  C   UNL     1       5.156   4.876  17.997  0.00  0.00    +0.000 C 
ATOM      8  C   UNL     1       4.067   5.852  17.546  0.00  0.00    +0.000 C 
ATOM      9  C   UNL     1       2.979   5.606  18.574  0.00  0.00    +0.000 C 
ATOM     10  O   UNL     1       2.171   4.489  18.209  0.00  0.00    +0.000 OA
ENDROOT
BRANCH   8  11
ATOM     11  O   UNL     1       4.512   7.213  17.621  0.00  0.00    +0.000 OA
ATOM     12  H   UNL     1       5.294   7.255  18.201  0.00  0.00    +0.000 HD
ENDBRANCH   8  11
BRANCH   7  13
ATOM     13  C   UNL     1       6.538   5.221  17.460  0.00  0.00    +0.000 C 
BRANCH  13  14
ATOM     14  N   UNL     1       6.634   5.020  16.029  0.00  0.00    +0.000 N 
ATOM     15  C   UNL     1       6.012   4.057  15.293  0.00  0.00    +0.000 A 
ATOM     16  C   UNL     1       6.520   4.229  14.028  0.00  0.00    +0.000 A 
ATOM     17  N   UNL     1       7.412   5.271  14.040  0.00  0.00    +0.000 NA
ATOM     18  N   UNL     1       7.477   5.750  15.279  0.00  0.00    +0.000 NA
BRANCH  16  19
ATOM     19  C   UNL     1       6.241   3.457  12.857  0.00  0.00    +0.000 C 
ATOM     20  C   UNL     1       5.013   3.331  12.311  0.00  0.00    +0.000 C 
ATOM     21  C   UNL     1       4.706   2.467  11.126  0.00  0.00    +0.000 C 
ATOM     22  C   UNL     1       5.813   1.461  10.825  0.00  0.00    +0.000 C 
ATOM     23  C   UNL     1       7.179   2.133  10.884  0.00  0.00    +0.000 C 
ATOM     24  C   UNL     1       7.443   2.754  12.262  0.00  0.00    +0.000 C 
ENDBRANCH  16  19
ENDBRANCH  13  14
ENDBRANCH   7  13
TORSDOF 4
ENDMDL
MODEL 3
REMARK VINA RESULT:      -8.3      1.246      1.946
REMARK  Name = 
REMARK  6 active torsions:
REMARK  status: ('A' for Active; 'I' for Inactive)
REMARK    1  A    between atoms: C_1  and  C_2
REMARK    2  A    between atoms: C_2  and  C_3
REMARK    3  A    between atoms: C_7  and  C_8
REMARK    4  A    between atoms: C_8  and  N_9
REMARK    5  A    between atoms: C_11  and  C_12
REMARK    6  A    between atoms: C_20  and  O_21
REMARK                            x       y       z     vdW  Elec       q    Type
REMARK                         _______ _______ _______ _____ _____    ______ ____
ROOT
ATOM      1  C   UNL     1       1.109   2.878  20.681  0.00  0.00    +0.000 C 
ATOM      2  C   UNL     1       2.133   3.189  19.590  0.00  0.00    +0.000 C 
ATOM      3  C   UNL     1       2.392   1.967  18.722  0.00  0.00    +0.000 C 
ATOM      4  O   UNL     1       3.351   3.605  20.204  0.00  0.00    +0.000 OA
ATOM      5  C   UNL     1       3.383   5.022  20.117  0.00  0.00    +0.000 C 
ATOM      6  O   UNL     1       4.546   5.483  19.411  0.00  0.00    +0.000 OA
ATOM      7  C   UNL     1       4.133   5.777  18.059  0.00  0.00    +0.000 C 
ATOM      8  C   UNL     1       2.724   6.346  18.242  0.00  0.00    +0.000 C 
ATOM      9  C   UNL     1       2.159   5.442  19.321  0.00  0.00    +0.000 C 
ATOM     10  O   UNL     1       1.634   4.240  18.760  0.00  0.00    +0.000 OA
ENDROOT
BRANCH   8  11
ATOM     11  O   UNL     1       2.758   7.701  18.707  0.00  0.00    +0.000 OA
ATOM     12  H   UNL     1       1.851   8.057  18.703  0.00  0.00    +0.000 HD
ENDBRANCH   8  11
BRANCH   7  13
ATOM     13  C   UNL     1       5.097   6.752  17.396  0.00  0.00    +0.000 C 
BRANCH  13  14
ATOM     14  N   UNL     1       5.807   6.150  16.287  0.00  0.00    +0.000 N 
ATOM     15  C   UNL     1       5.264   5.481  15.233  0.00  0.00    +0.000 A 
ATOM     16  C   UNL     1       6.356   5.020  14.537  0.00  0.00    +0.000 A 
ATOM     17  N   UNL     1       7.500   5.419  15.180  0.00  0.00    +0.000 NA
ATOM     18  N   UNL     1       7.150   6.114  16.259  0.00  0.00    +0.000 NA
BRANCH  16  19
ATOM     19  C   UNL     1       6.368   4.213  13.356  0.00  0.00    +0.000 C 
ATOM     20  C   UNL     1       5.370   3.376  13.003  0.00  0.00    +0.000 C 
ATOM     21  C   UNL     1       5.410   2.479  11.803  0.00  0.00    +0.000 C 
ATOM     22  C   UNL     1       6.816   2.321  11.232  0.00  0.00    +0.000 C 
ATOM     23  C   UNL     1       7.513   3.672  11.137  0.00  0.00    +0.000 C 
ATOM     24  C   UNL     1       7.616   4.350  12.510  0.00  0.00    +0.000 C 
ENDBRANCH  16  19
ENDBRANCH  13  14
ENDBRANCH   7  13
TORSDOF 4
ENDMDL
MODEL 4
REMARK VINA RESULT:      -8.2      3.347      6.016
REMARK  Name = 
REMARK  6 active torsions:
REMARK  status: ('A' for Active; 'I' for Inactive)
REMARK    1  A    between atoms: C_1  and  C_2
REMARK    2  A    between atoms: C_2  and  C_3
REMARK    3  A    between atoms: C_7  and  C_8
REMARK    4  A    between atoms: C_8  and  N_9
REMARK    5  A    between atoms: C_11  and  C_12
REMARK    6  A    between atoms: C_20  and  O_21
REMARK                            x       y       z     vdW  Elec       q    Type
REMARK                         _______ _______ _______ _____ _____    ______ ____
ROOT
ATOM      1  C   UNL     1       1.088   3.810  19.645  0.00  0.00    +0.000 C 
ATOM      2  C   UNL     1       2.601   3.694  19.827  0.00  0.00    +0.000 C 
ATOM      3  C   UNL     1       2.939   2.866  21.058  0.00  0.00    +0.000 C 
ATOM      4  O   UNL     1       3.152   5.001  19.965  0.00  0.00    +0.000 OA
ATOM      5  C   UNL     1       3.706   5.341  18.702  0.00  0.00    +0.000 C 
ATOM      6  O   UNL     1       5.108   5.638  18.802  0.00  0.00    +0.000 OA
ATOM      7  C   UNL     1       5.823   4.455  18.384  0.00  0.00    +0.000 C 
ATOM      8  C   UNL     1       4.946   3.897  17.260  0.00  0.00    +0.000 C 
ATOM      9  C   UNL     1       3.550   4.121  17.811  0.00  0.00    +0.000 C 
ATOM     10  O   UNL     1       3.166   3.057  18.679  0.00  0.00    +0.000 OA
ENDROOT
BRANCH   8  11
ATOM     11  O   UNL     1       5.115   4.636  16.043  0.00  0.00    +0.000 OA
ATOM     12  H   UNL     1       5.964   4.383  15.638  0.00  0.00    +0.000 HD
ENDBRANCH   8  11
BRANCH   7  13
ATOM     13  C   UNL     1       7.235   4.804  17.933  0.00  0.00    +0.000 C 
BRANCH  13  14
ATOM     14  N   UNL     1       7.401   6.225  17.708  0.00  0.00    +0.000 N 
ATOM     15  C   UNL     1       8.209   7.075  18.400  0.00  0.00    +0.000 A 
ATOM     16  C   UNL     1       7.914   8.310  17.875  0.00  0.00    +0.000 A 
ATOM     17  N   UNL     1       6.960   8.168  16.900  0.00  0.00    +0.000 NA
ATOM     18  N   UNL     1       6.648   6.879  16.807  0.00  0.00    +0.000 NA
BRANCH  16  19
ATOM     19  C   UNL     1       8.447   9.579  18.264  0.00  0.00    +0.000 C 
ATOM     20  C   UNL     1       8.360  10.697  17.513  0.00  0.00    +0.000 C 
ATOM     21  C   UNL     1       8.977  12.010  17.888  0.00  0.00    +0.000 C 
ATOM     22  C   UNL     1      10.019  11.879  18.995  0.00  0.00    +0.000 C 
ATOM     23  C   UNL     1       9.500  10.988  20.117  0.00  0.00    +0.000 C 
ATOM     24  C   UNL     1       9.150   9.584  19.605  0.00  0.00    +0.000 C 
ENDBRANCH  16  19
ENDBRANCH  13  14
ENDBRANCH   7  13
TORSDOF 4
ENDMDL
MODEL 5
REMARK VINA RESULT:      -8.0      1.002      1.046
REMARK  Name = 
REMARK  6 active torsions:
REMARK  status: ('A' for Active; 'I' for Inactive)
REMARK    1  A    between atoms: C_1  and  C_2
REMARK    2  A    between atoms: C_2  and  C_3
REMARK    3  A    between atoms: C_7  and  C_8
REMARK    4  A    between atoms: C_8  and  N_9
REMARK    5  A    between atoms: C_11  and  C_12
REMARK    6  A    between atoms: C_20  and  O_21
REMARK                            x       y       z     vdW  Elec       q    Type
REMARK                         _______ _______ _______ _____ _____    ______ ____
ROOT
ATOM      1  C   UNL     1       2.075   2.238  20.272  0.00  0.00    +0.000 C 
ATOM      2  C   UNL     1       2.400   3.281  19.203  0.00  0.00    +0.000 C 
ATOM      3  C   UNL     1       1.145   3.703  18.455  0.00  0.00    +0.000 C 
ATOM      4  O   UNL     1       3.339   2.725  18.285  0.00  0.00    +0.000 OA
ATOM      5  C   UNL     1       4.611   3.242  18.645  0.00  0.00    +0.000 C 
ATOM      6  O   UNL     1       5.220   3.954  17.556  0.00  0.00    +0.000 OA
ATOM      7  C   UNL     1       4.991   5.361  17.789  0.00  0.00    +0.000 C 
ATOM      8  C   UNL     1       5.096   5.483  19.312  0.00  0.00    +0.000 C 
ATOM      9  C   UNL     1       4.380   4.229  19.776  0.00  0.00    +0.000 C 
ATOM     10  O   UNL     1       2.969   4.434  19.827  0.00  0.00    +0.000 OA
ENDROOT
BRANCH   8  11
ATOM     11  O   UNL     1       6.461   5.458  19.751  0.00  0.00    +0.000 OA
ATOM     12  H   UNL     1       7.041   5.609  18.983  0.00  0.00    +0.000 HD
ENDBRANCH   8  11
BRANCH   7  13
ATOM     13  C   UNL     1       6.013   6.208  17.043  0.00  0.00    +0.000 C 
BRANCH  13  14
ATOM     14  N   UNL     1       6.368   5.634  15.762  0.00  0.00    +0.000 N 
ATOM     15  C   UNL     1       5.577   4.872  14.958  0.00  0.00    +0.000 A 
ATOM     16  C   UNL     1       6.413   4.493  13.936  0.00  0.00    +0.000 A 
ATOM     17  N   UNL     1       7.656   5.031  14.149  0.00  0.00    +0.000 NA
ATOM     18  N   UNL     1       7.618   5.731  15.279  0.00  0.00    +0.000 NA
BRANCH  16  19
ATOM     19  C   UNL     1       6.112   3.643  12.825  0.00  0.00    +0.000 C 
ATOM     20  C   UNL     1       4.880   3.508  12.289  0.00  0.00    +0.000 C 
ATOM     21  C   UNL     1       4.549   2.567  11.171  0.00  0.00    +0.000 C 
ATOM     22  C   UNL     1       5.631   1.515  10.945  0.00  0.00    +0.000 C 
ATOM     23  C   UNL     1       7.014   2.156  10.954  0.00  0.00    +0.000 C 
ATOM     24  C   UNL     1       7.295   2.870  12.283  0.00  0.00    +0.000 C 
ENDBRANCH  16  19
ENDBRANCH  13  14
ENDBRANCH   7  13
TORSDOF 4
ENDMDL
MODEL 6
REMARK VINA RESULT:      -8.0      3.955      6.499
REMARK  Name = 
REMARK  6 active torsions:
REMARK  status: ('A' for Active; 'I' for Inactive)
REMARK    1  A    between atoms: C_1  and  C_2
REMARK    2  A    between atoms: C_2  and  C_3
REMARK    3  A    between atoms: C_7  and  C_8
REMARK    4  A    between atoms: C_8  and  N_9
REMARK    5  A    between atoms: C_11  and  C_12
REMARK    6  A    between atoms: C_20  and  O_21
REMARK                            x       y       z     vdW  Elec       q    Type
REMARK                         _______ _______ _______ _____ _____    ______ ____
ROOT
ATOM      1  C   UNL     1       1.383   4.238  20.115  0.00  0.00    +0.000 C 
ATOM      2  C   UNL     1       2.298   5.364  19.634  0.00  0.00    +0.000 C 
ATOM      3  C   UNL     1       1.846   6.707  20.188  0.00  0.00    +0.000 C 
ATOM      4  O   UNL     1       2.274   5.403  18.209  0.00  0.00    +0.000 OA
ATOM      5  C   UNL     1       3.459   4.756  17.767  0.00  0.00    +0.000 C 
ATOM      6  O   UNL     1       4.263   5.625  16.953  0.00  0.00    +0.000 OA
ATOM      7  C   UNL     1       5.307   6.154  17.799  0.00  0.00    +0.000 C 
ATOM      8  C   UNL     1       5.637   4.976  18.721  0.00  0.00    +0.000 C 
ATOM      9  C   UNL     1       4.260   4.410  19.010  0.00  0.00    +0.000 C 
ATOM     10  O   UNL     1       3.632   5.111  20.081  0.00  0.00    +0.000 OA
ENDROOT
BRANCH   8  11
ATOM     11  O   UNL     1       6.440   3.993  18.055  0.00  0.00    +0.000 OA
ATOM     12  H   UNL     1       7.319   4.375  17.875  0.00  0.00    +0.000 HD
ENDBRANCH   8  11
BRANCH   7  13
ATOM     13  C   UNL     1       6.494   6.622  16.969  0.00  0.00    +0.000 C 
BRANCH  13  14
ATOM     14  N   UNL     1       7.341   7.544  17.698  0.00  0.00    +0.000 N 
ATOM     15  C   UNL     1       7.472   8.882  17.482  0.00  0.00    +0.000 A 
ATOM     16  C   UNL     1       8.467   9.260  18.351  0.00  0.00    +0.000 A 
ATOM     17  N   UNL     1       8.894   8.160  19.052  0.00  0.00    +0.000 NA
ATOM     18  N   UNL     1       8.194   7.107  18.639  0.00  0.00    +0.000 NA
BRANCH  16  19
ATOM     19  C   UNL     1       9.041  10.560  18.517  0.00  0.00    +0.000 C 
ATOM     20  C   UNL     1      10.038  10.840  19.383  0.00  0.00    +0.000 C 
ATOM     21  C   UNL     1      10.592  12.214  19.608  0.00  0.00    +0.000 C 
ATOM     22  C   UNL     1       9.689  13.313  19.056  0.00  0.00    +0.000 C 
ATOM     23  C   UNL     1       9.206  12.959  17.655  0.00  0.00    +0.000 C 
ATOM     24  C   UNL     1       8.429  11.636  17.645  0.00  0.00    +0.000 C 
ENDBRANCH  16  19
ENDBRANCH  13  14
ENDBRANCH   7  13
TORSDOF 4
ENDMDL
MODEL 7
REMARK VINA RESULT:      -7.9      3.864      6.417
REMARK  Name = 
REMARK  6 active torsions:
REMARK  status: ('A' for Active; 'I' for Inactive)
REMARK    1  A    between atoms: C_1  and  C_2
REMARK    2  A    between atoms: C_2  and  C_3
REMARK    3  A    between atoms: C_7  and  C_8
REMARK    4  A    between atoms: C_8  and  N_9
REMARK    5  A    between atoms: C_11  and  C_12
REMARK    6  A    between atoms: C_20  and  O_21
REMARK                            x       y       z     vdW  Elec       q    Type
REMARK                         _______ _______ _______ _____ _____    ______ ____
ROOT
ATOM      1  C   UNL     1       2.214   2.891  20.031  0.00  0.00    +0.000 C 
ATOM      2  C   UNL     1       2.773   4.221  19.527  0.00  0.00    +0.000 C 
ATOM      3  C   UNL     1       1.966   5.392  20.067  0.00  0.00    +0.000 C 
ATOM      4  O   UNL     1       2.732   4.230  18.101  0.00  0.00    +0.000 OA
ATOM      5  C   UNL     1       4.048   3.934  17.657  0.00  0.00    +0.000 C 
ATOM      6  O   UNL     1       4.572   4.980  16.824  0.00  0.00    +0.000 OA
ATOM      7  C   UNL     1       5.431   5.794  17.654  0.00  0.00    +0.000 C 
ATOM      8  C   UNL     1       6.082   4.771  18.588  0.00  0.00    +0.000 C 
ATOM      9  C   UNL     1       4.921   3.845  18.897  0.00  0.00    +0.000 C 
ATOM     10  O   UNL     1       4.127   4.359  19.965  0.00  0.00    +0.000 OA
ENDROOT
BRANCH   8  11
ATOM     11  O   UNL     1       7.126   4.042  17.928  0.00  0.00    +0.000 OA
ATOM     12  H   UNL     1       7.586   4.641  17.312  0.00  0.00    +0.000 HD
ENDBRANCH   8  11
BRANCH   7  13
ATOM     13  C   UNL     1       6.434   6.564  16.806  0.00  0.00    +0.000 C 
BRANCH  13  14
ATOM     14  N   UNL     1       7.265   7.441  17.604  0.00  0.00    +0.000 N 
ATOM     15  C   UNL     1       7.409   8.787  17.462  0.00  0.00    +0.000 A 
ATOM     16  C   UNL     1       8.382   9.113  18.377  0.00  0.00    +0.000 A 
ATOM     17  N   UNL     1       8.783   7.976  19.031  0.00  0.00    +0.000 NA
ATOM     18  N   UNL     1       8.090   6.950  18.546  0.00  0.00    +0.000 NA
BRANCH  16  19
ATOM     19  C   UNL     1       8.957  10.399  18.625  0.00  0.00    +0.000 C 
ATOM     20  C   UNL     1       8.869  11.443  17.775  0.00  0.00    +0.000 C 
ATOM     21  C   UNL     1       9.530  12.769  18.001  0.00  0.00    +0.000 C 
ATOM     22  C   UNL     1      10.607  12.715  19.080  0.00  0.00    +0.000 C 
ATOM     23  C   UNL     1      10.109  11.948  20.299  0.00  0.00    +0.000 C 
ATOM     24  C   UNL     1       9.708  10.512  19.935  0.00  0.00    +0.000 C 
ENDBRANCH  16  19
ENDBRANCH  13  14
ENDBRANCH   7  13
TORSDOF 4
ENDMDL
MODEL 8
REMARK VINA RESULT:      -7.9      4.456      8.895
REMARK  Name = 
REMARK  6 active torsions:
REMARK  status: ('A' for Active; 'I' for Inactive)
REMARK    1  A    between atoms: C_1  and  C_2
REMARK    2  A    between atoms: C_2  and  C_3
REMARK    3  A    between atoms: C_7  and  C_8
REMARK    4  A    between atoms: C_8  and  N_9
REMARK    5  A    between atoms: C_11  and  C_12
REMARK    6  A    between atoms: C_20  and  O_21
REMARK                            x       y       z     vdW  Elec       q    Type
REMARK                         _______ _______ _______ _____ _____    ______ ____
ROOT
ATOM      1  C   UNL     1       7.242   4.391  16.587  0.00  0.00    +0.000 C 
ATOM      2  C   UNL     1       6.515   5.206  17.656  0.00  0.00    +0.000 C 
ATOM      3  C   UNL     1       7.389   6.344  18.162  0.00  0.00    +0.000 C 
ATOM      4  O   UNL     1       6.175   4.345  18.742  0.00  0.00    +0.000 OA
ATOM      5  C   UNL     1       4.802   4.021  18.585  0.00  0.00    +0.000 C 
ATOM      6  O   UNL     1       4.033   4.409  19.735  0.00  0.00    +0.000 OA
ATOM      7  C   UNL     1       3.394   5.664  19.414  0.00  0.00    +0.000 C 
ATOM      8  C   UNL     1       3.056   5.512  17.928  0.00  0.00    +0.000 C 
ATOM      9  C   UNL     1       4.295   4.817  17.395  0.00  0.00    +0.000 C 
ATOM     10  O   UNL     1       5.323   5.760  17.096  0.00  0.00    +0.000 OA
ENDROOT
BRANCH   8  11
ATOM     11  O   UNL     1       1.905   4.681  17.730  0.00  0.00    +0.000 OA
ATOM     12  H   UNL     1       1.740   4.174  18.546  0.00  0.00    +0.000 HD
ENDBRANCH   8  11
BRANCH   7  13
ATOM     13  C   UNL     1       2.170   5.891  20.292  0.00  0.00    +0.000 C 
BRANCH  13  14
ATOM     14  N   UNL     1       1.735   7.272  20.277  0.00  0.00    +0.000 N 
ATOM     15  C   UNL     1       0.955   7.895  21.202  0.00  0.00    +0.000 A 
ATOM     16  C   UNL     1       0.745   9.144  20.669  0.00  0.00    +0.000 A 
ATOM     17  N   UNL     1       1.394   9.234  19.464  0.00  0.00    +0.000 NA
ATOM     18  N   UNL     1       2.000   8.073  19.231  0.00  0.00    +0.000 NA
BRANCH  16  19
ATOM     19  C   UNL     1      -0.046  10.207  21.209  0.00  0.00    +0.000 C 
ATOM     20  C   UNL     1      -0.483  11.263  20.490  0.00  0.00    +0.000 C 
ATOM     21  C   UNL     1      -1.252  12.411  21.068  0.00  0.00    +0.000 C 
ATOM     22  C   UNL     1      -1.173  12.468  22.591  0.00  0.00    +0.000 C 
ATOM     23  C   UNL     1      -1.396  11.086  23.192  0.00  0.00    +0.000 C 
ATOM     24  C   UNL     1      -0.355  10.078  22.685  0.00  0.00    +0.000 C 
ENDBRANCH  16  19
ENDBRANCH  13  14
ENDBRANCH   7  13
TORSDOF 4
ENDMDL
MODEL 9
REMARK VINA RESULT:      -7.8      1.232      1.919
REMARK  Name = 
REMARK  6 active torsions:
REMARK  status: ('A' for Active; 'I' for Inactive)
REMARK    1  A    between atoms: C_1  and  C_2
REMARK    2  A    between atoms: C_2  and  C_3
REMARK    3  A    between atoms: C_7  and  C_8
REMARK    4  A    between atoms: C_8  and  N_9
REMARK    5  A    between atoms: C_11  and  C_12
REMARK    6  A    between atoms: C_20  and  O_21
REMARK                            x       y       z     vdW  Elec       q    Type
REMARK                         _______ _______ _______ _____ _____    ______ ____
ROOT
ATOM      1  C   UNL     1       2.590   2.458  20.876  0.00  0.00    +0.000 C 
ATOM      2  C   UNL     1       3.344   2.750  19.578  0.00  0.00    +0.000 C 
ATOM      3  C   UNL     1       3.513   1.485  18.750  0.00  0.00    +0.000 C 
ATOM      4  O   UNL     1       4.626   3.285  19.899  0.00  0.00    +0.000 OA
ATOM      5  C   UNL     1       4.532   4.691  19.723  0.00  0.00    +0.000 C 
ATOM      6  O   UNL     1       5.489   5.169  18.763  0.00  0.00    +0.000 OA
ATOM      7  C   UNL     1       4.788   5.335  17.512  0.00  0.00    +0.000 C 
ATOM      8  C   UNL     1       3.406   5.828  17.950  0.00  0.00    +0.000 C 
ATOM      9  C   UNL     1       3.143   4.974  19.176  0.00  0.00    +0.000 C 
ATOM     10  O   UNL     1       2.608   3.703  18.810  0.00  0.00    +0.000 OA
ENDROOT
BRANCH   8  11
ATOM     11  O   UNL     1       3.431   7.214  18.316  0.00  0.00    +0.000 OA
ATOM     12  H   UNL     1       3.331   7.753  17.510  0.00  0.00    +0.000 HD
ENDBRANCH   8  11
BRANCH   7  13
ATOM     13  C   UNL     1       5.519   6.316  16.605  0.00  0.00    +0.000 C 
BRANCH  13  14
ATOM     14  N   UNL     1       6.058   5.673  15.425  0.00  0.00    +0.000 N 
ATOM     15  C   UNL     1       5.406   4.819  14.588  0.00  0.00    +0.000 A 
ATOM     16  C   UNL     1       6.380   4.411  13.709  0.00  0.00    +0.000 A 
ATOM     17  N   UNL     1       7.565   5.022  14.036  0.00  0.00    +0.000 NA
ATOM     18  N   UNL     1       7.355   5.796  15.096  0.00  0.00    +0.000 NA
BRANCH  16  19
ATOM     19  C   UNL     1       6.258   3.473  12.636  0.00  0.00    +0.000 C 
ATOM     20  C   UNL     1       5.081   3.092  12.097  0.00  0.00    +0.000 C 
ATOM     21  C   UNL     1       4.945   2.058  11.021  0.00  0.00    +0.000 C 
ATOM     22  C   UNL     1       6.205   1.213  10.852  0.00  0.00    +0.000 C 
ATOM     23  C   UNL     1       7.447   2.095  10.843  0.00  0.00    +0.000 C 
ATOM     24  C   UNL     1       7.571   2.906  12.140  0.00  0.00    +0.000 C 
ENDBRANCH  16  19
ENDBRANCH  13  14
ENDBRANCH   7  13
TORSDOF 4
ENDMDL
