MODEL 1
REMARK VINA RESULT:      -8.2      0.000      0.000
REMARK  Name = 
REMARK  3 active torsions:
REMARK  status: ('A' for Active; 'I' for Inactive)
REMARK    1  A    between atoms: C_1  and  C_2
REMARK    2  A    between atoms: N_13  and  C_14
REMARK    3  A    between atoms: C_14  and  N_16
REMARK                            x       y       z     vdW  Elec       q    Type
REMARK                         _______ _______ _______ _____ _____    ______ ____
ROOT
ATOM      1  N   UNL     1       1.013  10.247  21.003  0.00  0.00    +0.000 N 
ATOM      2  C   UNL     1       1.212   9.126  20.183  0.00  0.00    +0.000 C 
ATOM      3  O   UNL     1       0.741   9.018  19.056  0.00  0.00    +0.000 OA
ATOM      4  N   UNL     1       1.892   8.109  20.856  0.00  0.00    +0.000 N 
ATOM      5  C   UNL     1       2.103   6.975  20.092  0.00  0.00    +0.000 A 
ATOM      6  N   UNL     1       3.137   6.777  19.321  0.00  0.00    +0.000 NA
ATOM      7  C   UNL     1       2.979   5.564  18.652  0.00  0.00    +0.000 A 
ATOM      8  C   UNL     1       3.762   5.068  17.583  0.00  0.00    +0.000 A 
ATOM      9 BR   UNL     1       5.125   6.143  16.821  0.00  0.00    +0.000 Br
ATOM     10  C   UNL     1       3.516   3.799  17.045  0.00  0.00    +0.000 A 
ATOM     11  C   UNL     1       2.513   2.998  17.578  0.00  0.00    +0.000 A 
ATOM     12  C   UNL     1       1.700   3.467  18.619  0.00  0.00    +0.000 A 
ATOM     13  C   UNL     1       1.921   4.768  19.113  0.00  0.00    +0.000 A 
ATOM     14  S   UNL     1       1.023   5.672  20.288  0.00  0.00    +0.000 S 
ATOM     15  H   UNL     1       1.188  10.084  21.992  0.00  0.00    +0.000 HD
ATOM     16  H   UNL     1       2.786   8.483  21.152  0.00  0.00    +0.000 HD
ENDROOT
BRANCH   1  17
ATOM     17  C   UNL     1       0.593  11.556  20.659  0.00  0.00    +0.000 C 
ATOM     18  S   UNL     1       1.696  12.695  20.081  0.00  0.00    +0.000 S 
BRANCH  17  31
ATOM     19  C   UNL     1      -1.444  12.023  18.430  0.00  0.00    +0.000 C 
ATOM     20  C   UNL     1      -1.765  12.102  19.908  0.00  0.00    +0.000 A 
ATOM     21  N   UNL     1      -3.007  12.399  20.141  0.00  0.00    +0.000 NA
ATOM     22  C   UNL     1      -3.469  12.494  21.444  0.00  0.00    +0.000 A 
ATOM     23  C   UNL     1      -4.800  12.861  21.663  0.00  0.00    +0.000 A 
ATOM     24  C   UNL     1      -5.265  13.024  22.961  0.00  0.00    +0.000 A 
ATOM     25  F   UNL     1      -6.536  13.389  23.169  0.00  0.00    +0.000 F 
ATOM     26  C   UNL     1      -4.423  12.819  24.049  0.00  0.00    +0.000 A 
ATOM     27  C   UNL     1      -3.101  12.418  23.831  0.00  0.00    +0.000 A 
ATOM     28  C   UNL     1      -2.634  12.246  22.521  0.00  0.00    +0.000 A 
ATOM     29  C   UNL     1      -1.255  11.794  22.227  0.00  0.00    +0.000 A 
ATOM     30  O   UNL     1      -0.582  11.400  23.176  0.00  0.00    +0.000 OA
ATOM     31  N   UNL     1      -0.807  11.811  20.894  0.00  0.00    +0.000 N 
ENDBRANCH  17  31
ENDBRANCH   1  17
TORSDOF 2
ENDMDL
MODEL 2
REMARK VINA RESULT:      -7.9      3.603      5.069
REMARK  Name = 
REMARK  3 active torsions:
REMARK  status: ('A' for Active; 'I' for Inactive)
REMARK    1  A    between atoms: C_1  and  C_2
REMARK    2  A    between atoms: N_13  and  C_14
REMARK    3  A    between atoms: C_14  and  N_16
REMARK                            x       y       z     vdW  Elec       q    Type
REMARK                         _______ _______ _______ _____ _____    ______ ____
ROOT
ATOM      1  N   UNL     1       0.850   9.270  19.362  0.00  0.00    +0.000 N 
ATOM      2  C   UNL     1       1.755   8.535  18.581  0.00  0.00    +0.000 C 
ATOM      3  O   UNL     1       1.937   8.737  17.386  0.00  0.00    +0.000 OA
ATOM      4  N   UNL     1       2.313   7.474  19.299  0.00  0.00    +0.000 N 
ATOM      5  C   UNL     1       3.206   6.712  18.567  0.00  0.00    +0.000 A 
ATOM      6  N   UNL     1       4.484   6.953  18.466  0.00  0.00    +0.000 NA
ATOM      7  C   UNL     1       5.054   6.026  17.594  0.00  0.00    +0.000 A 
ATOM      8  C   UNL     1       6.361   6.049  17.054  0.00  0.00    +0.000 A 
ATOM      9 BR   UNL     1       7.506   7.521  17.393  0.00  0.00    +0.000 Br
ATOM     10  C   UNL     1       6.813   5.011  16.230  0.00  0.00    +0.000 A 
ATOM     11  C   UNL     1       5.987   3.928  15.956  0.00  0.00    +0.000 A 
ATOM     12  C   UNL     1       4.677   3.884  16.452  0.00  0.00    +0.000 A 
ATOM     13  C   UNL     1       4.214   4.962  17.232  0.00  0.00    +0.000 A 
ATOM     14  S   UNL     1       2.634   5.263  17.877  0.00  0.00    +0.000 S 
ATOM     15  H   UNL     1       0.575   8.815  20.230  0.00  0.00    +0.000 HD
ATOM     16  H   UNL     1       2.789   7.867  20.102  0.00  0.00    +0.000 HD
ENDROOT
BRANCH   1  17
ATOM     17  C   UNL     1       0.257  10.533  19.112  0.00  0.00    +0.000 C 
ATOM     18  S   UNL     1      -1.082  10.672  18.095  0.00  0.00    +0.000 S 
BRANCH  17  31
ATOM     19  C   UNL     1      -0.389  11.495  21.939  0.00  0.00    +0.000 C 
ATOM     20  C   UNL     1       0.613  12.162  21.019  0.00  0.00    +0.000 A 
ATOM     21  N   UNL     1       1.176  13.203  21.554  0.00  0.00    +0.000 NA
ATOM     22  C   UNL     1       2.130  13.919  20.849  0.00  0.00    +0.000 A 
ATOM     23  C   UNL     1       2.683  15.062  21.433  0.00  0.00    +0.000 A 
ATOM     24  C   UNL     1       3.594  15.829  20.719  0.00  0.00    +0.000 A 
ATOM     25  F   UNL     1       4.113  16.931  21.274  0.00  0.00    +0.000 F 
ATOM     26  C   UNL     1       3.969  15.469  19.429  0.00  0.00    +0.000 A 
ATOM     27  C   UNL     1       3.442  14.306  18.858  0.00  0.00    +0.000 A 
ATOM     28  C   UNL     1       2.529  13.528  19.582  0.00  0.00    +0.000 A 
ATOM     29  C   UNL     1       1.961  12.272  19.044  0.00  0.00    +0.000 A 
ATOM     30  O   UNL     1       2.453  11.834  18.006  0.00  0.00    +0.000 OA
ATOM     31  N   UNL     1       0.924  11.639  19.753  0.00  0.00    +0.000 N 
ENDBRANCH  17  31
ENDBRANCH   1  17
TORSDOF 2
ENDMDL
MODEL 3
REMARK VINA RESULT:      -7.9      1.482      1.772
REMARK  Name = 
REMARK  3 active torsions:
REMARK  status: ('A' for Active; 'I' for Inactive)
REMARK    1  A    between atoms: C_1  and  C_2
REMARK    2  A    between atoms: N_13  and  C_14
REMARK    3  A    between atoms: C_14  and  N_16
REMARK                            x       y       z     vdW  Elec       q    Type
REMARK                         _______ _______ _______ _____ _____    ______ ____
ROOT
ATOM      1  N   UNL     1       1.081   9.724  19.535  0.00  0.00    +0.000 N 
ATOM      2  C   UNL     1       1.859   8.852  18.758  0.00  0.00    +0.000 C 
ATOM      3  O   UNL     1       2.090   9.028  17.568  0.00  0.00    +0.000 OA
ATOM      4  N   UNL     1       2.218   7.706  19.474  0.00  0.00    +0.000 N 
ATOM      5  C   UNL     1       2.979   6.808  18.746  0.00  0.00    +0.000 A 
ATOM      6  N   UNL     1       4.281   6.829  18.664  0.00  0.00    +0.000 NA
ATOM      7  C   UNL     1       4.697   5.825  17.791  0.00  0.00    +0.000 A 
ATOM      8  C   UNL     1       5.997   5.629  17.268  0.00  0.00    +0.000 A 
ATOM      9 BR   UNL     1       7.370   6.883  17.636  0.00  0.00    +0.000 Br
ATOM     10  C   UNL     1       6.278   4.535  16.441  0.00  0.00    +0.000 A 
ATOM     11  C   UNL     1       5.284   3.610  16.146  0.00  0.00    +0.000 A 
ATOM     12  C   UNL     1       3.978   3.786  16.623  0.00  0.00    +0.000 A 
ATOM     13  C   UNL     1       3.695   4.922  17.408  0.00  0.00    +0.000 A 
ATOM     14  S   UNL     1       2.180   5.483  18.035  0.00  0.00    +0.000 S 
ATOM     15  H   UNL     1       0.720   9.316  20.394  0.00  0.00    +0.000 HD
ATOM     16  H   UNL     1       2.743   8.006  20.286  0.00  0.00    +0.000 HD
ENDROOT
BRANCH   1  17
ATOM     17  C   UNL     1       0.714  11.071  19.289  0.00  0.00    +0.000 C 
ATOM     18  S   UNL     1       1.757  12.114  18.469  0.00  0.00    +0.000 S 
BRANCH  17  31
ATOM     19  C   UNL     1      -1.799  11.478  17.601  0.00  0.00    +0.000 C 
ATOM     20  C   UNL     1      -1.728  11.715  19.096  0.00  0.00    +0.000 A 
ATOM     21  N   UNL     1      -2.855  12.122  19.597  0.00  0.00    +0.000 NA
ATOM     22  C   UNL     1      -2.964  12.370  20.956  0.00  0.00    +0.000 A 
ATOM     23  C   UNL     1      -4.176  12.851  21.459  0.00  0.00    +0.000 A 
ATOM     24  C   UNL     1      -4.287  13.166  22.806  0.00  0.00    +0.000 A 
ATOM     25  F   UNL     1      -5.444  13.640  23.284  0.00  0.00    +0.000 F 
ATOM     26  C   UNL     1      -3.206  13.002  23.666  0.00  0.00    +0.000 A 
ATOM     27  C   UNL     1      -2.004  12.487  23.170  0.00  0.00    +0.000 A 
ATOM     28  C   UNL     1      -1.895  12.162  21.811  0.00  0.00    +0.000 A 
ATOM     29  C   UNL     1      -0.659  11.586  21.234  0.00  0.00    +0.000 A 
ATOM     30  O   UNL     1       0.215  11.232  22.022  0.00  0.00    +0.000 OA
ATOM     31  N   UNL     1      -0.565  11.447  19.837  0.00  0.00    +0.000 N 
ENDBRANCH  17  31
ENDBRANCH   1  17
TORSDOF 2
ENDMDL
MODEL 4
REMARK VINA RESULT:      -7.8      5.011      9.893
REMARK  Name = 
REMARK  3 active torsions:
REMARK  status: ('A' for Active; 'I' for Inactive)
REMARK    1  A    between atoms: C_1  and  C_2
REMARK    2  A    between atoms: N_13  and  C_14
REMARK    3  A    between atoms: C_14  and  N_16
REMARK                            x       y       z     vdW  Elec       q    Type
REMARK                         _______ _______ _______ _____ _____    ______ ____
ROOT
ATOM      1  N   UNL     1       2.286   5.804  20.934  0.00  0.00    +0.000 N 
ATOM      2  C   UNL     1       1.868   6.948  20.238  0.00  0.00    +0.000 C 
ATOM      3  O   UNL     1       2.078   7.129  19.043  0.00  0.00    +0.000 OA
ATOM      4  N   UNL     1       1.311   7.900  21.096  0.00  0.00    +0.000 N 
ATOM      5  C   UNL     1       0.894   9.054  20.457  0.00  0.00    +0.000 A 
ATOM      6  N   UNL     1      -0.290   9.232  19.940  0.00  0.00    +0.000 NA
ATOM      7  C   UNL     1      -0.331  10.480  19.318  0.00  0.00    +0.000 A 
ATOM      8  C   UNL     1      -1.347  10.982  18.472  0.00  0.00    +0.000 A 
ATOM      9 BR   UNL     1      -2.800   9.874  17.966  0.00  0.00    +0.000 Br
ATOM     10  C   UNL     1      -1.275  12.284  17.962  0.00  0.00    +0.000 A 
ATOM     11  C   UNL     1      -0.213  13.110  18.308  0.00  0.00    +0.000 A 
ATOM     12  C   UNL     1       0.825  12.638  19.122  0.00  0.00    +0.000 A 
ATOM     13  C   UNL     1       0.770  11.307  19.581  0.00  0.00    +0.000 A 
ATOM     14  S   UNL     1       1.938  10.399  20.484  0.00  0.00    +0.000 S 
ATOM     15  H   UNL     1       2.324   5.915  21.945  0.00  0.00    +0.000 HD
ATOM     16  H   UNL     1       0.520   7.468  21.557  0.00  0.00    +0.000 HD
ENDROOT
BRANCH   1  17
ATOM     17  C   UNL     1       2.673   4.534  20.438  0.00  0.00    +0.000 C 
ATOM     18  S   UNL     1       2.435   3.138  21.356  0.00  0.00    +0.000 S 
BRANCH  17  31
ATOM     19  C   UNL     1       1.223   3.929  17.818  0.00  0.00    +0.000 C 
ATOM     20  C   UNL     1       2.704   4.232  17.922  0.00  0.00    +0.000 A 
ATOM     21  N   UNL     1       3.309   4.202  16.774  0.00  0.00    +0.000 NA
ATOM     22  C   UNL     1       4.665   4.474  16.693  0.00  0.00    +0.000 A 
ATOM     23  C   UNL     1       5.297   4.388  15.449  0.00  0.00    +0.000 A 
ATOM     24  C   UNL     1       6.667   4.594  15.357  0.00  0.00    +0.000 A 
ATOM     25  F   UNL     1       7.273   4.498  14.167  0.00  0.00    +0.000 F 
ATOM     26  C   UNL     1       7.419   4.891  16.488  0.00  0.00    +0.000 A 
ATOM     27  C   UNL     1       6.781   5.011  17.727  0.00  0.00    +0.000 A 
ATOM     28  C   UNL     1       5.397   4.811  17.819  0.00  0.00    +0.000 A 
ATOM     29  C   UNL     1       4.661   4.954  19.095  0.00  0.00    +0.000 A 
ATOM     30  O   UNL     1       5.277   5.432  20.046  0.00  0.00    +0.000 OA
ATOM     31  N   UNL     1       3.309   4.571  19.144  0.00  0.00    +0.000 N 
ENDBRANCH  17  31
ENDBRANCH   1  17
TORSDOF 2
ENDMDL
MODEL 5
REMARK VINA RESULT:      -7.8      2.494      3.116
REMARK  Name = 
REMARK  3 active torsions:
REMARK  status: ('A' for Active; 'I' for Inactive)
REMARK    1  A    between atoms: C_1  and  C_2
REMARK    2  A    between atoms: N_13  and  C_14
REMARK    3  A    between atoms: C_14  and  N_16
REMARK                            x       y       z     vdW  Elec       q    Type
REMARK                         _______ _______ _______ _____ _____    ______ ____
ROOT
ATOM      1  N   UNL     1       1.070   9.973  19.268  0.00  0.00    +0.000 N 
ATOM      2  C   UNL     1       1.818   9.014  18.568  0.00  0.00    +0.000 C 
ATOM      3  O   UNL     1       2.068   9.092  17.371  0.00  0.00    +0.000 OA
ATOM      4  N   UNL     1       2.121   7.910  19.370  0.00  0.00    +0.000 N 
ATOM      5  C   UNL     1       2.849   6.930  18.720  0.00  0.00    +0.000 A 
ATOM      6  N   UNL     1       4.151   6.890  18.654  0.00  0.00    +0.000 NA
ATOM      7  C   UNL     1       4.533   5.808  17.862  0.00  0.00    +0.000 A 
ATOM      8  C   UNL     1       5.829   5.519  17.372  0.00  0.00    +0.000 A 
ATOM      9 BR   UNL     1       7.251   6.739  17.664  0.00  0.00    +0.000 Br
ATOM     10  C   UNL     1       6.071   4.357  16.630  0.00  0.00    +0.000 A 
ATOM     11  C   UNL     1       5.041   3.455  16.391  0.00  0.00    +0.000 A 
ATOM     12  C   UNL     1       3.739   3.721  16.838  0.00  0.00    +0.000 A 
ATOM     13  C   UNL     1       3.497   4.922  17.534  0.00  0.00    +0.000 A 
ATOM     14  S   UNL     1       2.001   5.591  18.098  0.00  0.00    +0.000 S 
ATOM     15  H   UNL     1       0.683   9.645  20.151  0.00  0.00    +0.000 HD
ATOM     16  H   UNL     1       2.649   8.247  20.165  0.00  0.00    +0.000 HD
ENDROOT
BRANCH   1  17
ATOM     17  C   UNL     1       0.764  11.312  18.920  0.00  0.00    +0.000 C 
ATOM     18  S   UNL     1       1.978  12.376  18.428  0.00  0.00    +0.000 S 
BRANCH  17  31
ATOM     19  C   UNL     1      -0.253  13.348  20.958  0.00  0.00    +0.000 C 
ATOM     20  C   UNL     1      -1.148  12.538  20.044  0.00  0.00    +0.000 A 
ATOM     21  N   UNL     1      -2.410  12.790  20.217  0.00  0.00    +0.000 NA
ATOM     22  C   UNL     1      -3.362  12.143  19.447  0.00  0.00    +0.000 A 
ATOM     23  C   UNL     1      -4.715  12.401  19.689  0.00  0.00    +0.000 A 
ATOM     24  C   UNL     1      -5.686  11.717  18.971  0.00  0.00    +0.000 A 
ATOM     25  F   UNL     1      -6.981  11.954  19.214  0.00  0.00    +0.000 F 
ATOM     26  C   UNL     1      -5.330  10.779  18.008  0.00  0.00    +0.000 A 
ATOM     27  C   UNL     1      -3.977  10.546  17.741  0.00  0.00    +0.000 A 
ATOM     28  C   UNL     1      -2.996  11.244  18.460  0.00  0.00    +0.000 A 
ATOM     29  C   UNL     1      -1.550  11.063  18.202  0.00  0.00    +0.000 A 
ATOM     30  O   UNL     1      -1.236  10.411  17.208  0.00  0.00    +0.000 OA
ATOM     31  N   UNL     1      -0.626  11.663  19.075  0.00  0.00    +0.000 N 
ENDBRANCH  17  31
ENDBRANCH   1  17
TORSDOF 2
ENDMDL
MODEL 6
REMARK VINA RESULT:      -7.7      2.363      2.878
REMARK  Name = 
REMARK  3 active torsions:
REMARK  status: ('A' for Active; 'I' for Inactive)
REMARK    1  A    between atoms: C_1  and  C_2
REMARK    2  A    between atoms: N_13  and  C_14
REMARK    3  A    between atoms: C_14  and  N_16
REMARK                            x       y       z     vdW  Elec       q    Type
REMARK                         _______ _______ _______ _____ _____    ______ ____
ROOT
ATOM      1  N   UNL     1       1.304   9.681  19.783  0.00  0.00    +0.000 N 
ATOM      2  C   UNL     1       1.598   8.392  19.313  0.00  0.00    +0.000 C 
ATOM      3  O   UNL     1       1.368   8.019  18.168  0.00  0.00    +0.000 OA
ATOM      4  N   UNL     1       2.056   7.561  20.339  0.00  0.00    +0.000 N 
ATOM      5  C   UNL     1       2.350   6.274  19.927  0.00  0.00    +0.000 A 
ATOM      6  N   UNL     1       3.508   5.883  19.470  0.00  0.00    +0.000 NA
ATOM      7  C   UNL     1       3.417   4.546  19.085  0.00  0.00    +0.000 A 
ATOM      8  C   UNL     1       4.373   3.796  18.361  0.00  0.00    +0.000 A 
ATOM      9 BR   UNL     1       5.931   4.639  17.685  0.00  0.00    +0.000 Br
ATOM     10  C   UNL     1       4.165   2.438  18.096  0.00  0.00    +0.000 A 
ATOM     11  C   UNL     1       3.024   1.801  18.569  0.00  0.00    +0.000 A 
ATOM     12  C   UNL     1       2.043   2.518  19.267  0.00  0.00    +0.000 A 
ATOM     13  C   UNL     1       2.237   3.898  19.477  0.00  0.00    +0.000 A 
ATOM     14  S   UNL     1       1.172   5.070  20.182  0.00  0.00    +0.000 S 
ATOM     15  H   UNL     1       1.257   9.761  20.796  0.00  0.00    +0.000 HD
ATOM     16  H   UNL     1       2.890   7.986  20.726  0.00  0.00    +0.000 HD
ENDROOT
BRANCH   1  17
ATOM     17  C   UNL     1       1.049  10.872  19.058  0.00  0.00    +0.000 C 
ATOM     18  S   UNL     1       2.280  11.639  18.196  0.00  0.00    +0.000 S 
BRANCH  17  31
ATOM     19  C   UNL     1       0.207  13.082  20.992  0.00  0.00    +0.000 C 
ATOM     20  C   UNL     1      -0.750  12.322  20.098  0.00  0.00    +0.000 A 
ATOM     21  N   UNL     1      -1.984  12.701  20.239  0.00  0.00    +0.000 NA
ATOM     22  C   UNL     1      -2.985  12.115  19.481  0.00  0.00    +0.000 A 
ATOM     23  C   UNL     1      -4.309  12.511  19.690  0.00  0.00    +0.000 A 
ATOM     24  C   UNL     1      -5.333  11.892  18.986  0.00  0.00    +0.000 A 
ATOM     25  F   UNL     1      -6.602  12.262  19.197  0.00  0.00    +0.000 F 
ATOM     26  C   UNL     1      -5.056  10.884  18.068  0.00  0.00    +0.000 A 
ATOM     27  C   UNL     1      -3.729  10.511  17.834  0.00  0.00    +0.000 A 
ATOM     28  C   UNL     1      -2.694  11.143  18.539  0.00  0.00    +0.000 A 
ATOM     29  C   UNL     1      -1.269  10.814  18.312  0.00  0.00    +0.000 A 
ATOM     30  O   UNL     1      -1.007  10.092  17.353  0.00  0.00    +0.000 OA
ATOM     31  N   UNL     1      -0.303  11.361  19.175  0.00  0.00    +0.000 N 
ENDBRANCH  17  31
ENDBRANCH   1  17
TORSDOF 2
ENDMDL
MODEL 7
REMARK VINA RESULT:      -7.7      1.920      2.301
REMARK  Name = 
REMARK  3 active torsions:
REMARK  status: ('A' for Active; 'I' for Inactive)
REMARK    1  A    between atoms: C_1  and  C_2
REMARK    2  A    between atoms: N_13  and  C_14
REMARK    3  A    between atoms: C_14  and  N_16
REMARK                            x       y       z     vdW  Elec       q    Type
REMARK                         _______ _______ _______ _____ _____    ______ ____
ROOT
ATOM      1  N   UNL     1       0.978   9.761  19.311  0.00  0.00    +0.000 N 
ATOM      2  C   UNL     1       1.782   8.872  18.581  0.00  0.00    +0.000 C 
ATOM      3  O   UNL     1       2.010   8.994  17.382  0.00  0.00    +0.000 OA
ATOM      4  N   UNL     1       2.172   7.776  19.353  0.00  0.00    +0.000 N 
ATOM      5  C   UNL     1       2.958   6.863  18.673  0.00  0.00    +0.000 A 
ATOM      6  N   UNL     1       4.259   6.916  18.590  0.00  0.00    +0.000 NA
ATOM      7  C   UNL     1       4.705   5.881  17.769  0.00  0.00    +0.000 A 
ATOM      8  C   UNL     1       6.010   5.695  17.257  0.00  0.00    +0.000 A 
ATOM      9 BR   UNL     1       7.348   7.004  17.560  0.00  0.00    +0.000 Br
ATOM     10  C   UNL     1       6.323   4.569  16.487  0.00  0.00    +0.000 A 
ATOM     11  C   UNL     1       5.355   3.602  16.239  0.00  0.00    +0.000 A 
ATOM     12  C   UNL     1       4.045   3.766  16.707  0.00  0.00    +0.000 A 
ATOM     13  C   UNL     1       3.728   4.932  17.433  0.00  0.00    +0.000 A 
ATOM     14  S   UNL     1       2.197   5.481  18.031  0.00  0.00    +0.000 S 
ATOM     15  H   UNL     1       0.628   9.388  20.191  0.00  0.00    +0.000 HD
ATOM     16  H   UNL     1       2.686   8.131  20.149  0.00  0.00    +0.000 HD
ENDROOT
BRANCH   1  17
ATOM     17  C   UNL     1       0.575  11.083  18.997  0.00  0.00    +0.000 C 
ATOM     18  S   UNL     1       1.712  12.255  18.572  0.00  0.00    +0.000 S 
BRANCH  17  31
ATOM     19  C   UNL     1      -1.511   9.949  17.075  0.00  0.00    +0.000 C 
ATOM     20  C   UNL     1      -1.830  10.878  18.228  0.00  0.00    +0.000 A 
ATOM     21  N   UNL     1      -3.095  11.157  18.318  0.00  0.00    +0.000 NA
ATOM     22  C   UNL     1      -3.557  11.982  19.331  0.00  0.00    +0.000 A 
ATOM     23  C   UNL     1      -4.918  12.301  19.373  0.00  0.00    +0.000 A 
ATOM     24  C   UNL     1      -5.390  13.176  20.341  0.00  0.00    +0.000 A 
ATOM     25  F   UNL     1      -6.691  13.492  20.373  0.00  0.00    +0.000 F 
ATOM     26  C   UNL     1      -4.526  13.736  21.276  0.00  0.00    +0.000 A 
ATOM     27  C   UNL     1      -3.171  13.391  21.255  0.00  0.00    +0.000 A 
ATOM     28  C   UNL     1      -2.696  12.500  20.282  0.00  0.00    +0.000 A 
ATOM     29  C   UNL     1      -1.279  12.073  20.228  0.00  0.00    +0.000 A 
ATOM     30  O   UNL     1      -0.563  12.385  21.177  0.00  0.00    +0.000 OA
ATOM     31  N   UNL     1      -0.842  11.318  19.125  0.00  0.00    +0.000 N 
ENDBRANCH  17  31
ENDBRANCH   1  17
TORSDOF 2
ENDMDL
MODEL 8
REMARK VINA RESULT:      -7.6      1.404      1.452
REMARK  Name = 
REMARK  3 active torsions:
REMARK  status: ('A' for Active; 'I' for Inactive)
REMARK    1  A    between atoms: C_1  and  C_2
REMARK    2  A    between atoms: N_13  and  C_14
REMARK    3  A    between atoms: C_14  and  N_16
REMARK                            x       y       z     vdW  Elec       q    Type
REMARK                         _______ _______ _______ _____ _____    ______ ____
ROOT
ATOM      1  N   UNL     1       1.283   9.673  20.075  0.00  0.00    +0.000 N 
ATOM      2  C   UNL     1       1.545   8.413  19.514  0.00  0.00    +0.000 C 
ATOM      3  O   UNL     1       1.213   8.095  18.378  0.00  0.00    +0.000 OA
ATOM      4  N   UNL     1       2.105   7.539  20.449  0.00  0.00    +0.000 N 
ATOM      5  C   UNL     1       2.371   6.278  19.946  0.00  0.00    +0.000 A 
ATOM      6  N   UNL     1       3.485   5.928  19.364  0.00  0.00    +0.000 NA
ATOM      7  C   UNL     1       3.373   4.610  18.922  0.00  0.00    +0.000 A 
ATOM      8  C   UNL     1       4.265   3.912  18.075  0.00  0.00    +0.000 A 
ATOM      9 BR   UNL     1       5.745   4.811  17.302  0.00  0.00    +0.000 Br
ATOM     10  C   UNL     1       4.046   2.566  17.760  0.00  0.00    +0.000 A 
ATOM     11  C   UNL     1       2.960   1.890  18.303  0.00  0.00    +0.000 A 
ATOM     12  C   UNL     1       2.041   2.556  19.124  0.00  0.00    +0.000 A 
ATOM     13  C   UNL     1       2.240   3.926  19.387  0.00  0.00    +0.000 A 
ATOM     14  S   UNL     1       1.235   5.046  20.246  0.00  0.00    +0.000 S 
ATOM     15  H   UNL     1       1.330   9.700  21.091  0.00  0.00    +0.000 HD
ATOM     16  H   UNL     1       2.966   7.956  20.779  0.00  0.00    +0.000 HD
ENDROOT
BRANCH   1  17
ATOM     17  C   UNL     1       0.950  10.895  19.439  0.00  0.00    +0.000 C 
ATOM     18  S   UNL     1       2.061  11.680  18.440  0.00  0.00    +0.000 S 
BRANCH  17  31
ATOM     19  C   UNL     1      -1.520  10.434  17.701  0.00  0.00    +0.000 C 
ATOM     20  C   UNL     1      -1.510  11.271  18.964  0.00  0.00    +0.000 A 
ATOM     21  N   UNL     1      -2.669  11.787  19.238  0.00  0.00    +0.000 NA
ATOM     22  C   UNL     1      -2.835  12.568  20.370  0.00  0.00    +0.000 A 
ATOM     23  C   UNL     1      -4.083  13.149  20.613  0.00  0.00    +0.000 A 
ATOM     24  C   UNL     1      -4.253  13.985  21.707  0.00  0.00    +0.000 A 
ATOM     25  F   UNL     1      -5.446  14.552  21.930  0.00  0.00    +0.000 F 
ATOM     26  C   UNL     1      -3.196  14.248  22.572  0.00  0.00    +0.000 A 
ATOM     27  C   UNL     1      -1.957  13.640  22.349  0.00  0.00    +0.000 A 
ATOM     28  C   UNL     1      -1.788  12.789  21.248  0.00  0.00    +0.000 A 
ATOM     29  C   UNL     1      -0.510  12.092  20.977  0.00  0.00    +0.000 A 
ATOM     30  O   UNL     1       0.351  12.142  21.853  0.00  0.00    +0.000 OA
ATOM     31  N   UNL     1      -0.363  11.395  19.765  0.00  0.00    +0.000 N 
ENDBRANCH  17  31
ENDBRANCH   1  17
TORSDOF 2
ENDMDL
MODEL 9
REMARK VINA RESULT:      -7.4      3.849      5.248
REMARK  Name = 
REMARK  3 active torsions:
REMARK  status: ('A' for Active; 'I' for Inactive)
REMARK    1  A    between atoms: C_1  and  C_2
REMARK    2  A    between atoms: N_13  and  C_14
REMARK    3  A    between atoms: C_14  and  N_16
REMARK                            x       y       z     vdW  Elec       q    Type
REMARK                         _______ _______ _______ _____ _____    ______ ____
ROOT
ATOM      1  N   UNL     1       1.342   9.863  18.010  0.00  0.00    +0.000 N 
ATOM      2  C   UNL     1       1.766   8.626  18.522  0.00  0.00    +0.000 C 
ATOM      3  O   UNL     1       1.706   8.327  19.709  0.00  0.00    +0.000 OA
ATOM      4  N   UNL     1       2.380   7.845  17.539  0.00  0.00    +0.000 N 
ATOM      5  C   UNL     1       2.827   6.619  17.997  0.00  0.00    +0.000 A 
ATOM      6  N   UNL     1       2.112   5.528  18.025  0.00  0.00    +0.000 NA
ATOM      7  C   UNL     1       2.859   4.509  18.615  0.00  0.00    +0.000 A 
ATOM      8  C   UNL     1       2.400   3.234  19.018  0.00  0.00    +0.000 A 
ATOM      9 BR   UNL     1       0.557   2.804  18.901  0.00  0.00    +0.000 Br
ATOM     10  C   UNL     1       3.286   2.289  19.548  0.00  0.00    +0.000 A 
ATOM     11  C   UNL     1       4.639   2.586  19.657  0.00  0.00    +0.000 A 
ATOM     12  C   UNL     1       5.126   3.849  19.293  0.00  0.00    +0.000 A 
ATOM     13  C   UNL     1       4.214   4.811  18.814  0.00  0.00    +0.000 A 
ATOM     14  S   UNL     1       4.474   6.475  18.406  0.00  0.00    +0.000 S 
ATOM     15  H   UNL     1       1.722  10.094  17.095  0.00  0.00    +0.000 HD
ATOM     16  H   UNL     1       1.705   7.700  16.799  0.00  0.00    +0.000 HD
ENDROOT
BRANCH   1  17
ATOM     17  C   UNL     1       0.484  10.833  18.586  0.00  0.00    +0.000 C 
ATOM     18  S   UNL     1      -1.169  10.835  18.246  0.00  0.00    +0.000 S 
BRANCH  17  31
ATOM     19  C   UNL     1      -0.027  11.153  21.580  0.00  0.00    +0.000 C 
ATOM     20  C   UNL     1       0.904  12.036  20.776  0.00  0.00    +0.000 A 
ATOM     21  N   UNL     1       1.467  12.962  21.491  0.00  0.00    +0.000 NA
ATOM     22  C   UNL     1       2.361  13.845  20.909  0.00  0.00    +0.000 A 
ATOM     23  C   UNL     1       2.915  14.860  21.694  0.00  0.00    +0.000 A 
ATOM     24  C   UNL     1       3.764  15.794  21.116  0.00  0.00    +0.000 A 
ATOM     25  F   UNL     1       4.283  16.774  21.867  0.00  0.00    +0.000 F 
ATOM     26  C   UNL     1       4.075  15.729  19.762  0.00  0.00    +0.000 A 
ATOM     27  C   UNL     1       3.549  14.694  18.983  0.00  0.00    +0.000 A 
ATOM     28  C   UNL     1       2.698  13.746  19.569  0.00  0.00    +0.000 A 
ATOM     29  C   UNL     1       2.135  12.611  18.805  0.00  0.00    +0.000 A 
ATOM     30  O   UNL     1       2.580  12.421  17.675  0.00  0.00    +0.000 OA
ATOM     31  N   UNL     1       1.157  11.804  19.413  0.00  0.00    +0.000 N 
ENDBRANCH  17  31
ENDBRANCH   1  17
TORSDOF 2
ENDMDL
