MODEL 1
REMARK VINA RESULT:      -7.5      0.000      0.000
REMARK  Name = 
REMARK  9 active torsions:
REMARK  status: ('A' for Active; 'I' for Inactive)
REMARK    1  A    between atoms: C_1  and  C_2
REMARK    2  A    between atoms: C_2  and  C_3
REMARK    3  A    between atoms: C_3  and  C_4
REMARK    4  A    between atoms: C_4  and  C_6
REMARK    5  A    between atoms: C_7  and  N_8
REMARK    6  A    between atoms: N_8  and  C_9
REMARK    7  A    between atoms: C_9  and  C_10
REMARK    8  A    between atoms: C_17  and  C_18
REMARK    9  A    between atoms: C_17  and  C_19
REMARK                            x       y       z     vdW  Elec       q    Type
REMARK                         _______ _______ _______ _____ _____    ______ ____
ROOT
ATOM      1  C   UNL     1       4.288   4.569  18.768  0.00  0.00    +0.000 C 
ATOM      2  C   UNL     1       3.281   4.802  19.653  0.00  0.00    +0.000 C 
ATOM      3  C   UNL     1       2.065   3.886  19.727  0.00  0.00    +0.000 C 
ATOM      4  C   UNL     1       1.727   3.163  18.416  0.00  0.00    +0.000 C 
ATOM      5  C   UNL     1       0.659   2.091  18.685  0.00  0.00    +0.000 C 
ATOM      6  C   UNL     1       1.172   4.155  17.372  0.00  0.00    +0.000 C 
ATOM      7  C   UNL     1       2.993   2.482  17.905  0.00  0.00    +0.000 C 
ATOM      8  C   UNL     1       4.139   3.446  17.768  0.00  0.00    +0.000 C 
ATOM      9  O   UNL     1       4.939   3.303  16.843  0.00  0.00    +0.000 OA
ENDROOT
BRANCH   1  10
ATOM     10  C   UNL     1       5.564   5.386  18.768  0.00  0.00    +0.000 C 
ATOM     11  O   UNL     1       6.412   5.246  19.652  0.00  0.00    +0.000 OA
BRANCH  10  12
ATOM     12  C   UNL     1       5.771   6.380  17.623  0.00  0.00    +0.000 C 
BRANCH  12  14
ATOM     13  C   UNL     1       7.793   7.874  17.673  0.00  0.00    +0.000 C 
ATOM     14  C   UNL     1       7.217   6.551  17.168  0.00  0.00    +0.000 C 
ENDBRANCH  12  14
ENDBRANCH  10  12
ENDBRANCH   1  10
BRANCH   2  15
ATOM     15  N   UNL     1       3.129   5.904  20.505  0.00  0.00    +0.000 N 
ATOM     16  H   UNL     1       3.507   5.682  21.430  0.00  0.00    +0.000 HD
BRANCH  15  17
ATOM     17  C   UNL     1       1.849   6.585  20.726  0.00  0.00    +0.000 C 
BRANCH  17  18
ATOM     18  C   UNL     1       1.742   7.790  19.820  0.00  0.00    +0.000 A 
ATOM     19  C   UNL     1       1.061   8.939  20.252  0.00  0.00    +0.000 A 
ATOM     20  C   UNL     1       0.971  10.067  19.435  0.00  0.00    +0.000 A 
ATOM     21  C   UNL     1       1.555  10.058  18.170  0.00  0.00    +0.000 A 
ATOM     22  C   UNL     1       2.220   8.917  17.720  0.00  0.00    +0.000 A 
ATOM     23  C   UNL     1       2.312   7.788  18.538  0.00  0.00    +0.000 A 
ENDBRANCH  17  18
ENDBRANCH  15  17
ENDBRANCH   2  15
TORSDOF 6
ENDMDL
MODEL 2
REMARK VINA RESULT:      -7.5      0.099      1.034
REMARK  Name = 
REMARK  9 active torsions:
REMARK  status: ('A' for Active; 'I' for Inactive)
REMARK    1  A    between atoms: C_1  and  C_2
REMARK    2  A    between atoms: C_2  and  C_3
REMARK    3  A    between atoms: C_3  and  C_4
REMARK    4  A    between atoms: C_4  and  C_6
REMARK    5  A    between atoms: C_7  and  N_8
REMARK    6  A    between atoms: N_8  and  C_9
REMARK    7  A    between atoms: C_9  and  C_10
REMARK    8  A    between atoms: C_17  and  C_18
REMARK    9  A    between atoms: C_17  and  C_19
REMARK                            x       y       z     vdW  Elec       q    Type
REMARK                         _______ _______ _______ _____ _____    ______ ____
ROOT
ATOM      1  C   UNL     1       4.323   4.590  18.771  0.00  0.00    +0.000 C 
ATOM      2  C   UNL     1       3.305   4.856  19.633  0.00  0.00    +0.000 C 
ATOM      3  C   UNL     1       2.078   3.955  19.713  0.00  0.00    +0.000 C 
ATOM      4  C   UNL     1       1.752   3.201  18.417  0.00  0.00    +0.000 C 
ATOM      5  C   UNL     1       0.669   2.148  18.698  0.00  0.00    +0.000 C 
ATOM      6  C   UNL     1       1.223   4.170  17.339  0.00  0.00    +0.000 C 
ATOM      7  C   UNL     1       3.019   2.493  17.943  0.00  0.00    +0.000 C 
ATOM      8  C   UNL     1       4.177   3.442  17.798  0.00  0.00    +0.000 C 
ATOM      9  O   UNL     1       4.989   3.267  16.889  0.00  0.00    +0.000 OA
ENDROOT
BRANCH   1  10
ATOM     10  C   UNL     1       5.608   5.393  18.769  0.00  0.00    +0.000 C 
ATOM     11  O   UNL     1       6.447   5.257  19.660  0.00  0.00    +0.000 OA
BRANCH  10  12
ATOM     12  C   UNL     1       5.832   6.370  17.612  0.00  0.00    +0.000 C 
BRANCH  12  14
ATOM     13  C   UNL     1       7.762   7.982  17.634  0.00  0.00    +0.000 C 
ATOM     14  C   UNL     1       7.292   6.586  17.223  0.00  0.00    +0.000 C 
ENDBRANCH  12  14
ENDBRANCH  10  12
ENDBRANCH   1  10
BRANCH   2  15
ATOM     15  N   UNL     1       3.152   5.982  20.454  0.00  0.00    +0.000 N 
ATOM     16  H   UNL     1       3.588   5.810  21.364  0.00  0.00    +0.000 HD
BRANCH  15  17
ATOM     17  C   UNL     1       1.858   6.618  20.722  0.00  0.00    +0.000 C 
BRANCH  17  18
ATOM     18  C   UNL     1       1.712   7.865  19.879  0.00  0.00    +0.000 A 
ATOM     19  C   UNL     1       2.264   7.913  18.589  0.00  0.00    +0.000 A 
ATOM     20  C   UNL     1       2.119   9.049  17.791  0.00  0.00    +0.000 A 
ATOM     21  C   UNL     1       1.425  10.156  18.276  0.00  0.00    +0.000 A 
ATOM     22  C   UNL     1       0.885  10.129  19.563  0.00  0.00    +0.000 A 
ATOM     23  C   UNL     1       1.029   8.991  20.361  0.00  0.00    +0.000 A 
ENDBRANCH  17  18
ENDBRANCH  15  17
ENDBRANCH   2  15
TORSDOF 6
ENDMDL
MODEL 3
REMARK VINA RESULT:      -7.4      2.518      5.013
REMARK  Name = 
REMARK  9 active torsions:
REMARK  status: ('A' for Active; 'I' for Inactive)
REMARK    1  A    between atoms: C_1  and  C_2
REMARK    2  A    between atoms: C_2  and  C_3
REMARK    3  A    between atoms: C_3  and  C_4
REMARK    4  A    between atoms: C_4  and  C_6
REMARK    5  A    between atoms: C_7  and  N_8
REMARK    6  A    between atoms: N_8  and  C_9
REMARK    7  A    between atoms: C_9  and  C_10
REMARK    8  A    between atoms: C_17  and  C_18
REMARK    9  A    between atoms: C_17  and  C_19
REMARK                            x       y       z     vdW  Elec       q    Type
REMARK                         _______ _______ _______ _____ _____    ______ ____
ROOT
ATOM      1  C   UNL     1       5.658   5.091  16.834  0.00  0.00    +0.000 C 
ATOM      2  C   UNL     1       4.595   4.303  17.149  0.00  0.00    +0.000 C 
ATOM      3  C   UNL     1       3.247   4.906  17.527  0.00  0.00    +0.000 C 
ATOM      4  C   UNL     1       3.324   6.305  18.154  0.00  0.00    +0.000 C 
ATOM      5  C   UNL     1       1.911   6.900  18.250  0.00  0.00    +0.000 C 
ATOM      6  C   UNL     1       3.922   6.235  19.575  0.00  0.00    +0.000 C 
ATOM      7  C   UNL     1       4.173   7.190  17.246  0.00  0.00    +0.000 C 
ATOM      8  C   UNL     1       5.525   6.590  16.973  0.00  0.00    +0.000 C 
ATOM      9  O   UNL     1       6.503   7.332  16.865  0.00  0.00    +0.000 OA
ENDROOT
BRANCH   1  10
ATOM     10  C   UNL     1       6.965   4.515  16.327  0.00  0.00    +0.000 C 
ATOM     11  O   UNL     1       7.864   4.191  17.105  0.00  0.00    +0.000 OA
BRANCH  10  12
ATOM     12  C   UNL     1       7.123   4.336  14.816  0.00  0.00    +0.000 C 
BRANCH  12  14
ATOM     13  C   UNL     1       6.075   3.515  12.683  0.00  0.00    +0.000 C 
ATOM     14  C   UNL     1       5.818   4.157  14.046  0.00  0.00    +0.000 C 
ENDBRANCH  12  14
ENDBRANCH  10  12
ENDBRANCH   1  10
BRANCH   2  15
ATOM     15  N   UNL     1       4.576   2.909  17.291  0.00  0.00    +0.000 N 
ATOM     16  H   UNL     1       5.082   2.474  16.515  0.00  0.00    +0.000 HD
BRANCH  15  17
ATOM     17  C   UNL     1       3.347   2.132  17.479  0.00  0.00    +0.000 C 
BRANCH  17  18
ATOM     18  C   UNL     1       2.753   2.426  18.838  0.00  0.00    +0.000 A 
ATOM     19  C   UNL     1       3.565   2.405  19.983  0.00  0.00    +0.000 A 
ATOM     20  C   UNL     1       3.036   2.695  21.241  0.00  0.00    +0.000 A 
ATOM     21  C   UNL     1       1.682   3.001  21.373  0.00  0.00    +0.000 A 
ATOM     22  C   UNL     1       0.859   3.009  20.246  0.00  0.00    +0.000 A 
ATOM     23  C   UNL     1       1.389   2.720  18.986  0.00  0.00    +0.000 A 
ENDBRANCH  17  18
ENDBRANCH  15  17
ENDBRANCH   2  15
TORSDOF 6
ENDMDL
MODEL 4
REMARK VINA RESULT:      -7.4      2.535      5.004
REMARK  Name = 
REMARK  9 active torsions:
REMARK  status: ('A' for Active; 'I' for Inactive)
REMARK    1  A    between atoms: C_1  and  C_2
REMARK    2  A    between atoms: C_2  and  C_3
REMARK    3  A    between atoms: C_3  and  C_4
REMARK    4  A    between atoms: C_4  and  C_6
REMARK    5  A    between atoms: C_7  and  N_8
REMARK    6  A    between atoms: N_8  and  C_9
REMARK    7  A    between atoms: C_9  and  C_10
REMARK    8  A    between atoms: C_17  and  C_18
REMARK    9  A    between atoms: C_17  and  C_19
REMARK                            x       y       z     vdW  Elec       q    Type
REMARK                         _______ _______ _______ _____ _____    ______ ____
ROOT
ATOM      1  C   UNL     1       5.649   5.160  16.785  0.00  0.00    +0.000 C 
ATOM      2  C   UNL     1       4.602   4.359  17.123  0.00  0.00    +0.000 C 
ATOM      3  C   UNL     1       3.258   4.946  17.538  0.00  0.00    +0.000 C 
ATOM      4  C   UNL     1       3.336   6.344  18.168  0.00  0.00    +0.000 C 
ATOM      5  C   UNL     1       1.919   6.923  18.302  0.00  0.00    +0.000 C 
ATOM      6  C   UNL     1       3.971   6.274  19.573  0.00  0.00    +0.000 C 
ATOM      7  C   UNL     1       4.153   7.241  17.242  0.00  0.00    +0.000 C 
ATOM      8  C   UNL     1       5.504   6.656  16.933  0.00  0.00    +0.000 C 
ATOM      9  O   UNL     1       6.470   7.409  16.804  0.00  0.00    +0.000 OA
ENDROOT
BRANCH   1  10
ATOM     10  C   UNL     1       6.949   4.600  16.243  0.00  0.00    +0.000 C 
ATOM     11  O   UNL     1       7.825   4.175  16.998  0.00  0.00    +0.000 OA
BRANCH  10  12
ATOM     12  C   UNL     1       7.129   4.567  14.724  0.00  0.00    +0.000 C 
BRANCH  12  14
ATOM     13  C   UNL     1       6.421   3.636  12.498  0.00  0.00    +0.000 C 
ATOM     14  C   UNL     1       6.018   3.856  13.956  0.00  0.00    +0.000 C 
ENDBRANCH  12  14
ENDBRANCH  10  12
ENDBRANCH   1  10
BRANCH   2  15
ATOM     15  N   UNL     1       4.602   2.965  17.260  0.00  0.00    +0.000 N 
ATOM     16  H   UNL     1       5.108   2.539  16.479  0.00  0.00    +0.000 HD
BRANCH  15  17
ATOM     17  C   UNL     1       3.384   2.171  17.452  0.00  0.00    +0.000 C 
BRANCH  17  18
ATOM     18  C   UNL     1       2.790   2.459  18.813  0.00  0.00    +0.000 A 
ATOM     19  C   UNL     1       1.422   2.750  18.937  0.00  0.00    +0.000 A 
ATOM     20  C   UNL     1       0.854   2.997  20.188  0.00  0.00    +0.000 A 
ATOM     21  C   UNL     1       1.650   2.964  21.332  0.00  0.00    +0.000 A 
ATOM     22  C   UNL     1       3.014   2.692  21.222  0.00  0.00    +0.000 A 
ATOM     23  C   UNL     1       3.582   2.444  19.970  0.00  0.00    +0.000 A 
ENDBRANCH  17  18
ENDBRANCH  15  17
ENDBRANCH   2  15
TORSDOF 6
ENDMDL
MODEL 5
REMARK VINA RESULT:      -7.3      2.735      5.234
REMARK  Name = 
REMARK  9 active torsions:
REMARK  status: ('A' for Active; 'I' for Inactive)
REMARK    1  A    between atoms: C_1  and  C_2
REMARK    2  A    between atoms: C_2  and  C_3
REMARK    3  A    between atoms: C_3  and  C_4
REMARK    4  A    between atoms: C_4  and  C_6
REMARK    5  A    between atoms: C_7  and  N_8
REMARK    6  A    between atoms: N_8  and  C_9
REMARK    7  A    between atoms: C_9  and  C_10
REMARK    8  A    between atoms: C_17  and  C_18
REMARK    9  A    between atoms: C_17  and  C_19
REMARK                            x       y       z     vdW  Elec       q    Type
REMARK                         _______ _______ _______ _____ _____    ______ ____
ROOT
ATOM      1  C   UNL     1       4.761   4.873  16.324  0.00  0.00    +0.000 C 
ATOM      2  C   UNL     1       3.625   4.359  16.867  0.00  0.00    +0.000 C 
ATOM      3  C   UNL     1       2.703   5.212  17.730  0.00  0.00    +0.000 C 
ATOM      4  C   UNL     1       3.400   6.368  18.463  0.00  0.00    +0.000 C 
ATOM      5  C   UNL     1       2.340   7.293  19.081  0.00  0.00    +0.000 C 
ATOM      6  C   UNL     1       4.301   5.832  19.595  0.00  0.00    +0.000 C 
ATOM      7  C   UNL     1       4.214   7.160  17.443  0.00  0.00    +0.000 C 
ATOM      8  C   UNL     1       5.169   6.284  16.678  0.00  0.00    +0.000 C 
ATOM      9  O   UNL     1       6.268   6.734  16.351  0.00  0.00    +0.000 OA
ENDROOT
BRANCH   1  10
ATOM     10  C   UNL     1       5.620   4.084  15.357  0.00  0.00    +0.000 C 
ATOM     11  O   UNL     1       6.200   3.056  15.710  0.00  0.00    +0.000 OA
BRANCH  10  12
ATOM     12  C   UNL     1       5.730   4.600  13.920  0.00  0.00    +0.000 C 
BRANCH  12  14
ATOM     13  C   UNL     1       4.851   3.296  11.959  0.00  0.00    +0.000 C 
ATOM     14  C   UNL     1       6.051   3.538  12.873  0.00  0.00    +0.000 C 
ENDBRANCH  12  14
ENDBRANCH  10  12
ENDBRANCH   1  10
BRANCH   2  15
ATOM     15  N   UNL     1       3.191   3.027  16.839  0.00  0.00    +0.000 N 
ATOM     16  H   UNL     1       2.173   2.996  16.725  0.00  0.00    +0.000 HD
BRANCH  15  17
ATOM     17  C   UNL     1       3.527   2.043  17.872  0.00  0.00    +0.000 C 
BRANCH  17  18
ATOM     18  C   UNL     1       2.742   2.330  19.133  0.00  0.00    +0.000 A 
ATOM     19  C   UNL     1       3.406   2.461  20.363  0.00  0.00    +0.000 A 
ATOM     20  C   UNL     1       2.698   2.746  21.531  0.00  0.00    +0.000 A 
ATOM     21  C   UNL     1       1.313   2.895  21.486  0.00  0.00    +0.000 A 
ATOM     22  C   UNL     1       0.637   2.751  20.274  0.00  0.00    +0.000 A 
ATOM     23  C   UNL     1       1.346   2.467  19.104  0.00  0.00    +0.000 A 
ENDBRANCH  17  18
ENDBRANCH  15  17
ENDBRANCH   2  15
TORSDOF 6
ENDMDL
MODEL 6
REMARK VINA RESULT:      -7.3      1.862      4.372
REMARK  Name = 
REMARK  9 active torsions:
REMARK  status: ('A' for Active; 'I' for Inactive)
REMARK    1  A    between atoms: C_1  and  C_2
REMARK    2  A    between atoms: C_2  and  C_3
REMARK    3  A    between atoms: C_3  and  C_4
REMARK    4  A    between atoms: C_4  and  C_6
REMARK    5  A    between atoms: C_7  and  N_8
REMARK    6  A    between atoms: N_8  and  C_9
REMARK    7  A    between atoms: C_9  and  C_10
REMARK    8  A    between atoms: C_17  and  C_18
REMARK    9  A    between atoms: C_17  and  C_19
REMARK                            x       y       z     vdW  Elec       q    Type
REMARK                         _______ _______ _______ _____ _____    ______ ____
ROOT
ATOM      1  C   UNL     1       3.545   4.712  17.722  0.00  0.00    +0.000 C 
ATOM      2  C   UNL     1       4.061   5.941  17.455  0.00  0.00    +0.000 C 
ATOM      3  C   UNL     1       5.230   6.119  16.494  0.00  0.00    +0.000 C 
ATOM      4  C   UNL     1       6.161   4.902  16.387  0.00  0.00    +0.000 C 
ATOM      5  C   UNL     1       7.133   5.105  15.215  0.00  0.00    +0.000 C 
ATOM      6  C   UNL     1       6.984   4.728  17.680  0.00  0.00    +0.000 C 
ATOM      7  C   UNL     1       5.306   3.668  16.112  0.00  0.00    +0.000 C 
ATOM      8  C   UNL     1       4.220   3.492  17.138  0.00  0.00    +0.000 C 
ATOM      9  O   UNL     1       3.897   2.355  17.484  0.00  0.00    +0.000 OA
ENDROOT
BRANCH   1  10
ATOM     10  C   UNL     1       2.301   4.526  18.567  0.00  0.00    +0.000 C 
ATOM     11  O   UNL     1       1.194   4.370  18.049  0.00  0.00    +0.000 OA
BRANCH  10  12
ATOM     12  C   UNL     1       2.470   4.525  20.088  0.00  0.00    +0.000 C 
BRANCH  12  14
ATOM     13  C   UNL     1       1.774   2.639  21.597  0.00  0.00    +0.000 C 
ATOM     14  C   UNL     1       1.316   3.901  20.867  0.00  0.00    +0.000 C 
ENDBRANCH  12  14
ENDBRANCH  10  12
ENDBRANCH   1  10
BRANCH   2  15
ATOM     15  N   UNL     1       3.722   7.160  18.058  0.00  0.00    +0.000 N 
ATOM     16  H   UNL     1       3.491   7.008  19.044  0.00  0.00    +0.000 HD
BRANCH  15  17
ATOM     17  C   UNL     1       2.704   8.071  17.526  0.00  0.00    +0.000 C 
BRANCH  17  18
ATOM     18  C   UNL     1       1.818   8.567  18.646  0.00  0.00    +0.000 A 
ATOM     19  C   UNL     1       1.900   7.985  19.921  0.00  0.00    +0.000 A 
ATOM     20  C   UNL     1       1.105   8.446  20.971  0.00  0.00    +0.000 A 
ATOM     21  C   UNL     1       0.209   9.492  20.757  0.00  0.00    +0.000 A 
ATOM     22  C   UNL     1       0.103  10.070  19.491  0.00  0.00    +0.000 A 
ATOM     23  C   UNL     1       0.901   9.609  18.440  0.00  0.00    +0.000 A 
ENDBRANCH  17  18
ENDBRANCH  15  17
ENDBRANCH   2  15
TORSDOF 6
ENDMDL
MODEL 7
REMARK VINA RESULT:      -7.3      1.642      4.373
REMARK  Name = 
REMARK  9 active torsions:
REMARK  status: ('A' for Active; 'I' for Inactive)
REMARK    1  A    between atoms: C_1  and  C_2
REMARK    2  A    between atoms: C_2  and  C_3
REMARK    3  A    between atoms: C_3  and  C_4
REMARK    4  A    between atoms: C_4  and  C_6
REMARK    5  A    between atoms: C_7  and  N_8
REMARK    6  A    between atoms: N_8  and  C_9
REMARK    7  A    between atoms: C_9  and  C_10
REMARK    8  A    between atoms: C_17  and  C_18
REMARK    9  A    between atoms: C_17  and  C_19
REMARK                            x       y       z     vdW  Elec       q    Type
REMARK                         _______ _______ _______ _____ _____    ______ ____
ROOT
ATOM      1  C   UNL     1       2.953   4.618  18.206  0.00  0.00    +0.000 C 
ATOM      2  C   UNL     1       3.201   5.954  18.140  0.00  0.00    +0.000 C 
ATOM      3  C   UNL     1       4.512   6.489  17.574  0.00  0.00    +0.000 C 
ATOM      4  C   UNL     1       5.706   5.534  17.713  0.00  0.00    +0.000 C 
ATOM      5  C   UNL     1       6.887   6.070  16.888  0.00  0.00    +0.000 C 
ATOM      6  C   UNL     1       6.149   5.424  19.187  0.00  0.00    +0.000 C 
ATOM      7  C   UNL     1       5.296   4.171  17.162  0.00  0.00    +0.000 C 
ATOM      8  C   UNL     1       4.044   3.650  17.814  0.00  0.00    +0.000 C 
ATOM      9  O   UNL     1       3.930   2.440  18.016  0.00  0.00    +0.000 OA
ENDROOT
BRANCH   1  10
ATOM     10  C   UNL     1       1.608   4.070  18.639  0.00  0.00    +0.000 C 
ATOM     11  O   UNL     1       0.869   3.489  17.842  0.00  0.00    +0.000 OA
BRANCH  10  12
ATOM     12  C   UNL     1       1.206   4.250  20.104  0.00  0.00    +0.000 C 
BRANCH  12  14
ATOM     13  C   UNL     1       2.590   2.674  21.491  0.00  0.00    +0.000 C 
ATOM     14  C   UNL     1       1.197   2.970  20.935  0.00  0.00    +0.000 C 
ENDBRANCH  12  14
ENDBRANCH  10  12
ENDBRANCH   1  10
BRANCH   2  15
ATOM     15  N   UNL     1       2.416   6.996  18.649  0.00  0.00    +0.000 N 
ATOM     16  H   UNL     1       1.441   6.692  18.724  0.00  0.00    +0.000 HD
BRANCH  15  17
ATOM     17  C   UNL     1       2.390   8.345  18.076  0.00  0.00    +0.000 C 
BRANCH  17  18
ATOM     18  C   UNL     1       1.296   9.162  18.725  0.00  0.00    +0.000 A 
ATOM     19  C   UNL     1       0.423   9.926  17.935  0.00  0.00    +0.000 A 
ATOM     20  C   UNL     1      -0.605  10.668  18.518  0.00  0.00    +0.000 A 
ATOM     21  C   UNL     1      -0.770  10.662  19.902  0.00  0.00    +0.000 A 
ATOM     22  C   UNL     1       0.100   9.921  20.702  0.00  0.00    +0.000 A 
ATOM     23  C   UNL     1       1.129   9.177  20.118  0.00  0.00    +0.000 A 
ENDBRANCH  17  18
ENDBRANCH  15  17
ENDBRANCH   2  15
TORSDOF 6
ENDMDL
MODEL 8
REMARK VINA RESULT:      -7.3      2.321      5.107
REMARK  Name = 
REMARK  9 active torsions:
REMARK  status: ('A' for Active; 'I' for Inactive)
REMARK    1  A    between atoms: C_1  and  C_2
REMARK    2  A    between atoms: C_2  and  C_3
REMARK    3  A    between atoms: C_3  and  C_4
REMARK    4  A    between atoms: C_4  and  C_6
REMARK    5  A    between atoms: C_7  and  N_8
REMARK    6  A    between atoms: N_8  and  C_9
REMARK    7  A    between atoms: C_9  and  C_10
REMARK    8  A    between atoms: C_17  and  C_18
REMARK    9  A    between atoms: C_17  and  C_19
REMARK                            x       y       z     vdW  Elec       q    Type
REMARK                         _______ _______ _______ _____ _____    ______ ____
ROOT
ATOM      1  C   UNL     1       6.061   4.937  17.461  0.00  0.00    +0.000 C 
ATOM      2  C   UNL     1       5.576   3.786  16.922  0.00  0.00    +0.000 C 
ATOM      3  C   UNL     1       5.925   3.370  15.498  0.00  0.00    +0.000 C 
ATOM      4  C   UNL     1       6.251   4.534  14.552  0.00  0.00    +0.000 C 
ATOM      5  C   UNL     1       6.830   3.980  13.241  0.00  0.00    +0.000 C 
ATOM      6  C   UNL     1       4.978   5.342  14.222  0.00  0.00    +0.000 C 
ATOM      7  C   UNL     1       7.301   5.417  15.222  0.00  0.00    +0.000 C 
ATOM      8  C   UNL     1       6.869   5.870  16.590  0.00  0.00    +0.000 C 
ATOM      9  O   UNL     1       7.184   6.996  16.978  0.00  0.00    +0.000 OA
ENDROOT
BRANCH   1  10
ATOM     10  C   UNL     1       5.835   5.302  18.915  0.00  0.00    +0.000 C 
ATOM     11  O   UNL     1       6.682   5.052  19.774  0.00  0.00    +0.000 OA
BRANCH  10  12
ATOM     12  C   UNL     1       4.526   6.007  19.274  0.00  0.00    +0.000 C 
BRANCH  12  14
ATOM     13  C   UNL     1       2.495   7.309  18.566  0.00  0.00    +0.000 C 
ATOM     14  C   UNL     1       3.776   6.621  18.096  0.00  0.00    +0.000 C 
ENDBRANCH  12  14
ENDBRANCH  10  12
ENDBRANCH   1  10
BRANCH   2  15
ATOM     15  N   UNL     1       4.643   2.904  17.484  0.00  0.00    +0.000 N 
ATOM     16  H   UNL     1       4.833   1.949  17.168  0.00  0.00    +0.000 HD
BRANCH  15  17
ATOM     17  C   UNL     1       3.192   3.094  17.393  0.00  0.00    +0.000 C 
BRANCH  17  18
ATOM     18  C   UNL     1       2.592   3.162  18.780  0.00  0.00    +0.000 A 
ATOM     19  C   UNL     1       1.348   3.779  18.981  0.00  0.00    +0.000 A 
ATOM     20  C   UNL     1       0.771   3.831  20.251  0.00  0.00    +0.000 A 
ATOM     21  C   UNL     1       1.437   3.273  21.340  0.00  0.00    +0.000 A 
ATOM     22  C   UNL     1       2.683   2.671  21.159  0.00  0.00    +0.000 A 
ATOM     23  C   UNL     1       3.260   2.618  19.888  0.00  0.00    +0.000 A 
ENDBRANCH  17  18
ENDBRANCH  15  17
ENDBRANCH   2  15
TORSDOF 6
ENDMDL
MODEL 9
REMARK VINA RESULT:      -7.2      1.530      2.242
REMARK  Name = 
REMARK  9 active torsions:
REMARK  status: ('A' for Active; 'I' for Inactive)
REMARK    1  A    between atoms: C_1  and  C_2
REMARK    2  A    between atoms: C_2  and  C_3
REMARK    3  A    between atoms: C_3  and  C_4
REMARK    4  A    between atoms: C_4  and  C_6
REMARK    5  A    between atoms: C_7  and  N_8
REMARK    6  A    between atoms: N_8  and  C_9
REMARK    7  A    between atoms: C_9  and  C_10
REMARK    8  A    between atoms: C_17  and  C_18
REMARK    9  A    between atoms: C_17  and  C_19
REMARK                            x       y       z     vdW  Elec       q    Type
REMARK                         _______ _______ _______ _____ _____    ______ ____
ROOT
ATOM      1  C   UNL     1       4.565   5.513  17.306  0.00  0.00    +0.000 C 
ATOM      2  C   UNL     1       3.779   6.183  18.191  0.00  0.00    +0.000 C 
ATOM      3  C   UNL     1       2.922   5.440  19.210  0.00  0.00    +0.000 C 
ATOM      4  C   UNL     1       2.493   4.031  18.779  0.00  0.00    +0.000 C 
ATOM      5  C   UNL     1       1.864   3.300  19.976  0.00  0.00    +0.000 C 
ATOM      6  C   UNL     1       1.447   4.101  17.646  0.00  0.00    +0.000 C 
ATOM      7  C   UNL     1       3.735   3.267  18.330  0.00  0.00    +0.000 C 
ATOM      8  C   UNL     1       4.498   4.004  17.263  0.00  0.00    +0.000 C 
ATOM      9  O   UNL     1       5.058   3.364  16.372  0.00  0.00    +0.000 OA
ENDROOT
BRANCH   1  10
ATOM     10  C   UNL     1       5.524   6.231  16.377  0.00  0.00    +0.000 C 
ATOM     11  O   UNL     1       5.112   6.906  15.432  0.00  0.00    +0.000 OA
BRANCH  10  12
ATOM     12  C   UNL     1       7.021   6.099  16.662  0.00  0.00    +0.000 C 
BRANCH  12  14
ATOM     13  C   UNL     1       7.823   5.956  19.041  0.00  0.00    +0.000 C 
ATOM     14  C   UNL     1       7.522   6.889  17.868  0.00  0.00    +0.000 C 
ENDBRANCH  12  14
ENDBRANCH  10  12
ENDBRANCH   1  10
BRANCH   2  15
ATOM     15  N   UNL     1       3.536   7.562  18.246  0.00  0.00    +0.000 N 
ATOM     16  H   UNL     1       3.521   7.873  19.222  0.00  0.00    +0.000 HD
BRANCH  15  17
ATOM     17  C   UNL     1       2.402   8.211  17.582  0.00  0.00    +0.000 C 
BRANCH  17  18
ATOM     18  C   UNL     1       1.505   8.862  18.610  0.00  0.00    +0.000 A 
ATOM     19  C   UNL     1       1.551   8.446  19.950  0.00  0.00    +0.000 A 
ATOM     20  C   UNL     1       0.744   9.052  20.915  0.00  0.00    +0.000 A 
ATOM     21  C   UNL     1      -0.127  10.076  20.549  0.00  0.00    +0.000 A 
ATOM     22  C   UNL     1      -0.197  10.489  19.218  0.00  0.00    +0.000 A 
ATOM     23  C   UNL     1       0.612   9.884  18.252  0.00  0.00    +0.000 A 
ENDBRANCH  17  18
ENDBRANCH  15  17
ENDBRANCH   2  15
TORSDOF 6
ENDMDL
