MODEL 1
REMARK VINA RESULT:      -8.8      0.000      0.000
REMARK  Name = 
REMARK  9 active torsions:
REMARK  status: ('A' for Active; 'I' for Inactive)
REMARK    1  A    between atoms: C_1  and  N_2
REMARK    2  A    between atoms: C_6  and  C_8
REMARK    3  A    between atoms: C_8  and  C_9
REMARK    4  A    between atoms: C_8  and  O_10
REMARK    5  A    between atoms: O_10  and  C_11
REMARK    6  A    between atoms: C_11  and  C_13
REMARK    7  A    between atoms: C_21  and  C_22
REMARK    8  A    between atoms: C_22  and  S_23
REMARK    9  A    between atoms: S_23  and  C_24
REMARK                            x       y       z     vdW  Elec       q    Type
REMARK                         _______ _______ _______ _____ _____    ______ ____
ROOT
ATOM      1  C   UNL     1       3.687   5.450  17.893  0.00  0.00    +0.000 A 
ATOM      2  O   UNL     1       3.427   4.175  17.468  0.00  0.00    +0.000 OA
ATOM      3  C   UNL     1       2.443   3.673  18.262  0.00  0.00    +0.000 A 
ATOM      4  C   UNL     1       1.915   2.380  18.188  0.00  0.00    +0.000 A 
ATOM      5  C   UNL     1       0.902   2.049  19.096  0.00  0.00    +0.000 A 
ATOM      6  C   UNL     1       0.441   2.980  20.022  0.00  0.00    +0.000 A 
ATOM      7  C   UNL     1       0.988   4.269  20.069  0.00  0.00    +0.000 A 
ATOM      8  C   UNL     1       2.025   4.629  19.181  0.00  0.00    +0.000 A 
ATOM      9  C   UNL     1       2.852   5.786  18.961  0.00  0.00    +0.000 A 
ENDROOT
BRANCH   1  10
ATOM     10  C   UNL     1       4.697   6.249  17.235  0.00  0.00    +0.000 C 
ATOM     11  O   UNL     1       4.482   6.976  16.273  0.00  0.00    +0.000 OA
BRANCH  10  12
ATOM     12  O   UNL     1       5.940   6.044  17.766  0.00  0.00    +0.000 OA
BRANCH  12  13
ATOM     13  C   UNL     1       6.545   4.776  17.472  0.00  0.00    +0.000 C 
ATOM     14  C   UNL     1       7.987   4.685  17.996  0.00  0.00    +0.000 C 
BRANCH  13  20
ATOM     15  C   UNL     1       6.890   3.475  11.900  0.00  0.00    +0.000 C 
ATOM     16  N   UNL     1       6.798   3.856  13.278  0.00  0.00    +0.000 N 
ATOM     17  C   UNL     1       7.386   4.980  13.774  0.00  0.00    +0.000 C 
ATOM     18  O   UNL     1       8.084   5.736  13.108  0.00  0.00    +0.000 OA
ATOM     19  N   UNL     1       7.160   5.225  15.109  0.00  0.00    +0.000 N 
ATOM     20  C   UNL     1       6.504   4.380  15.987  0.00  0.00    +0.000 C 
ATOM     21  O   UNL     1       5.845   3.400  15.613  0.00  0.00    +0.000 OA
ATOM     22  H   UNL     1       6.301   3.253  13.928  0.00  0.00    +0.000 HD
ATOM     23  H   UNL     1       7.652   6.037  15.460  0.00  0.00    +0.000 HD
ENDBRANCH  13  20
ENDBRANCH  12  13
ENDBRANCH  10  12
ENDBRANCH   1  10
BRANCH   9  24
ATOM     24  C   UNL     1       2.868   7.110  19.684  0.00  0.00    +0.000 C 
BRANCH  24  25
ATOM     25  S   UNL     1       2.021   8.425  18.743  0.00  0.00    +0.000 S 
BRANCH  25  26
ATOM     26  C   UNL     1       0.952   9.212  19.927  0.00  0.00    +0.000 A 
ATOM     27  C   UNL     1       0.806   8.568  21.165  0.00  0.00    +0.000 A 
ATOM     28  C   UNL     1       0.075   9.155  22.200  0.00  0.00    +0.000 A 
ATOM     29  C   UNL     1      -0.514  10.399  22.003  0.00  0.00    +0.000 A 
ATOM     30 CL   UNL     1      -1.410  11.132  23.274  0.00  0.00    +0.000 Cl
ATOM     31  C   UNL     1      -0.373  11.056  20.780  0.00  0.00    +0.000 A 
ATOM     32  C   UNL     1       0.359  10.464  19.744  0.00  0.00    +0.000 A 
ENDBRANCH  25  26
ENDBRANCH  24  25
ENDBRANCH   9  24
TORSDOF 7
ENDMDL
MODEL 2
REMARK VINA RESULT:      -8.6      1.074      1.511
REMARK  Name = 
REMARK  9 active torsions:
REMARK  status: ('A' for Active; 'I' for Inactive)
REMARK    1  A    between atoms: C_1  and  N_2
REMARK    2  A    between atoms: C_6  and  C_8
REMARK    3  A    between atoms: C_8  and  C_9
REMARK    4  A    between atoms: C_8  and  O_10
REMARK    5  A    between atoms: O_10  and  C_11
REMARK    6  A    between atoms: C_11  and  C_13
REMARK    7  A    between atoms: C_21  and  C_22
REMARK    8  A    between atoms: C_22  and  S_23
REMARK    9  A    between atoms: S_23  and  C_24
REMARK                            x       y       z     vdW  Elec       q    Type
REMARK                         _______ _______ _______ _____ _____    ______ ____
ROOT
ATOM      1  C   UNL     1       3.509   5.737  18.014  0.00  0.00    +0.000 A 
ATOM      2  O   UNL     1       3.456   4.515  17.402  0.00  0.00    +0.000 OA
ATOM      3  C   UNL     1       2.557   3.755  18.087  0.00  0.00    +0.000 A 
ATOM      4  C   UNL     1       2.239   2.422  17.811  0.00  0.00    +0.000 A 
ATOM      5  C   UNL     1       1.285   1.808  18.632  0.00  0.00    +0.000 A 
ATOM      6  C   UNL     1       0.676   2.511  19.668  0.00  0.00    +0.000 A 
ATOM      7  C   UNL     1       1.014   3.848  19.917  0.00  0.00    +0.000 A 
ATOM      8  C   UNL     1       1.989   4.490  19.121  0.00  0.00    +0.000 A 
ATOM      9  C   UNL     1       2.625   5.780  19.095  0.00  0.00    +0.000 A 
ENDROOT
BRANCH   1  10
ATOM     10  C   UNL     1       4.386   6.771  17.508  0.00  0.00    +0.000 C 
ATOM     11  O   UNL     1       4.154   7.445  16.512  0.00  0.00    +0.000 OA
BRANCH  10  12
ATOM     12  O   UNL     1       5.543   6.861  18.230  0.00  0.00    +0.000 OA
BRANCH  12  13
ATOM     13  C   UNL     1       6.502   5.814  18.010  0.00  0.00    +0.000 C 
ATOM     14  C   UNL     1       7.689   5.900  18.981  0.00  0.00    +0.000 C 
BRANCH  13  20
ATOM     15  C   UNL     1       7.935   5.296  12.484  0.00  0.00    +0.000 C 
ATOM     16  N   UNL     1       7.579   5.367  13.870  0.00  0.00    +0.000 N 
ATOM     17  C   UNL     1       6.725   4.486  14.459  0.00  0.00    +0.000 C 
ATOM     18  O   UNL     1       6.147   3.589  13.856  0.00  0.00    +0.000 OA
ATOM     19  N   UNL     1       6.527   4.667  15.809  0.00  0.00    +0.000 N 
ATOM     20  C   UNL     1       7.017   5.717  16.564  0.00  0.00    +0.000 C 
ATOM     21  O   UNL     1       7.884   6.498  16.150  0.00  0.00    +0.000 OA
ATOM     22  H   UNL     1       7.950   6.123  14.440  0.00  0.00    +0.000 HD
ATOM     23  H   UNL     1       5.847   4.029  16.207  0.00  0.00    +0.000 HD
ENDBRANCH  13  20
ENDBRANCH  12  13
ENDBRANCH  10  12
ENDBRANCH   1  10
BRANCH   9  24
ATOM     24  C   UNL     1       2.428   6.971  20.001  0.00  0.00    +0.000 C 
BRANCH  24  25
ATOM     25  S   UNL     1       1.699   8.397  19.125  0.00  0.00    +0.000 S 
BRANCH  25  26
ATOM     26  C   UNL     1       0.816   9.295  20.381  0.00  0.00    +0.000 A 
ATOM     27  C   UNL     1       0.248  10.519  19.995  0.00  0.00    +0.000 A 
ATOM     28  C   UNL     1      -0.554  11.249  20.874  0.00  0.00    +0.000 A 
ATOM     29  C   UNL     1      -0.797  10.755  22.151  0.00  0.00    +0.000 A 
ATOM     30 CL   UNL     1      -1.789  11.644  23.238  0.00  0.00    +0.000 Cl
ATOM     31  C   UNL     1      -0.245   9.537  22.548  0.00  0.00    +0.000 A 
ATOM     32  C   UNL     1       0.560   8.807  21.665  0.00  0.00    +0.000 A 
ENDBRANCH  25  26
ENDBRANCH  24  25
ENDBRANCH   9  24
TORSDOF 7
ENDMDL
MODEL 3
REMARK VINA RESULT:      -8.4      1.489      1.971
REMARK  Name = 
REMARK  9 active torsions:
REMARK  status: ('A' for Active; 'I' for Inactive)
REMARK    1  A    between atoms: C_1  and  N_2
REMARK    2  A    between atoms: C_6  and  C_8
REMARK    3  A    between atoms: C_8  and  C_9
REMARK    4  A    between atoms: C_8  and  O_10
REMARK    5  A    between atoms: O_10  and  C_11
REMARK    6  A    between atoms: C_11  and  C_13
REMARK    7  A    between atoms: C_21  and  C_22
REMARK    8  A    between atoms: C_22  and  S_23
REMARK    9  A    between atoms: S_23  and  C_24
REMARK                            x       y       z     vdW  Elec       q    Type
REMARK                         _______ _______ _______ _____ _____    ______ ____
ROOT
ATOM      1  C   UNL     1       5.041   4.324  19.138  0.00  0.00    +0.000 A 
ATOM      2  O   UNL     1       4.826   2.996  18.886  0.00  0.00    +0.000 OA
ATOM      3  C   UNL     1       3.480   2.803  18.839  0.00  0.00    +0.000 A 
ATOM      4  C   UNL     1       2.838   1.576  18.646  0.00  0.00    +0.000 A 
ATOM      5  C   UNL     1       1.439   1.581  18.627  0.00  0.00    +0.000 A 
ATOM      6  C   UNL     1       0.726   2.767  18.783  0.00  0.00    +0.000 A 
ATOM      7  C   UNL     1       1.399   3.982  18.971  0.00  0.00    +0.000 A 
ATOM      8  C   UNL     1       2.810   4.008  19.016  0.00  0.00    +0.000 A 
ATOM      9  C   UNL     1       3.826   5.004  19.238  0.00  0.00    +0.000 A 
ENDROOT
BRANCH   1  10
ATOM     10  C   UNL     1       6.389   4.839  19.246  0.00  0.00    +0.000 C 
ATOM     11  O   UNL     1       6.727   5.727  20.018  0.00  0.00    +0.000 OA
BRANCH  10  12
ATOM     12  O   UNL     1       7.231   4.268  18.333  0.00  0.00    +0.000 OA
BRANCH  12  13
ATOM     13  C   UNL     1       7.562   5.078  17.194  0.00  0.00    +0.000 C 
ATOM     14  C   UNL     1       7.160   6.548  17.390  0.00  0.00    +0.000 C 
BRANCH  13  20
ATOM     15  C   UNL     1       5.957   3.215  12.016  0.00  0.00    +0.000 C 
ATOM     16  N   UNL     1       6.356   3.735  13.289  0.00  0.00    +0.000 N 
ATOM     17  C   UNL     1       7.231   4.770  13.424  0.00  0.00    +0.000 C 
ATOM     18  O   UNL     1       7.792   5.316  12.480  0.00  0.00    +0.000 OA
ATOM     19  N   UNL     1       7.471   5.179  14.715  0.00  0.00    +0.000 N 
ATOM     20  C   UNL     1       7.002   4.558  15.859  0.00  0.00    +0.000 C 
ATOM     21  O   UNL     1       6.120   3.689  15.842  0.00  0.00    +0.000 OA
ATOM     22  H   UNL     1       6.001   3.300  14.137  0.00  0.00    +0.000 HD
ATOM     23  H   UNL     1       8.164   5.914  14.785  0.00  0.00    +0.000 HD
ENDBRANCH  13  20
ENDBRANCH  12  13
ENDBRANCH  10  12
ENDBRANCH   1  10
BRANCH   9  24
ATOM     24  C   UNL     1       3.683   6.480  19.517  0.00  0.00    +0.000 C 
BRANCH  24  25
ATOM     25  S   UNL     1       2.933   7.382  18.118  0.00  0.00    +0.000 S 
BRANCH  25  26
ATOM     26  C   UNL     1       1.818   8.543  18.875  0.00  0.00    +0.000 A 
ATOM     27  C   UNL     1       1.137   9.414  18.011  0.00  0.00    +0.000 A 
ATOM     28  C   UNL     1       0.163  10.289  18.493  0.00  0.00    +0.000 A 
ATOM     29  C   UNL     1      -0.141  10.297  19.850  0.00  0.00    +0.000 A 
ATOM     30 CL   UNL     1      -1.345  11.367  20.451  0.00  0.00    +0.000 Cl
ATOM     31  C   UNL     1       0.522   9.434  20.722  0.00  0.00    +0.000 A 
ATOM     32  C   UNL     1       1.500   8.557  20.236  0.00  0.00    +0.000 A 
ENDBRANCH  25  26
ENDBRANCH  24  25
ENDBRANCH   9  24
TORSDOF 7
ENDMDL
MODEL 4
REMARK VINA RESULT:      -8.4      2.776      3.875
REMARK  Name = 
REMARK  9 active torsions:
REMARK  status: ('A' for Active; 'I' for Inactive)
REMARK    1  A    between atoms: C_1  and  N_2
REMARK    2  A    between atoms: C_6  and  C_8
REMARK    3  A    between atoms: C_8  and  C_9
REMARK    4  A    between atoms: C_8  and  O_10
REMARK    5  A    between atoms: O_10  and  C_11
REMARK    6  A    between atoms: C_11  and  C_13
REMARK    7  A    between atoms: C_21  and  C_22
REMARK    8  A    between atoms: C_22  and  S_23
REMARK    9  A    between atoms: S_23  and  C_24
REMARK                            x       y       z     vdW  Elec       q    Type
REMARK                         _______ _______ _______ _____ _____    ______ ____
ROOT
ATOM      1  C   UNL     1       4.098   5.222  17.084  0.00  0.00    +0.000 A 
ATOM      2  O   UNL     1       4.190   3.858  17.038  0.00  0.00    +0.000 OA
ATOM      3  C   UNL     1       3.143   3.354  17.748  0.00  0.00    +0.000 A 
ATOM      4  C   UNL     1       2.894   1.999  17.983  0.00  0.00    +0.000 A 
ATOM      5  C   UNL     1       1.760   1.677  18.738  0.00  0.00    +0.000 A 
ATOM      6  C   UNL     1       0.917   2.675  19.220  0.00  0.00    +0.000 A 
ATOM      7  C   UNL     1       1.192   4.025  18.964  0.00  0.00    +0.000 A 
ATOM      8  C   UNL     1       2.339   4.384  18.223  0.00  0.00    +0.000 A 
ATOM      9  C   UNL     1       2.972   5.610  17.814  0.00  0.00    +0.000 A 
ENDROOT
BRANCH   1  10
ATOM     10  C   UNL     1       5.081   6.045  16.414  0.00  0.00    +0.000 C 
ATOM     11  O   UNL     1       5.303   6.010  15.210  0.00  0.00    +0.000 OA
BRANCH  10  12
ATOM     12  O   UNL     1       5.788   6.818  17.293  0.00  0.00    +0.000 OA
BRANCH  12  13
ATOM     13  C   UNL     1       7.209   6.607  17.309  0.00  0.00    +0.000 C 
ATOM     14  C   UNL     1       7.580   5.190  17.774  0.00  0.00    +0.000 C 
BRANCH  13  20
ATOM     15  C   UNL     1       9.778  10.833  20.207  0.00  0.00    +0.000 C 
ATOM     16  N   UNL     1       9.156   9.800  19.433  0.00  0.00    +0.000 N 
ATOM     17  C   UNL     1       8.550  10.036  18.237  0.00  0.00    +0.000 C 
ATOM     18  O   UNL     1       8.435  11.150  17.738  0.00  0.00    +0.000 OA
ATOM     19  N   UNL     1       8.044   8.926  17.601  0.00  0.00    +0.000 N 
ATOM     20  C   UNL     1       7.997   7.646  18.123  0.00  0.00    +0.000 C 
ATOM     21  O   UNL     1       8.615   7.311  19.144  0.00  0.00    +0.000 OA
ATOM     22  H   UNL     1       9.134   8.851  19.798  0.00  0.00    +0.000 HD
ATOM     23  H   UNL     1       7.554   9.141  16.741  0.00  0.00    +0.000 HD
ENDBRANCH  13  20
ENDBRANCH  12  13
ENDBRANCH  10  12
ENDBRANCH   1  10
BRANCH   9  24
ATOM     24  C   UNL     1       2.563   7.039  18.074  0.00  0.00    +0.000 C 
BRANCH  24  25
ATOM     25  S   UNL     1       2.376   7.394  19.855  0.00  0.00    +0.000 S 
BRANCH  25  26
ATOM     26  C   UNL     1       1.266   8.782  19.925  0.00  0.00    +0.000 A 
ATOM     27  C   UNL     1       1.137   9.542  18.753  0.00  0.00    +0.000 A 
ATOM     28  C   UNL     1       0.215  10.586  18.670  0.00  0.00    +0.000 A 
ATOM     29  C   UNL     1      -0.593  10.876  19.765  0.00  0.00    +0.000 A 
ATOM     30 CL   UNL     1      -1.737  12.156  19.668  0.00  0.00    +0.000 Cl
ATOM     31  C   UNL     1      -0.482  10.126  20.935  0.00  0.00    +0.000 A 
ATOM     32  C   UNL     1       0.445   9.080  21.016  0.00  0.00    +0.000 A 
ENDBRANCH  25  26
ENDBRANCH  24  25
ENDBRANCH   9  24
TORSDOF 7
ENDMDL
MODEL 5
REMARK VINA RESULT:      -8.3      2.602      3.712
REMARK  Name = 
REMARK  9 active torsions:
REMARK  status: ('A' for Active; 'I' for Inactive)
REMARK    1  A    between atoms: C_1  and  N_2
REMARK    2  A    between atoms: C_6  and  C_8
REMARK    3  A    between atoms: C_8  and  C_9
REMARK    4  A    between atoms: C_8  and  O_10
REMARK    5  A    between atoms: O_10  and  C_11
REMARK    6  A    between atoms: C_11  and  C_13
REMARK    7  A    between atoms: C_21  and  C_22
REMARK    8  A    between atoms: C_22  and  S_23
REMARK    9  A    between atoms: S_23  and  C_24
REMARK                            x       y       z     vdW  Elec       q    Type
REMARK                         _______ _______ _______ _____ _____    ______ ____
ROOT
ATOM      1  C   UNL     1       4.055   4.701  17.905  0.00  0.00    +0.000 A 
ATOM      2  O   UNL     1       4.489   3.661  18.681  0.00  0.00    +0.000 OA
ATOM      3  C   UNL     1       3.514   3.398  19.593  0.00  0.00    +0.000 A 
ATOM      4  C   UNL     1       3.580   2.433  20.603  0.00  0.00    +0.000 A 
ATOM      5  C   UNL     1       2.470   2.311  21.447  0.00  0.00    +0.000 A 
ATOM      6  C   UNL     1       1.348   3.116  21.271  0.00  0.00    +0.000 A 
ATOM      7  C   UNL     1       1.310   4.072  20.247  0.00  0.00    +0.000 A 
ATOM      8  C   UNL     1       2.422   4.235  19.391  0.00  0.00    +0.000 A 
ATOM      9  C   UNL     1       2.780   5.107  18.304  0.00  0.00    +0.000 A 
ENDROOT
BRANCH   1  10
ATOM     10  C   UNL     1       4.885   5.211  16.835  0.00  0.00    +0.000 C 
ATOM     11  O   UNL     1       4.966   4.703  15.724  0.00  0.00    +0.000 OA
BRANCH  10  12
ATOM     12  O   UNL     1       5.627   6.289  17.231  0.00  0.00    +0.000 OA
BRANCH  12  13
ATOM     13  C   UNL     1       7.050   6.096  17.252  0.00  0.00    +0.000 C 
ATOM     14  C   UNL     1       7.443   4.732  17.838  0.00  0.00    +0.000 C 
BRANCH  13  20
ATOM     15  C   UNL     1       9.565  10.581  19.787  0.00  0.00    +0.000 C 
ATOM     16  N   UNL     1       8.950   9.483  19.102  0.00  0.00    +0.000 N 
ATOM     17  C   UNL     1       8.217   9.639  17.964  0.00  0.00    +0.000 C 
ATOM     18  O   UNL     1       7.974  10.726  17.453  0.00  0.00    +0.000 OA
ATOM     19  N   UNL     1       7.736   8.477  17.406  0.00  0.00    +0.000 N 
ATOM     20  C   UNL     1       7.833   7.214  17.961  0.00  0.00    +0.000 C 
ATOM     21  O   UNL     1       8.568   6.955  18.924  0.00  0.00    +0.000 OA
ATOM     22  H   UNL     1       9.032   8.547  19.489  0.00  0.00    +0.000 HD
ATOM     23  H   UNL     1       7.153   8.630  16.593  0.00  0.00    +0.000 HD
ENDBRANCH  13  20
ENDBRANCH  12  13
ENDBRANCH  10  12
ENDBRANCH   1  10
BRANCH   9  24
ATOM     24  C   UNL     1       1.997   6.232  17.674  0.00  0.00    +0.000 C 
BRANCH  24  25
ATOM     25  S   UNL     1       2.719   7.869  18.038  0.00  0.00    +0.000 S 
BRANCH  25  26
ATOM     26  C   UNL     1       1.834   8.446  19.469  0.00  0.00    +0.000 A 
ATOM     27  C   UNL     1       1.048   9.596  19.299  0.00  0.00    +0.000 A 
ATOM     28  C   UNL     1       0.233  10.069  20.329  0.00  0.00    +0.000 A 
ATOM     29  C   UNL     1       0.194   9.388  21.541  0.00  0.00    +0.000 A 
ATOM     30 CL   UNL     1      -0.813   9.959  22.811  0.00  0.00    +0.000 Cl
ATOM     31  C   UNL     1       0.964   8.239  21.724  0.00  0.00    +0.000 A 
ATOM     32  C   UNL     1       1.782   7.768  20.690  0.00  0.00    +0.000 A 
ENDBRANCH  25  26
ENDBRANCH  24  25
ENDBRANCH   9  24
TORSDOF 7
ENDMDL
MODEL 6
REMARK VINA RESULT:      -8.1      1.154      1.459
REMARK  Name = 
REMARK  9 active torsions:
REMARK  status: ('A' for Active; 'I' for Inactive)
REMARK    1  A    between atoms: C_1  and  N_2
REMARK    2  A    between atoms: C_6  and  C_8
REMARK    3  A    between atoms: C_8  and  C_9
REMARK    4  A    between atoms: C_8  and  O_10
REMARK    5  A    between atoms: O_10  and  C_11
REMARK    6  A    between atoms: C_11  and  C_13
REMARK    7  A    between atoms: C_21  and  C_22
REMARK    8  A    between atoms: C_22  and  S_23
REMARK    9  A    between atoms: S_23  and  C_24
REMARK                            x       y       z     vdW  Elec       q    Type
REMARK                         _______ _______ _______ _____ _____    ______ ____
ROOT
ATOM      1  C   UNL     1       3.833   5.682  18.429  0.00  0.00    +0.000 A 
ATOM      2  O   UNL     1       4.054   4.339  18.568  0.00  0.00    +0.000 OA
ATOM      3  C   UNL     1       3.086   3.849  19.389  0.00  0.00    +0.000 A 
ATOM      4  C   UNL     1       2.977   2.524  19.821  0.00  0.00    +0.000 A 
ATOM      5  C   UNL     1       1.906   2.212  20.667  0.00  0.00    +0.000 A 
ATOM      6  C   UNL     1       0.988   3.187  21.046  0.00  0.00    +0.000 A 
ATOM      7  C   UNL     1       1.122   4.506  20.594  0.00  0.00    +0.000 A 
ATOM      8  C   UNL     1       2.203   4.859  19.756  0.00  0.00    +0.000 A 
ATOM      9  C   UNL     1       2.701   6.066  19.151  0.00  0.00    +0.000 A 
ENDROOT
BRANCH   1  10
ATOM     10  C   UNL     1       4.708   6.487  17.605  0.00  0.00    +0.000 C 
ATOM     11  O   UNL     1       4.323   7.234  16.715  0.00  0.00    +0.000 OA
BRANCH  10  12
ATOM     12  O   UNL     1       6.028   6.261  17.886  0.00  0.00    +0.000 OA
BRANCH  12  13
ATOM     13  C   UNL     1       6.516   4.945  17.586  0.00  0.00    +0.000 C 
ATOM     14  C   UNL     1       7.944   4.722  18.105  0.00  0.00    +0.000 C 
BRANCH  13  20
ATOM     15  C   UNL     1       6.735   3.612  12.015  0.00  0.00    +0.000 C 
ATOM     16  N   UNL     1       6.682   4.002  13.392  0.00  0.00    +0.000 N 
ATOM     17  C   UNL     1       7.419   5.030  13.898  0.00  0.00    +0.000 C 
ATOM     18  O   UNL     1       8.226   5.679  13.242  0.00  0.00    +0.000 OA
ATOM     19  N   UNL     1       7.215   5.304  15.231  0.00  0.00    +0.000 N 
ATOM     20  C   UNL     1       6.435   4.560  16.099  0.00  0.00    +0.000 C 
ATOM     21  O   UNL     1       5.648   3.684  15.716  0.00  0.00    +0.000 OA
ATOM     22  H   UNL     1       6.097   3.475  14.035  0.00  0.00    +0.000 HD
ATOM     23  H   UNL     1       7.815   6.037  15.589  0.00  0.00    +0.000 HD
ENDBRANCH  13  20
ENDBRANCH  12  13
ENDBRANCH  10  12
ENDBRANCH   1  10
BRANCH   9  24
ATOM     24  C   UNL     1       2.165   7.475  19.231  0.00  0.00    +0.000 C 
BRANCH  24  25
ATOM     25  S   UNL     1       1.646   7.926  20.923  0.00  0.00    +0.000 S 
BRANCH  25  26
ATOM     26  C   UNL     1       0.677   9.402  20.719  0.00  0.00    +0.000 A 
ATOM     27  C   UNL     1       0.451   9.829  19.401  0.00  0.00    +0.000 A 
ATOM     28  C   UNL     1      -0.383  10.914  19.129  0.00  0.00    +0.000 A 
ATOM     29  C   UNL     1      -1.005  11.581  20.179  0.00  0.00    +0.000 A 
ATOM     30 CL   UNL     1      -2.040  12.914  19.851  0.00  0.00    +0.000 Cl
ATOM     31  C   UNL     1      -0.797  11.167  21.494  0.00  0.00    +0.000 A 
ATOM     32  C   UNL     1       0.042  10.079  21.765  0.00  0.00    +0.000 A 
ENDBRANCH  25  26
ENDBRANCH  24  25
ENDBRANCH   9  24
TORSDOF 7
ENDMDL
MODEL 7
REMARK VINA RESULT:      -7.9      1.521      1.864
REMARK  Name = 
REMARK  9 active torsions:
REMARK  status: ('A' for Active; 'I' for Inactive)
REMARK    1  A    between atoms: C_1  and  N_2
REMARK    2  A    between atoms: C_6  and  C_8
REMARK    3  A    between atoms: C_8  and  C_9
REMARK    4  A    between atoms: C_8  and  O_10
REMARK    5  A    between atoms: O_10  and  C_11
REMARK    6  A    between atoms: C_11  and  C_13
REMARK    7  A    between atoms: C_21  and  C_22
REMARK    8  A    between atoms: C_22  and  S_23
REMARK    9  A    between atoms: S_23  and  C_24
REMARK                            x       y       z     vdW  Elec       q    Type
REMARK                         _______ _______ _______ _____ _____    ______ ____
ROOT
ATOM      1  C   UNL     1       4.595   4.708  19.132  0.00  0.00    +0.000 A 
ATOM      2  O   UNL     1       4.556   3.341  19.088  0.00  0.00    +0.000 OA
ATOM      3  C   UNL     1       3.248   2.973  19.007  0.00  0.00    +0.000 A 
ATOM      4  C   UNL     1       2.770   1.659  18.984  0.00  0.00    +0.000 A 
ATOM      5  C   UNL     1       1.384   1.483  18.896  0.00  0.00    +0.000 A 
ATOM      6  C   UNL     1       0.528   2.579  18.823  0.00  0.00    +0.000 A 
ATOM      7  C   UNL     1       1.038   3.884  18.845  0.00  0.00    +0.000 A 
ATOM      8  C   UNL     1       2.430   4.096  18.954  0.00  0.00    +0.000 A 
ATOM      9  C   UNL     1       3.304   5.235  19.060  0.00  0.00    +0.000 A 
ENDROOT
BRANCH   1  10
ATOM     10  C   UNL     1       5.862   5.401  19.220  0.00  0.00    +0.000 C 
ATOM     11  O   UNL     1       6.687   5.218  20.107  0.00  0.00    +0.000 OA
BRANCH  10  12
ATOM     12  O   UNL     1       6.003   6.341  18.238  0.00  0.00    +0.000 OA
BRANCH  12  13
ATOM     13  C   UNL     1       7.112   6.152  17.345  0.00  0.00    +0.000 C 
ATOM     14  C   UNL     1       7.816   7.475  17.005  0.00  0.00    +0.000 C 
BRANCH  13  20
ATOM     15  C   UNL     1       6.335   3.374  12.392  0.00  0.00    +0.000 C 
ATOM     16  N   UNL     1       6.533   4.118  13.599  0.00  0.00    +0.000 N 
ATOM     17  C   UNL     1       7.411   5.155  13.693  0.00  0.00    +0.000 C 
ATOM     18  O   UNL     1       8.144   5.513  12.778  0.00  0.00    +0.000 OA
ATOM     19  N   UNL     1       7.445   5.794  14.911  0.00  0.00    +0.000 N 
ATOM     20  C   UNL     1       6.766   5.398  16.050  0.00  0.00    +0.000 C 
ATOM     21  O   UNL     1       5.867   4.546  16.038  0.00  0.00    +0.000 OA
ATOM     22  H   UNL     1       6.023   3.850  14.438  0.00  0.00    +0.000 HD
ATOM     23  H   UNL     1       8.144   6.524  14.965  0.00  0.00    +0.000 HD
ENDBRANCH  13  20
ENDBRANCH  12  13
ENDBRANCH  10  12
ENDBRANCH   1  10
BRANCH   9  24
ATOM     24  C   UNL     1       2.970   6.706  19.090  0.00  0.00    +0.000 C 
BRANCH  24  25
ATOM     25  S   UNL     1       1.963   7.161  20.544  0.00  0.00    +0.000 S 
BRANCH  25  26
ATOM     26  C   UNL     1       1.130   8.657  20.066  0.00  0.00    +0.000 A 
ATOM     27  C   UNL     1       0.236   9.204  21.000  0.00  0.00    +0.000 A 
ATOM     28  C   UNL     1      -0.388  10.430  20.767  0.00  0.00    +0.000 A 
ATOM     29  C   UNL     1      -0.118  11.124  19.592  0.00  0.00    +0.000 A 
ATOM     30 CL   UNL     1      -0.877  12.639  19.300  0.00  0.00    +0.000 Cl
ATOM     31  C   UNL     1       0.772  10.598  18.656  0.00  0.00    +0.000 A 
ATOM     32  C   UNL     1       1.396   9.367  18.892  0.00  0.00    +0.000 A 
ENDBRANCH  25  26
ENDBRANCH  24  25
ENDBRANCH   9  24
TORSDOF 7
ENDMDL
MODEL 8
REMARK VINA RESULT:      -7.9      3.175      4.200
REMARK  Name = 
REMARK  9 active torsions:
REMARK  status: ('A' for Active; 'I' for Inactive)
REMARK    1  A    between atoms: C_1  and  N_2
REMARK    2  A    between atoms: C_6  and  C_8
REMARK    3  A    between atoms: C_8  and  C_9
REMARK    4  A    between atoms: C_8  and  O_10
REMARK    5  A    between atoms: O_10  and  C_11
REMARK    6  A    between atoms: C_11  and  C_13
REMARK    7  A    between atoms: C_21  and  C_22
REMARK    8  A    between atoms: C_22  and  S_23
REMARK    9  A    between atoms: S_23  and  C_24
REMARK                            x       y       z     vdW  Elec       q    Type
REMARK                         _______ _______ _______ _____ _____    ______ ____
ROOT
ATOM      1  C   UNL     1       4.511   5.302  17.183  0.00  0.00    +0.000 A 
ATOM      2  O   UNL     1       4.630   3.941  17.104  0.00  0.00    +0.000 OA
ATOM      3  C   UNL     1       3.501   3.401  17.638  0.00  0.00    +0.000 A 
ATOM      4  C   UNL     1       3.243   2.035  17.789  0.00  0.00    +0.000 A 
ATOM      5  C   UNL     1       2.018   1.674  18.362  0.00  0.00    +0.000 A 
ATOM      6  C   UNL     1       1.099   2.644  18.752  0.00  0.00    +0.000 A 
ATOM      7  C   UNL     1       1.385   4.005  18.585  0.00  0.00    +0.000 A 
ATOM      8  C   UNL     1       2.621   4.404  18.029  0.00  0.00    +0.000 A 
ATOM      9  C   UNL     1       3.286   5.651  17.757  0.00  0.00    +0.000 A 
ENDROOT
BRANCH   1  10
ATOM     10  C   UNL     1       5.566   6.159  16.689  0.00  0.00    +0.000 C 
ATOM     11  O   UNL     1       6.055   6.075  15.570  0.00  0.00    +0.000 OA
BRANCH  10  12
ATOM     12  O   UNL     1       6.008   7.032  17.645  0.00  0.00    +0.000 OA
BRANCH  12  13
ATOM     13  C   UNL     1       7.432   7.192  17.736  0.00  0.00    +0.000 C 
ATOM     14  C   UNL     1       8.032   6.396  18.906  0.00  0.00    +0.000 C 
BRANCH  13  20
ATOM     15  C   UNL     1       9.655  12.457  18.179  0.00  0.00    +0.000 C 
ATOM     16  N   UNL     1       9.091  11.141  18.127  0.00  0.00    +0.000 N 
ATOM     17  C   UNL     1       9.345  10.190  19.067  0.00  0.00    +0.000 C 
ATOM     18  O   UNL     1      10.112  10.351  20.010  0.00  0.00    +0.000 OA
ATOM     19  N   UNL     1       8.686   8.995  18.893  0.00  0.00    +0.000 N 
ATOM     20  C   UNL     1       7.906   8.653  17.804  0.00  0.00    +0.000 C 
ATOM     21  O   UNL     1       7.527   9.478  16.960  0.00  0.00    +0.000 OA
ATOM     22  H   UNL     1       8.498  10.886  17.340  0.00  0.00    +0.000 HD
ATOM     23  H   UNL     1       8.936   8.292  19.578  0.00  0.00    +0.000 HD
ENDBRANCH  13  20
ENDBRANCH  12  13
ENDBRANCH  10  12
ENDBRANCH   1  10
BRANCH   9  24
ATOM     24  C   UNL     1       2.821   7.065  18.005  0.00  0.00    +0.000 C 
BRANCH  24  25
ATOM     25  S   UNL     1       2.334   7.340  19.743  0.00  0.00    +0.000 S 
BRANCH  25  26
ATOM     26  C   UNL     1       1.266   8.761  19.693  0.00  0.00    +0.000 A 
ATOM     27  C   UNL     1       1.054   9.343  18.434  0.00  0.00    +0.000 A 
ATOM     28  C   UNL     1       0.151  10.395  18.270  0.00  0.00    +0.000 A 
ATOM     29  C   UNL     1      -0.553  10.872  19.370  0.00  0.00    +0.000 A 
ATOM     30 CL   UNL     1      -1.671  12.163  19.175  0.00  0.00    +0.000 Cl
ATOM     31  C   UNL     1      -0.359  10.301  20.627  0.00  0.00    +0.000 A 
ATOM     32  C   UNL     1       0.548   9.247  20.790  0.00  0.00    +0.000 A 
ENDBRANCH  25  26
ENDBRANCH  24  25
ENDBRANCH   9  24
TORSDOF 7
ENDMDL
MODEL 9
REMARK VINA RESULT:      -7.8      2.626      3.628
REMARK  Name = 
REMARK  9 active torsions:
REMARK  status: ('A' for Active; 'I' for Inactive)
REMARK    1  A    between atoms: C_1  and  N_2
REMARK    2  A    between atoms: C_6  and  C_8
REMARK    3  A    between atoms: C_8  and  C_9
REMARK    4  A    between atoms: C_8  and  O_10
REMARK    5  A    between atoms: O_10  and  C_11
REMARK    6  A    between atoms: C_11  and  C_13
REMARK    7  A    between atoms: C_21  and  C_22
REMARK    8  A    between atoms: C_22  and  S_23
REMARK    9  A    between atoms: S_23  and  C_24
REMARK                            x       y       z     vdW  Elec       q    Type
REMARK                         _______ _______ _______ _____ _____    ______ ____
ROOT
ATOM      1  C   UNL     1       3.621   5.556  17.798  0.00  0.00    +0.000 A 
ATOM      2  O   UNL     1       3.468   4.283  17.322  0.00  0.00    +0.000 OA
ATOM      3  C   UNL     1       2.515   3.675  18.081  0.00  0.00    +0.000 A 
ATOM      4  C   UNL     1       2.092   2.349  17.950  0.00  0.00    +0.000 A 
ATOM      5  C   UNL     1       1.096   1.905  18.828  0.00  0.00    +0.000 A 
ATOM      6  C   UNL     1       0.550   2.762  19.781  0.00  0.00    +0.000 A 
ATOM      7  C   UNL     1       0.994   4.087  19.885  0.00  0.00    +0.000 A 
ATOM      8  C   UNL     1       2.012   4.560  19.028  0.00  0.00    +0.000 A 
ATOM      9  C   UNL     1       2.749   5.786  18.865  0.00  0.00    +0.000 A 
ENDROOT
BRANCH   1  10
ATOM     10  C   UNL     1       4.574   6.457  17.187  0.00  0.00    +0.000 C 
ATOM     11  O   UNL     1       4.414   6.994  16.098  0.00  0.00    +0.000 OA
BRANCH  10  12
ATOM     12  O   UNL     1       5.712   6.584  17.934  0.00  0.00    +0.000 OA
BRANCH  12  13
ATOM     13  C   UNL     1       6.894   6.965  17.214  0.00  0.00    +0.000 C 
ATOM     14  C   UNL     1       7.662   5.749  16.673  0.00  0.00    +0.000 C 
BRANCH  13  20
ATOM     15  C   UNL     1      10.109  10.758  20.067  0.00  0.00    +0.000 C 
ATOM     16  N   UNL     1       9.322   9.835  19.304  0.00  0.00    +0.000 N 
ATOM     17  C   UNL     1       8.610  10.205  18.204  0.00  0.00    +0.000 C 
ATOM     18  O   UNL     1       8.534  11.358  17.796  0.00  0.00    +0.000 OA
ATOM     19  N   UNL     1       7.947   9.186  17.558  0.00  0.00    +0.000 N 
ATOM     20  C   UNL     1       7.851   7.878  17.998  0.00  0.00    +0.000 C 
ATOM     21  O   UNL     1       8.547   7.423  18.916  0.00  0.00    +0.000 OA
ATOM     22  H   UNL     1       9.261   8.866  19.606  0.00  0.00    +0.000 HD
ATOM     23  H   UNL     1       7.385   9.501  16.777  0.00  0.00    +0.000 HD
ENDBRANCH  13  20
ENDBRANCH  12  13
ENDBRANCH  10  12
ENDBRANCH   1  10
BRANCH   9  24
ATOM     24  C   UNL     1       2.650   7.078  19.637  0.00  0.00    +0.000 C 
BRANCH  24  25
ATOM     25  S   UNL     1       1.856   8.407  18.669  0.00  0.00    +0.000 S 
BRANCH  25  26
ATOM     26  C   UNL     1       0.843   9.278  19.843  0.00  0.00    +0.000 A 
ATOM     27  C   UNL     1       0.683   8.677  21.101  0.00  0.00    +0.000 A 
ATOM     28  C   UNL     1      -0.004   9.328  22.127  0.00  0.00    +0.000 A 
ATOM     29  C   UNL     1      -0.534  10.594  21.901  0.00  0.00    +0.000 A 
ATOM     30 CL   UNL     1      -1.375  11.405  23.162  0.00  0.00    +0.000 Cl
ATOM     31  C   UNL     1      -0.378  11.208  20.659  0.00  0.00    +0.000 A 
ATOM     32  C   UNL     1       0.310  10.552  19.631  0.00  0.00    +0.000 A 
ENDBRANCH  25  26
ENDBRANCH  24  25
ENDBRANCH   9  24
TORSDOF 7
ENDMDL
