MODEL 1
REMARK VINA RESULT:      -5.8      0.000      0.000
REMARK  Name = 
REMARK  7 active torsions:
REMARK  status: ('A' for Active; 'I' for Inactive)
REMARK    1  A    between atoms: C_1  and  C_2
REMARK    2  A    between atoms: C_2  and  C_3
REMARK    3  A    between atoms: C_5  and  C_6
REMARK    4  A    between atoms: C_6  and  O_7
REMARK    5  A    between atoms: C_6  and  C_8
REMARK    6  A    between atoms: C_8  and  N_9
REMARK    7  A    between atoms: C_12  and  O_13
REMARK                            x       y       z     vdW  Elec       q    Type
REMARK                         _______ _______ _______ _____ _____    ______ ____
ROOT
ATOM      1  C   UNL     1       2.143   3.596  19.437  0.00  0.00    +0.000 A 
ATOM      2  C   UNL     1       3.340   4.332  19.433  0.00  0.00    +0.000 A 
ATOM      3  C   UNL     1       4.258   4.230  18.378  0.00  0.00    +0.000 A 
ATOM      4  C   UNL     1       3.964   3.386  17.301  0.00  0.00    +0.000 A 
ATOM      5  C   UNL     1       2.779   2.645  17.292  0.00  0.00    +0.000 A 
ATOM      6  C   UNL     1       1.880   2.752  18.355  0.00  0.00    +0.000 A 
ENDROOT
BRANCH   1   8
ATOM      7  C   UNL     1       1.552   2.723  21.705  0.00  0.00    +0.000 C 
ATOM      8  C   UNL     1       1.203   3.716  20.602  0.00  0.00    +0.000 C 
ENDBRANCH   1   8
BRANCH   6   9
ATOM      9  O   UNL     1       0.726   2.030  18.354  0.00  0.00    +0.000 OA
ATOM     10  H   UNL     1       0.656   1.557  19.201  0.00  0.00    +0.000 HD
ENDBRANCH   6   9
BRANCH   3  11
ATOM     11  C   UNL     1       5.537   5.041  18.388  0.00  0.00    +0.000 C 
BRANCH  11  12
ATOM     12  O   UNL     1       6.130   4.879  19.679  0.00  0.00    +0.000 OA
ATOM     13  H   UNL     1       6.017   3.943  19.922  0.00  0.00    +0.000 HD
ENDBRANCH  11  12
BRANCH  11  14
ATOM     14  C   UNL     1       6.506   4.628  17.247  0.00  0.00    +0.000 C 
BRANCH  14  15
ATOM     15  N   UNL     1       7.859   4.323  17.729  0.00  0.00    +0.000 NA
ATOM     16  H   UNL     1       8.335   3.720  17.057  0.00  0.00    +0.000 HD
ATOM     17  H   UNL     1       7.793   3.783  18.593  0.00  0.00    +0.000 HD
ENDBRANCH  14  15
ENDBRANCH  11  14
ENDBRANCH   3  11
TORSDOF 6
ENDMDL
MODEL 2
REMARK VINA RESULT:      -5.7      2.926      5.463
REMARK  Name = 
REMARK  7 active torsions:
REMARK  status: ('A' for Active; 'I' for Inactive)
REMARK    1  A    between atoms: C_1  and  C_2
REMARK    2  A    between atoms: C_2  and  C_3
REMARK    3  A    between atoms: C_5  and  C_6
REMARK    4  A    between atoms: C_6  and  O_7
REMARK    5  A    between atoms: C_6  and  C_8
REMARK    6  A    between atoms: C_8  and  N_9
REMARK    7  A    between atoms: C_12  and  O_13
REMARK                            x       y       z     vdW  Elec       q    Type
REMARK                         _______ _______ _______ _____ _____    ______ ____
ROOT
ATOM      1  C   UNL     1       5.055   4.606  16.419  0.00  0.00    +0.000 A 
ATOM      2  C   UNL     1       4.101   3.691  16.896  0.00  0.00    +0.000 A 
ATOM      3  C   UNL     1       3.030   4.104  17.700  0.00  0.00    +0.000 A 
ATOM      4  C   UNL     1       2.904   5.460  18.020  0.00  0.00    +0.000 A 
ATOM      5  C   UNL     1       3.846   6.382  17.556  0.00  0.00    +0.000 A 
ATOM      6  C   UNL     1       4.913   5.953  16.763  0.00  0.00    +0.000 A 
ENDROOT
BRANCH   1   8
ATOM      7  C   UNL     1       5.852   4.111  14.099  0.00  0.00    +0.000 C 
ATOM      8  C   UNL     1       6.202   4.114  15.584  0.00  0.00    +0.000 C 
ENDBRANCH   1   8
BRANCH   6   9
ATOM      9  O   UNL     1       5.835   6.846  16.312  0.00  0.00    +0.000 OA
ATOM     10  H   UNL     1       5.785   7.647  16.861  0.00  0.00    +0.000 HD
ENDBRANCH   6   9
BRANCH   3  11
ATOM     11  C   UNL     1       2.007   3.102  18.194  0.00  0.00    +0.000 C 
BRANCH  11  12
ATOM     12  O   UNL     1       2.368   1.828  17.654  0.00  0.00    +0.000 OA
ATOM     13  H   UNL     1       1.939   1.156  18.212  0.00  0.00    +0.000 HD
ENDBRANCH  11  12
BRANCH  11  14
ATOM     14  C   UNL     1       1.911   3.071  19.744  0.00  0.00    +0.000 C 
BRANCH  14  15
ATOM     15  N   UNL     1       0.534   3.212  20.234  0.00  0.00    +0.000 NA
ATOM     16  H   UNL     1      -0.111   3.230  19.443  0.00  0.00    +0.000 HD
ATOM     17  H   UNL     1       0.434   4.114  20.699  0.00  0.00    +0.000 HD
ENDBRANCH  14  15
ENDBRANCH  11  14
ENDBRANCH   3  11
TORSDOF 6
ENDMDL
MODEL 3
REMARK VINA RESULT:      -5.6      2.541      5.133
REMARK  Name = 
REMARK  7 active torsions:
REMARK  status: ('A' for Active; 'I' for Inactive)
REMARK    1  A    between atoms: C_1  and  C_2
REMARK    2  A    between atoms: C_2  and  C_3
REMARK    3  A    between atoms: C_5  and  C_6
REMARK    4  A    between atoms: C_6  and  O_7
REMARK    5  A    between atoms: C_6  and  C_8
REMARK    6  A    between atoms: C_8  and  N_9
REMARK    7  A    between atoms: C_12  and  O_13
REMARK                            x       y       z     vdW  Elec       q    Type
REMARK                         _______ _______ _______ _____ _____    ______ ____
ROOT
ATOM      1  C   UNL     1       5.302   4.567  16.110  0.00  0.00    +0.000 A 
ATOM      2  C   UNL     1       4.641   3.581  16.861  0.00  0.00    +0.000 A 
ATOM      3  C   UNL     1       3.707   3.920  17.850  0.00  0.00    +0.000 A 
ATOM      4  C   UNL     1       3.420   5.270  18.080  0.00  0.00    +0.000 A 
ATOM      5  C   UNL     1       4.072   6.262  17.343  0.00  0.00    +0.000 A 
ATOM      6  C   UNL     1       5.007   5.908  16.368  0.00  0.00    +0.000 A 
ENDROOT
BRANCH   1   8
ATOM      7  C   UNL     1       5.668   3.927  13.719  0.00  0.00    +0.000 C 
ATOM      8  C   UNL     1       6.316   4.158  15.080  0.00  0.00    +0.000 C 
ENDBRANCH   1   8
BRANCH   6   9
ATOM      9  O   UNL     1       5.648   6.870  15.649  0.00  0.00    +0.000 OA
ATOM     10  H   UNL     1       6.448   7.136  16.134  0.00  0.00    +0.000 HD
ENDBRANCH   6   9
BRANCH   3  11
ATOM     11  C   UNL     1       2.997   2.841  18.641  0.00  0.00    +0.000 C 
BRANCH  11  12
ATOM     12  O   UNL     1       3.017   1.652  17.846  0.00  0.00    +0.000 OA
ATOM     13  H   UNL     1       3.596   1.835  17.086  0.00  0.00    +0.000 HD
ENDBRANCH  11  12
BRANCH  11  14
ATOM     14  C   UNL     1       3.635   2.617  20.039  0.00  0.00    +0.000 C 
BRANCH  14  15
ATOM     15  N   UNL     1       4.941   1.949  19.969  0.00  0.00    +0.000 NA
ATOM     16  H   UNL     1       5.371   1.939  20.895  0.00  0.00    +0.000 HD
ATOM     17  H   UNL     1       5.566   2.495  19.376  0.00  0.00    +0.000 HD
ENDBRANCH  14  15
ENDBRANCH  11  14
ENDBRANCH   3  11
TORSDOF 6
ENDMDL
MODEL 4
REMARK VINA RESULT:      -5.6      1.909      2.205
REMARK  Name = 
REMARK  7 active torsions:
REMARK  status: ('A' for Active; 'I' for Inactive)
REMARK    1  A    between atoms: C_1  and  C_2
REMARK    2  A    between atoms: C_2  and  C_3
REMARK    3  A    between atoms: C_5  and  C_6
REMARK    4  A    between atoms: C_6  and  O_7
REMARK    5  A    between atoms: C_6  and  C_8
REMARK    6  A    between atoms: C_8  and  N_9
REMARK    7  A    between atoms: C_12  and  O_13
REMARK                            x       y       z     vdW  Elec       q    Type
REMARK                         _______ _______ _______ _____ _____    ______ ____
ROOT
ATOM      1  C   UNL     1       3.436   5.055  18.926  0.00  0.00    +0.000 A 
ATOM      2  C   UNL     1       4.834   5.103  19.060  0.00  0.00    +0.000 A 
ATOM      3  C   UNL     1       5.681   4.582  18.072  0.00  0.00    +0.000 A 
ATOM      4  C   UNL     1       5.119   4.017  16.923  0.00  0.00    +0.000 A 
ATOM      5  C   UNL     1       3.730   3.958  16.777  0.00  0.00    +0.000 A 
ATOM      6  C   UNL     1       2.899   4.473  17.774  0.00  0.00    +0.000 A 
ENDROOT
BRANCH   1   8
ATOM      7  C   UNL     1       2.244   4.531  21.063  0.00  0.00    +0.000 C 
ATOM      8  C   UNL     1       2.567   5.599  20.023  0.00  0.00    +0.000 C 
ENDBRANCH   1   8
BRANCH   6   9
ATOM      9  O   UNL     1       1.546   4.416  17.639  0.00  0.00    +0.000 OA
ATOM     10  H   UNL     1       1.153   4.294  18.520  0.00  0.00    +0.000 HD
ENDBRANCH   6   9
BRANCH   3  11
ATOM     11  C   UNL     1       7.186   4.655  18.231  0.00  0.00    +0.000 C 
BRANCH  11  12
ATOM     12  O   UNL     1       7.747   4.717  16.917  0.00  0.00    +0.000 OA
ATOM     13  H   UNL     1       7.410   3.943  16.433  0.00  0.00    +0.000 HD
ENDBRANCH  11  12
BRANCH  11  14
ATOM     14  C   UNL     1       7.629   5.857  19.109  0.00  0.00    +0.000 C 
BRANCH  14  15
ATOM     15  N   UNL     1       8.127   5.447  20.429  0.00  0.00    +0.000 NA
ATOM     16  H   UNL     1       7.391   5.569  21.125  0.00  0.00    +0.000 HD
ATOM     17  H   UNL     1       8.885   6.070  20.709  0.00  0.00    +0.000 HD
ENDBRANCH  14  15
ENDBRANCH  11  14
ENDBRANCH   3  11
TORSDOF 6
ENDMDL
MODEL 5
REMARK VINA RESULT:      -5.6      2.471      5.203
REMARK  Name = 
REMARK  7 active torsions:
REMARK  status: ('A' for Active; 'I' for Inactive)
REMARK    1  A    between atoms: C_1  and  C_2
REMARK    2  A    between atoms: C_2  and  C_3
REMARK    3  A    between atoms: C_5  and  C_6
REMARK    4  A    between atoms: C_6  and  O_7
REMARK    5  A    between atoms: C_6  and  C_8
REMARK    6  A    between atoms: C_8  and  N_9
REMARK    7  A    between atoms: C_12  and  O_13
REMARK                            x       y       z     vdW  Elec       q    Type
REMARK                         _______ _______ _______ _____ _____    ______ ____
ROOT
ATOM      1  C   UNL     1       6.757   5.750  17.638  0.00  0.00    +0.000 A 
ATOM      2  C   UNL     1       5.773   5.322  18.546  0.00  0.00    +0.000 A 
ATOM      3  C   UNL     1       4.737   4.464  18.151  0.00  0.00    +0.000 A 
ATOM      4  C   UNL     1       4.695   4.015  16.827  0.00  0.00    +0.000 A 
ATOM      5  C   UNL     1       5.664   4.435  15.911  0.00  0.00    +0.000 A 
ATOM      6  C   UNL     1       6.684   5.297  16.318  0.00  0.00    +0.000 A 
ENDROOT
BRANCH   1   8
ATOM      7  C   UNL     1       7.578   8.113  17.606  0.00  0.00    +0.000 C 
ATOM      8  C   UNL     1       7.831   6.692  18.099  0.00  0.00    +0.000 C 
ENDBRANCH   1   8
BRANCH   6   9
ATOM      9  O   UNL     1       7.628   5.712  15.431  0.00  0.00    +0.000 OA
ATOM     10  H   UNL     1       8.493   5.369  15.716  0.00  0.00    +0.000 HD
ENDBRANCH   6   9
BRANCH   3  11
ATOM     11  C   UNL     1       3.693   4.006  19.149  0.00  0.00    +0.000 C 
BRANCH  11  12
ATOM     12  O   UNL     1       2.420   4.426  18.651  0.00  0.00    +0.000 OA
ATOM     13  H   UNL     1       1.927   3.618  18.428  0.00  0.00    +0.000 HD
ENDBRANCH  11  12
BRANCH  11  14
ATOM     14  C   UNL     1       3.745   2.473  19.394  0.00  0.00    +0.000 C 
BRANCH  14  15
ATOM     15  N   UNL     1       5.004   2.036  20.012  0.00  0.00    +0.000 NA
ATOM     16  H   UNL     1       5.788   2.297  19.413  0.00  0.00    +0.000 HD
ATOM     17  H   UNL     1       5.016   1.017  20.061  0.00  0.00    +0.000 HD
ENDBRANCH  14  15
ENDBRANCH  11  14
ENDBRANCH   3  11
TORSDOF 6
ENDMDL
MODEL 6
REMARK VINA RESULT:      -5.5      2.191      2.835
REMARK  Name = 
REMARK  7 active torsions:
REMARK  status: ('A' for Active; 'I' for Inactive)
REMARK    1  A    between atoms: C_1  and  C_2
REMARK    2  A    between atoms: C_2  and  C_3
REMARK    3  A    between atoms: C_5  and  C_6
REMARK    4  A    between atoms: C_6  and  O_7
REMARK    5  A    between atoms: C_6  and  C_8
REMARK    6  A    between atoms: C_8  and  N_9
REMARK    7  A    between atoms: C_12  and  O_13
REMARK                            x       y       z     vdW  Elec       q    Type
REMARK                         _______ _______ _______ _____ _____    ______ ____
ROOT
ATOM      1  C   UNL     1       3.155   3.824  17.569  0.00  0.00    +0.000 A 
ATOM      2  C   UNL     1       4.304   4.092  16.807  0.00  0.00    +0.000 A 
ATOM      3  C   UNL     1       4.842   5.384  16.725  0.00  0.00    +0.000 A 
ATOM      4  C   UNL     1       4.227   6.422  17.432  0.00  0.00    +0.000 A 
ATOM      5  C   UNL     1       3.081   6.172  18.192  0.00  0.00    +0.000 A 
ATOM      6  C   UNL     1       2.552   4.882  18.255  0.00  0.00    +0.000 A 
ENDROOT
BRANCH   1   8
ATOM      7  C   UNL     1       3.476   1.497  18.431  0.00  0.00    +0.000 C 
ATOM      8  C   UNL     1       2.597   2.430  17.605  0.00  0.00    +0.000 C 
ENDBRANCH   1   8
BRANCH   6   9
ATOM      9  O   UNL     1       1.434   4.632  18.991  0.00  0.00    +0.000 OA
ATOM     10  H   UNL     1       1.647   4.762  19.931  0.00  0.00    +0.000 HD
ENDBRANCH   6   9
BRANCH   3  11
ATOM     11  C   UNL     1       6.089   5.649  15.907  0.00  0.00    +0.000 C 
BRANCH  11  12
ATOM     12  O   UNL     1       6.742   6.782  16.487  0.00  0.00    +0.000 OA
ATOM     13  H   UNL     1       6.931   6.551  17.413  0.00  0.00    +0.000 HD
ENDBRANCH  11  12
BRANCH  11  14
ATOM     14  C   UNL     1       7.024   4.411  15.838  0.00  0.00    +0.000 C 
BRANCH  14  15
ATOM     15  N   UNL     1       7.861   4.260  17.036  0.00  0.00    +0.000 NA
ATOM     16  H   UNL     1       7.645   5.004  17.700  0.00  0.00    +0.000 HD
ATOM     17  H   UNL     1       8.840   4.387  16.779  0.00  0.00    +0.000 HD
ENDBRANCH  14  15
ENDBRANCH  11  14
ENDBRANCH   3  11
TORSDOF 6
ENDMDL
MODEL 7
REMARK VINA RESULT:      -5.5      2.516      5.515
REMARK  Name = 
REMARK  7 active torsions:
REMARK  status: ('A' for Active; 'I' for Inactive)
REMARK    1  A    between atoms: C_1  and  C_2
REMARK    2  A    between atoms: C_2  and  C_3
REMARK    3  A    between atoms: C_5  and  C_6
REMARK    4  A    between atoms: C_6  and  O_7
REMARK    5  A    between atoms: C_6  and  C_8
REMARK    6  A    between atoms: C_8  and  N_9
REMARK    7  A    between atoms: C_12  and  O_13
REMARK                            x       y       z     vdW  Elec       q    Type
REMARK                         _______ _______ _______ _____ _____    ______ ____
ROOT
ATOM      1  C   UNL     1       6.041   4.674  15.916  0.00  0.00    +0.000 A 
ATOM      2  C   UNL     1       4.956   3.886  16.335  0.00  0.00    +0.000 A 
ATOM      3  C   UNL     1       4.281   4.151  17.534  0.00  0.00    +0.000 A 
ATOM      4  C   UNL     1       4.690   5.234  18.319  0.00  0.00    +0.000 A 
ATOM      5  C   UNL     1       5.769   6.025  17.917  0.00  0.00    +0.000 A 
ATOM      6  C   UNL     1       6.438   5.742  16.725  0.00  0.00    +0.000 A 
ENDROOT
BRANCH   1   8
ATOM      7  C   UNL     1       5.778   3.873  13.560  0.00  0.00    +0.000 C 
ATOM      8  C   UNL     1       6.753   4.335  14.637  0.00  0.00    +0.000 C 
ENDBRANCH   1   8
BRANCH   6   9
ATOM      9  O   UNL     1       7.492   6.507  16.330  0.00  0.00    +0.000 OA
ATOM     10  H   UNL     1       8.066   6.663  17.099  0.00  0.00    +0.000 HD
ENDBRANCH   6   9
BRANCH   3  11
ATOM     11  C   UNL     1       3.106   3.295  17.962  0.00  0.00    +0.000 C 
BRANCH  11  12
ATOM     12  O   UNL     1       2.134   3.360  16.916  0.00  0.00    +0.000 OA
ATOM     13  H   UNL     1       2.042   2.457  16.564  0.00  0.00    +0.000 HD
ENDBRANCH  11  12
BRANCH  11  14
ATOM     14  C   UNL     1       3.525   1.833  18.278  0.00  0.00    +0.000 C 
BRANCH  14  15
ATOM     15  N   UNL     1       4.524   1.745  19.351  0.00  0.00    +0.000 NA
ATOM     16  H   UNL     1       4.102   1.323  20.178  0.00  0.00    +0.000 HD
ATOM     17  H   UNL     1       4.803   2.687  19.627  0.00  0.00    +0.000 HD
ENDBRANCH  14  15
ENDBRANCH  11  14
ENDBRANCH   3  11
TORSDOF 6
ENDMDL
MODEL 8
REMARK VINA RESULT:      -5.5      1.355      1.357
REMARK  Name = 
REMARK  7 active torsions:
REMARK  status: ('A' for Active; 'I' for Inactive)
REMARK    1  A    between atoms: C_1  and  C_2
REMARK    2  A    between atoms: C_2  and  C_3
REMARK    3  A    between atoms: C_5  and  C_6
REMARK    4  A    between atoms: C_6  and  O_7
REMARK    5  A    between atoms: C_6  and  C_8
REMARK    6  A    between atoms: C_8  and  N_9
REMARK    7  A    between atoms: C_12  and  O_13
REMARK                            x       y       z     vdW  Elec       q    Type
REMARK                         _______ _______ _______ _____ _____    ______ ____
ROOT
ATOM      1  C   UNL     1       2.056   3.518  19.472  0.00  0.00    +0.000 A 
ATOM      2  C   UNL     1       3.250   4.259  19.480  0.00  0.00    +0.000 A 
ATOM      3  C   UNL     1       4.177   4.162  18.434  0.00  0.00    +0.000 A 
ATOM      4  C   UNL     1       3.897   3.319  17.353  0.00  0.00    +0.000 A 
ATOM      5  C   UNL     1       2.715   2.574  17.332  0.00  0.00    +0.000 A 
ATOM      6  C   UNL     1       1.806   2.674  18.387  0.00  0.00    +0.000 A 
ENDROOT
BRANCH   1   8
ATOM      7  C   UNL     1       1.453   2.645  21.738  0.00  0.00    +0.000 C 
ATOM      8  C   UNL     1       1.105   3.633  20.629  0.00  0.00    +0.000 C 
ENDBRANCH   1   8
BRANCH   6   9
ATOM      9  O   UNL     1       0.655   1.948  18.374  0.00  0.00    +0.000 OA
ATOM     10  H   UNL     1       0.862   1.047  18.073  0.00  0.00    +0.000 HD
ENDBRANCH   6   9
BRANCH   3  11
ATOM     11  C   UNL     1       5.453   4.979  18.457  0.00  0.00    +0.000 C 
BRANCH  11  12
ATOM     12  O   UNL     1       6.545   4.055  18.464  0.00  0.00    +0.000 OA
ATOM     13  H   UNL     1       6.203   3.221  18.829  0.00  0.00    +0.000 HD
ENDBRANCH  11  12
BRANCH  11  14
ATOM     14  C   UNL     1       5.540   5.972  17.266  0.00  0.00    +0.000 C 
BRANCH  14  15
ATOM     15  N   UNL     1       4.482   6.991  17.294  0.00  0.00    +0.000 NA
ATOM     16  H   UNL     1       4.892   7.914  17.152  0.00  0.00    +0.000 HD
ATOM     17  H   UNL     1       4.061   7.010  18.223  0.00  0.00    +0.000 HD
ENDBRANCH  14  15
ENDBRANCH  11  14
ENDBRANCH   3  11
TORSDOF 6
ENDMDL
MODEL 9
REMARK VINA RESULT:      -5.5      1.831      2.160
REMARK  Name = 
REMARK  7 active torsions:
REMARK  status: ('A' for Active; 'I' for Inactive)
REMARK    1  A    between atoms: C_1  and  C_2
REMARK    2  A    between atoms: C_2  and  C_3
REMARK    3  A    between atoms: C_5  and  C_6
REMARK    4  A    between atoms: C_6  and  O_7
REMARK    5  A    between atoms: C_6  and  C_8
REMARK    6  A    between atoms: C_8  and  N_9
REMARK    7  A    between atoms: C_12  and  O_13
REMARK                            x       y       z     vdW  Elec       q    Type
REMARK                         _______ _______ _______ _____ _____    ______ ____
ROOT
ATOM      1  C   UNL     1       3.437   4.983  18.756  0.00  0.00    +0.000 A 
ATOM      2  C   UNL     1       4.811   5.217  18.927  0.00  0.00    +0.000 A 
ATOM      3  C   UNL     1       5.756   4.726  18.014  0.00  0.00    +0.000 A 
ATOM      4  C   UNL     1       5.313   4.002  16.902  0.00  0.00    +0.000 A 
ATOM      5  C   UNL     1       3.949   3.759  16.720  0.00  0.00    +0.000 A 
ATOM      6  C   UNL     1       3.022   4.246  17.643  0.00  0.00    +0.000 A 
ENDROOT
BRANCH   1   8
ATOM      7  C   UNL     1       2.265   4.511  20.916  0.00  0.00    +0.000 C 
ATOM      8  C   UNL     1       2.463   5.503  19.774  0.00  0.00    +0.000 C 
ENDBRANCH   1   8
BRANCH   6   9
ATOM      9  O   UNL     1       1.693   4.009  17.473  0.00  0.00    +0.000 OA
ATOM     10  H   UNL     1       1.194   4.742  17.872  0.00  0.00    +0.000 HD
ENDBRANCH   6   9
BRANCH   3  11
ATOM     11  C   UNL     1       7.233   5.000  18.212  0.00  0.00    +0.000 C 
BRANCH  11  12
ATOM     12  O   UNL     1       7.941   4.204  17.257  0.00  0.00    +0.000 OA
ATOM     13  H   UNL     1       8.297   4.818  16.592  0.00  0.00    +0.000 HD
ENDBRANCH  11  12
BRANCH  11  14
ATOM     14  C   UNL     1       7.576   6.508  18.080  0.00  0.00    +0.000 C 
BRANCH  14  15
ATOM     15  N   UNL     1       7.620   6.965  16.685  0.00  0.00    +0.000 NA
ATOM     16  H   UNL     1       8.457   6.598  16.231  0.00  0.00    +0.000 HD
ATOM     17  H   UNL     1       7.712   7.981  16.667  0.00  0.00    +0.000 HD
ENDBRANCH  14  15
ENDBRANCH  11  14
ENDBRANCH   3  11
TORSDOF 6
ENDMDL
