MODEL 1
REMARK VINA RESULT:      -7.6      0.000      0.000
REMARK  Name = 
REMARK  5 active torsions:
REMARK  status: ('A' for Active; 'I' for Inactive)
REMARK    1  A    between atoms: C_2  and  C_3
REMARK    2  A    between atoms: C_8  and  C_9
REMARK    3  A    between atoms: C_11  and  O_12
REMARK    4  A    between atoms: C_13  and  S_14
REMARK    5  A    between atoms: S_14  and  C_15
REMARK                            x       y       z     vdW  Elec       q    Type
REMARK                         _______ _______ _______ _____ _____    ______ ____
ROOT
ATOM      1  C   UNL     1       2.328   6.898  19.885  0.00  0.00    +0.000 C 
ATOM      2  C   UNL     1       2.067   7.296  18.433  0.00  0.00    +0.000 C 
ATOM      3  C   UNL     1       1.835   8.776  18.361  0.00  0.00    +0.000 C 
ATOM      4  C   UNL     1       1.355   9.467  19.413  0.00  0.00    +0.000 C 
ATOM      5  C   UNL     1       0.944   8.738  20.651  0.00  0.00    +0.000 C 
ATOM      6  O   UNL     1       0.277   9.253  21.543  0.00  0.00    +0.000 OA
ATOM      7  O   UNL     1       1.299   7.427  20.741  0.00  0.00    +0.000 OA
ENDROOT
BRANCH   1  13
ATOM      8  C   UNL     1       3.528   4.630  19.739  0.00  0.00    +0.000 A 
ATOM      9  C   UNL     1       3.538   3.236  19.919  0.00  0.00    +0.000 A 
ATOM     10  C   UNL     1       2.406   2.576  20.395  0.00  0.00    +0.000 A 
ATOM     11  C   UNL     1       1.255   3.301  20.683  0.00  0.00    +0.000 A 
ATOM     12  C   UNL     1       1.236   4.688  20.508  0.00  0.00    +0.000 A 
ATOM     13  C   UNL     1       2.375   5.381  20.049  0.00  0.00    +0.000 A 
BRANCH   8  15
ATOM     14  N   UNL     1       5.693   5.720  18.813  0.00  0.00    +0.000 NA
ATOM     15  C   UNL     1       4.715   5.253  19.228  0.00  0.00    +0.000 C 
ENDBRANCH   8  15
ENDBRANCH   1  13
BRANCH   3  16
ATOM     16  O   UNL     1       2.131   9.386  17.156  0.00  0.00    +0.000 OA
ATOM     17  H   UNL     1       2.825  10.057  17.273  0.00  0.00    +0.000 HD
ENDBRANCH   3  16
BRANCH   4  18
ATOM     18  S   UNL     1       0.986  11.168  19.334  0.00  0.00    +0.000 S 
BRANCH  18  19
ATOM     19  C   UNL     1      -0.728  11.078  18.818  0.00  0.00    +0.000 A 
ATOM     20  C   UNL     1      -1.074  10.139  17.833  0.00  0.00    +0.000 A 
ATOM     21  C   UNL     1      -2.393  10.021  17.388  0.00  0.00    +0.000 A 
ATOM     22  C   UNL     1      -3.386  10.842  17.919  0.00  0.00    +0.000 A 
ATOM     23  C   UNL     1      -3.052  11.801  18.873  0.00  0.00    +0.000 A 
ATOM     24  C   UNL     1      -1.728  11.933  19.312  0.00  0.00    +0.000 A 
ATOM     25 CL   UNL     1      -1.406  13.200  20.445  0.00  0.00    +0.000 Cl
ENDBRANCH  18  19
ENDBRANCH   4  18
TORSDOF 5
ENDMDL
MODEL 2
REMARK VINA RESULT:      -7.1      1.251      1.370
REMARK  Name = 
REMARK  5 active torsions:
REMARK  status: ('A' for Active; 'I' for Inactive)
REMARK    1  A    between atoms: C_2  and  C_3
REMARK    2  A    between atoms: C_8  and  C_9
REMARK    3  A    between atoms: C_11  and  O_12
REMARK    4  A    between atoms: C_13  and  S_14
REMARK    5  A    between atoms: S_14  and  C_15
REMARK                            x       y       z     vdW  Elec       q    Type
REMARK                         _______ _______ _______ _____ _____    ______ ____
ROOT
ATOM      1  C   UNL     1       2.625   7.095  18.925  0.00  0.00    +0.000 C 
ATOM      2  C   UNL     1       2.197   7.968  17.746  0.00  0.00    +0.000 C 
ATOM      3  C   UNL     1       1.834   9.333  18.249  0.00  0.00    +0.000 C 
ATOM      4  C   UNL     1       1.396   9.528  19.508  0.00  0.00    +0.000 C 
ATOM      5  C   UNL     1       1.165   8.353  20.401  0.00  0.00    +0.000 C 
ATOM      6  O   UNL     1       0.542   8.423  21.455  0.00  0.00    +0.000 OA
ATOM      7  O   UNL     1       1.638   7.150  19.971  0.00  0.00    +0.000 OA
ENDROOT
BRANCH   1  13
ATOM      8  C   UNL     1       3.982   5.199  17.843  0.00  0.00    +0.000 A 
ATOM      9  C   UNL     1       4.127   3.848  17.484  0.00  0.00    +0.000 A 
ATOM     10  C   UNL     1       3.119   2.928  17.767  0.00  0.00    +0.000 A 
ATOM     11  C   UNL     1       1.955   3.354  18.398  0.00  0.00    +0.000 A 
ATOM     12  C   UNL     1       1.801   4.695  18.758  0.00  0.00    +0.000 A 
ATOM     13  C   UNL     1       2.815   5.640  18.503  0.00  0.00    +0.000 A 
BRANCH   8  15
ATOM     14  N   UNL     1       5.929   6.805  17.240  0.00  0.00    +0.000 NA
ATOM     15  C   UNL     1       5.043   6.105  17.509  0.00  0.00    +0.000 C 
ENDBRANCH   8  15
ENDBRANCH   1  13
BRANCH   3  16
ATOM     16  O   UNL     1       1.964  10.374  17.348  0.00  0.00    +0.000 OA
ATOM     17  H   UNL     1       2.473  10.091  16.568  0.00  0.00    +0.000 HD
ENDBRANCH   3  16
BRANCH   4  18
ATOM     18  S   UNL     1       0.878  11.085  20.095  0.00  0.00    +0.000 S 
BRANCH  18  19
ATOM     19  C   UNL     1      -0.777  11.127  19.409  0.00  0.00    +0.000 A 
ATOM     20  C   UNL     1      -1.116  10.170  18.438  0.00  0.00    +0.000 A 
ATOM     21  C   UNL     1      -2.390  10.151  17.865  0.00  0.00    +0.000 A 
ATOM     22  C   UNL     1      -3.343  11.091  18.250  0.00  0.00    +0.000 A 
ATOM     23  C   UNL     1      -3.011  12.068  19.187  0.00  0.00    +0.000 A 
ATOM     24  C   UNL     1      -1.731  12.099  19.754  0.00  0.00    +0.000 A 
ATOM     25 CL   UNL     1      -1.399  13.394  20.853  0.00  0.00    +0.000 Cl
ENDBRANCH  18  19
ENDBRANCH   4  18
TORSDOF 5
ENDMDL
MODEL 3
REMARK VINA RESULT:      -7.1      1.773      3.065
REMARK  Name = 
REMARK  5 active torsions:
REMARK  status: ('A' for Active; 'I' for Inactive)
REMARK    1  A    between atoms: C_2  and  C_3
REMARK    2  A    between atoms: C_8  and  C_9
REMARK    3  A    between atoms: C_11  and  O_12
REMARK    4  A    between atoms: C_13  and  S_14
REMARK    5  A    between atoms: S_14  and  C_15
REMARK                            x       y       z     vdW  Elec       q    Type
REMARK                         _______ _______ _______ _____ _____    ______ ____
ROOT
ATOM      1  C   UNL     1       2.355   7.336  18.153  0.00  0.00    +0.000 C 
ATOM      2  C   UNL     1       2.259   7.320  19.678  0.00  0.00    +0.000 C 
ATOM      3  C   UNL     1       1.400   8.463  20.130  0.00  0.00    +0.000 C 
ATOM      4  C   UNL     1       1.272   9.584  19.395  0.00  0.00    +0.000 C 
ATOM      5  C   UNL     1       2.081   9.748  18.148  0.00  0.00    +0.000 C 
ATOM      6  O   UNL     1       2.209  10.820  17.567  0.00  0.00    +0.000 OA
ATOM      7  O   UNL     1       2.734   8.645  17.690  0.00  0.00    +0.000 OA
ENDROOT
BRANCH   1  13
ATOM      8  C   UNL     1       3.158   4.928  17.747  0.00  0.00    +0.000 A 
ATOM      9  C   UNL     1       4.113   4.023  17.255  0.00  0.00    +0.000 A 
ATOM     10  C   UNL     1       5.292   4.485  16.671  0.00  0.00    +0.000 A 
ATOM     11  C   UNL     1       5.528   5.853  16.586  0.00  0.00    +0.000 A 
ATOM     12  C   UNL     1       4.584   6.761  17.072  0.00  0.00    +0.000 A 
ATOM     13  C   UNL     1       3.375   6.319  17.647  0.00  0.00    +0.000 A 
BRANCH   8  15
ATOM     14  N   UNL     1       1.032   3.927  18.849  0.00  0.00    +0.000 NA
ATOM     15  C   UNL     1       1.973   4.396  18.356  0.00  0.00    +0.000 C 
ENDBRANCH   8  15
ENDBRANCH   1  13
BRANCH   3  16
ATOM     16  O   UNL     1       0.757   8.305  21.345  0.00  0.00    +0.000 OA
ATOM     17  H   UNL     1       0.416   9.158  21.665  0.00  0.00    +0.000 HD
ENDBRANCH   3  16
BRANCH   4  18
ATOM     18  S   UNL     1       0.358  10.967  19.933  0.00  0.00    +0.000 S 
BRANCH  18  19
ATOM     19  C   UNL     1      -1.080  10.804  18.877  0.00  0.00    +0.000 A 
ATOM     20  C   UNL     1      -1.011   9.906  17.798  0.00  0.00    +0.000 A 
ATOM     21  C   UNL     1      -2.098   9.735  16.938  0.00  0.00    +0.000 A 
ATOM     22  C   UNL     1      -3.270  10.459  17.140  0.00  0.00    +0.000 A 
ATOM     23  C   UNL     1      -3.343  11.378  18.186  0.00  0.00    +0.000 A 
ATOM     24  C   UNL     1      -2.250  11.563  19.042  0.00  0.00    +0.000 A 
ATOM     25 CL   UNL     1      -2.417  12.777  20.265  0.00  0.00    +0.000 Cl
ENDBRANCH  18  19
ENDBRANCH   4  18
TORSDOF 5
ENDMDL
MODEL 4
REMARK VINA RESULT:      -7.0      1.751      2.025
REMARK  Name = 
REMARK  5 active torsions:
REMARK  status: ('A' for Active; 'I' for Inactive)
REMARK    1  A    between atoms: C_2  and  C_3
REMARK    2  A    between atoms: C_8  and  C_9
REMARK    3  A    between atoms: C_11  and  O_12
REMARK    4  A    between atoms: C_13  and  S_14
REMARK    5  A    between atoms: S_14  and  C_15
REMARK                            x       y       z     vdW  Elec       q    Type
REMARK                         _______ _______ _______ _____ _____    ______ ____
ROOT
ATOM      1  C   UNL     1       3.111   7.118  18.557  0.00  0.00    +0.000 C 
ATOM      2  C   UNL     1       2.529   8.030  17.478  0.00  0.00    +0.000 C 
ATOM      3  C   UNL     1       2.002   9.279  18.120  0.00  0.00    +0.000 C 
ATOM      4  C   UNL     1       1.585   9.292  19.400  0.00  0.00    +0.000 C 
ATOM      5  C   UNL     1       1.545   8.017  20.179  0.00  0.00    +0.000 C 
ATOM      6  O   UNL     1       0.955   7.902  21.248  0.00  0.00    +0.000 OA
ATOM      7  O   UNL     1       2.162   6.938  19.624  0.00  0.00    +0.000 OA
ENDROOT
BRANCH   1  13
ATOM      8  C   UNL     1       4.740   5.499  17.402  0.00  0.00    +0.000 A 
ATOM      9  C   UNL     1       5.050   4.221  16.907  0.00  0.00    +0.000 A 
ATOM     10  C   UNL     1       4.118   3.188  16.980  0.00  0.00    +0.000 A 
ATOM     11  C   UNL     1       2.866   3.426  17.538  0.00  0.00    +0.000 A 
ATOM     12  C   UNL     1       2.549   4.694  18.033  0.00  0.00    +0.000 A 
ATOM     13  C   UNL     1       3.481   5.749  17.991  0.00  0.00    +0.000 A 
BRANCH   8  15
ATOM     14  N   UNL     1       6.515   7.375  17.149  0.00  0.00    +0.000 NA
ATOM     15  C   UNL     1       5.730   6.529  17.283  0.00  0.00    +0.000 C 
ENDBRANCH   8  15
ENDBRANCH   1  13
BRANCH   3  16
ATOM     16  O   UNL     1       1.959  10.408  17.322  0.00  0.00    +0.000 OA
ATOM     17  H   UNL     1       2.732  10.974  17.488  0.00  0.00    +0.000 HD
ENDBRANCH   3  16
BRANCH   4  18
ATOM     18  S   UNL     1       0.881  10.700  20.149  0.00  0.00    +0.000 S 
BRANCH  18  19
ATOM     19  C   UNL     1      -0.549  10.916  19.091  0.00  0.00    +0.000 A 
ATOM     20  C   UNL     1      -1.366   9.801  18.846  0.00  0.00    +0.000 A 
ATOM     21  C   UNL     1      -2.496   9.905  18.030  0.00  0.00    +0.000 A 
ATOM     22  C   UNL     1      -2.824  11.125  17.443  0.00  0.00    +0.000 A 
ATOM     23  C   UNL     1      -2.004  12.234  17.651  0.00  0.00    +0.000 A 
ATOM     24  C   UNL     1      -0.864  12.130  18.456  0.00  0.00    +0.000 A 
ATOM     25 CL   UNL     1       0.124  13.545  18.592  0.00  0.00    +0.000 Cl
ENDBRANCH  18  19
ENDBRANCH   4  18
TORSDOF 5
ENDMDL
MODEL 5
REMARK VINA RESULT:      -7.0      5.867      8.099
REMARK  Name = 
REMARK  5 active torsions:
REMARK  status: ('A' for Active; 'I' for Inactive)
REMARK    1  A    between atoms: C_2  and  C_3
REMARK    2  A    between atoms: C_8  and  C_9
REMARK    3  A    between atoms: C_11  and  O_12
REMARK    4  A    between atoms: C_13  and  S_14
REMARK    5  A    between atoms: S_14  and  C_15
REMARK                            x       y       z     vdW  Elec       q    Type
REMARK                         _______ _______ _______ _____ _____    ______ ____
ROOT
ATOM      1  C   UNL     1       4.059   4.486  18.002  0.00  0.00    +0.000 C 
ATOM      2  C   UNL     1       3.899   5.894  17.428  0.00  0.00    +0.000 C 
ATOM      3  C   UNL     1       5.028   6.172  16.481  0.00  0.00    +0.000 C 
ATOM      4  C   UNL     1       6.220   5.557  16.604  0.00  0.00    +0.000 C 
ATOM      5  C   UNL     1       6.469   4.652  17.767  0.00  0.00    +0.000 C 
ATOM      6  O   UNL     1       7.587   4.257  18.083  0.00  0.00    +0.000 OA
ATOM      7  O   UNL     1       5.390   4.307  18.521  0.00  0.00    +0.000 OA
ENDROOT
BRANCH   1  13
ATOM      8  C   UNL     1       2.748   2.915  19.557  0.00  0.00    +0.000 A 
ATOM      9  C   UNL     1       1.829   2.712  20.600  0.00  0.00    +0.000 A 
ATOM     10  C   UNL     1       1.199   3.796  21.210  0.00  0.00    +0.000 A 
ATOM     11  C   UNL     1       1.475   5.087  20.774  0.00  0.00    +0.000 A 
ATOM     12  C   UNL     1       2.388   5.299  19.738  0.00  0.00    +0.000 A 
ATOM     13  C   UNL     1       3.054   4.221  19.120  0.00  0.00    +0.000 A 
BRANCH   8  15
ATOM     14  N   UNL     1       3.876   0.843  18.475  0.00  0.00    +0.000 NA
ATOM     15  C   UNL     1       3.351   1.761  18.954  0.00  0.00    +0.000 C 
ENDBRANCH   8  15
ENDBRANCH   1  13
BRANCH   3  16
ATOM     16  O   UNL     1       4.780   7.099  15.485  0.00  0.00    +0.000 OA
ATOM     17  H   UNL     1       5.463   7.791  15.483  0.00  0.00    +0.000 HD
ENDBRANCH   3  16
BRANCH   4  18
ATOM     18  S   UNL     1       7.581   5.924  15.579  0.00  0.00    +0.000 S 
BRANCH  18  19
ATOM     19  C   UNL     1       7.125   4.979  14.127  0.00  0.00    +0.000 A 
ATOM     20  C   UNL     1       6.102   4.025  14.252  0.00  0.00    +0.000 A 
ATOM     21  C   UNL     1       5.702   3.256  13.156  0.00  0.00    +0.000 A 
ATOM     22  C   UNL     1       6.319   3.427  11.920  0.00  0.00    +0.000 A 
ATOM     23  C   UNL     1       7.359   4.346  11.788  0.00  0.00    +0.000 A 
ATOM     24  C   UNL     1       7.773   5.109  12.887  0.00  0.00    +0.000 A 
ATOM     25 CL   UNL     1       9.117   6.169  12.635  0.00  0.00    +0.000 Cl
ENDBRANCH  18  19
ENDBRANCH   4  18
TORSDOF 5
ENDMDL
MODEL 6
REMARK VINA RESULT:      -6.7      3.657      7.297
REMARK  Name = 
REMARK  5 active torsions:
REMARK  status: ('A' for Active; 'I' for Inactive)
REMARK    1  A    between atoms: C_2  and  C_3
REMARK    2  A    between atoms: C_8  and  C_9
REMARK    3  A    between atoms: C_11  and  O_12
REMARK    4  A    between atoms: C_13  and  S_14
REMARK    5  A    between atoms: S_14  and  C_15
REMARK                            x       y       z     vdW  Elec       q    Type
REMARK                         _______ _______ _______ _____ _____    ______ ____
ROOT
ATOM      1  C   UNL     1       0.898   7.942  19.973  0.00  0.00    +0.000 C 
ATOM      2  C   UNL     1       1.944   8.570  19.053  0.00  0.00    +0.000 C 
ATOM      3  C   UNL     1       2.571   7.497  18.214  0.00  0.00    +0.000 C 
ATOM      4  C   UNL     1       2.629   6.218  18.632  0.00  0.00    +0.000 C 
ATOM      5  C   UNL     1       2.154   5.866  20.005  0.00  0.00    +0.000 C 
ATOM      6  O   UNL     1       2.399   4.792  20.545  0.00  0.00    +0.000 OA
ATOM      7  O   UNL     1       1.462   6.824  20.681  0.00  0.00    +0.000 OA
ENDROOT
BRANCH   1  13
ATOM      8  C   UNL     1      -0.403  10.068  20.600  0.00  0.00    +0.000 A 
ATOM      9  C   UNL     1      -0.887  10.968  21.565  0.00  0.00    +0.000 A 
ATOM     10  C   UNL     1      -0.604  10.775  22.917  0.00  0.00    +0.000 A 
ATOM     11  C   UNL     1       0.173   9.691  23.311  0.00  0.00    +0.000 A 
ATOM     12  C   UNL     1       0.658   8.792  22.358  0.00  0.00    +0.000 A 
ATOM     13  C   UNL     1       0.368   8.952  20.988  0.00  0.00    +0.000 A 
BRANCH   8  15
ATOM     14  N   UNL     1      -0.987  10.507  18.109  0.00  0.00    +0.000 NA
ATOM     15  C   UNL     1      -0.709  10.327  19.222  0.00  0.00    +0.000 C 
ENDBRANCH   8  15
ENDBRANCH   1  13
BRANCH   3  16
ATOM     16  O   UNL     1       3.092   7.896  16.996  0.00  0.00    +0.000 OA
ATOM     17  H   UNL     1       4.060   7.792  16.988  0.00  0.00    +0.000 HD
ENDBRANCH   3  16
BRANCH   4  18
ATOM     18  S   UNL     1       3.433   4.965  17.725  0.00  0.00    +0.000 S 
BRANCH  18  19
ATOM     19  C   UNL     1       5.136   5.461  17.975  0.00  0.00    +0.000 A 
ATOM     20  C   UNL     1       5.690   5.305  19.256  0.00  0.00    +0.000 A 
ATOM     21  C   UNL     1       7.013   5.673  19.514  0.00  0.00    +0.000 A 
ATOM     22  C   UNL     1       7.801   6.206  18.498  0.00  0.00    +0.000 A 
ATOM     23  C   UNL     1       7.255   6.398  17.229  0.00  0.00    +0.000 A 
ATOM     24  C   UNL     1       5.926   6.044  16.970  0.00  0.00    +0.000 A 
ATOM     25 CL   UNL     1       5.324   6.389  15.384  0.00  0.00    +0.000 Cl
ENDBRANCH  18  19
ENDBRANCH   4  18
TORSDOF 5
ENDMDL
MODEL 7
REMARK VINA RESULT:      -6.7      3.726      7.309
REMARK  Name = 
REMARK  5 active torsions:
REMARK  status: ('A' for Active; 'I' for Inactive)
REMARK    1  A    between atoms: C_2  and  C_3
REMARK    2  A    between atoms: C_8  and  C_9
REMARK    3  A    between atoms: C_11  and  O_12
REMARK    4  A    between atoms: C_13  and  S_14
REMARK    5  A    between atoms: S_14  and  C_15
REMARK                            x       y       z     vdW  Elec       q    Type
REMARK                         _______ _______ _______ _____ _____    ______ ____
ROOT
ATOM      1  C   UNL     1       1.803   8.165  20.567  0.00  0.00    +0.000 C 
ATOM      2  C   UNL     1       1.366   6.744  20.918  0.00  0.00    +0.000 C 
ATOM      3  C   UNL     1       2.133   5.769  20.075  0.00  0.00    +0.000 C 
ATOM      4  C   UNL     1       2.625   6.114  18.869  0.00  0.00    +0.000 C 
ATOM      5  C   UNL     1       2.317   7.462  18.302  0.00  0.00    +0.000 C 
ATOM      6  O   UNL     1       2.512   7.756  17.127  0.00  0.00    +0.000 OA
ATOM      7  O   UNL     1       1.748   8.368  19.144  0.00  0.00    +0.000 OA
ENDROOT
BRANCH   1  13
ATOM      8  C   UNL     1       0.720  10.493  20.704  0.00  0.00    +0.000 A 
ATOM      9  C   UNL     1      -0.115  11.418  21.352  0.00  0.00    +0.000 A 
ATOM     10  C   UNL     1      -0.753  11.082  22.545  0.00  0.00    +0.000 A 
ATOM     11  C   UNL     1      -0.550   9.825  23.104  0.00  0.00    +0.000 A 
ATOM     12  C   UNL     1       0.279   8.898  22.467  0.00  0.00    +0.000 A 
ATOM     13  C   UNL     1       0.917   9.206  21.248  0.00  0.00    +0.000 A 
BRANCH   8  15
ATOM     14  N   UNL     1       1.851  11.244  18.492  0.00  0.00    +0.000 NA
ATOM     15  C   UNL     1       1.366  10.900  19.489  0.00  0.00    +0.000 C 
ENDBRANCH   8  15
ENDBRANCH   1  13
BRANCH   3  16
ATOM     16  O   UNL     1       2.299   4.500  20.600  0.00  0.00    +0.000 OA
ATOM     17  H   UNL     1       2.523   3.866  19.897  0.00  0.00    +0.000 HD
ENDBRANCH   3  16
BRANCH   4  18
ATOM     18  S   UNL     1       3.440   4.981  17.825  0.00  0.00    +0.000 S 
BRANCH  18  19
ATOM     19  C   UNL     1       5.129   5.538  18.042  0.00  0.00    +0.000 A 
ATOM     20  C   UNL     1       5.755   5.289  19.274  0.00  0.00    +0.000 A 
ATOM     21  C   UNL     1       7.071   5.698  19.505  0.00  0.00    +0.000 A 
ATOM     22  C   UNL     1       7.780   6.365  18.509  0.00  0.00    +0.000 A 
ATOM     23  C   UNL     1       7.162   6.648  17.293  0.00  0.00    +0.000 A 
ATOM     24  C   UNL     1       5.839   6.252  17.062  0.00  0.00    +0.000 A 
ATOM     25 CL   UNL     1       5.141   6.715  15.547  0.00  0.00    +0.000 Cl
ENDBRANCH  18  19
ENDBRANCH   4  18
TORSDOF 5
ENDMDL
MODEL 8
REMARK VINA RESULT:      -6.6      3.398      7.429
REMARK  Name = 
REMARK  5 active torsions:
REMARK  status: ('A' for Active; 'I' for Inactive)
REMARK    1  A    between atoms: C_2  and  C_3
REMARK    2  A    between atoms: C_8  and  C_9
REMARK    3  A    between atoms: C_11  and  O_12
REMARK    4  A    between atoms: C_13  and  S_14
REMARK    5  A    between atoms: S_14  and  C_15
REMARK                            x       y       z     vdW  Elec       q    Type
REMARK                         _______ _______ _______ _____ _____    ______ ____
ROOT
ATOM      1  C   UNL     1       1.263   9.419  19.112  0.00  0.00    +0.000 C 
ATOM      2  C   UNL     1       0.781   8.393  20.137  0.00  0.00    +0.000 C 
ATOM      3  C   UNL     1       1.843   7.351  20.328  0.00  0.00    +0.000 C 
ATOM      4  C   UNL     1       2.732   7.063  19.358  0.00  0.00    +0.000 C 
ATOM      5  C   UNL     1       2.605   7.717  18.020  0.00  0.00    +0.000 C 
ATOM      6  O   UNL     1       3.209   7.332  17.025  0.00  0.00    +0.000 OA
ATOM      7  O   UNL     1       1.730   8.756  17.924  0.00  0.00    +0.000 OA
ENDROOT
BRANCH   1  13
ATOM      8  C   UNL     1       0.080  11.697  19.260  0.00  0.00    +0.000 A 
ATOM      9  C   UNL     1      -0.952  12.568  18.871  0.00  0.00    +0.000 A 
ATOM     10  C   UNL     1      -1.926  12.151  17.965  0.00  0.00    +0.000 A 
ATOM     11  C   UNL     1      -1.882  10.860  17.451  0.00  0.00    +0.000 A 
ATOM     12  C   UNL     1      -0.860   9.986  17.832  0.00  0.00    +0.000 A 
ATOM     13  C   UNL     1       0.149  10.390  18.730  0.00  0.00    +0.000 A 
BRANCH   8  15
ATOM     14  N   UNL     1       1.805  12.595  20.978  0.00  0.00    +0.000 NA
ATOM     15  C   UNL     1       1.044  12.172  20.210  0.00  0.00    +0.000 C 
ENDBRANCH   8  15
ENDBRANCH   1  13
BRANCH   3  16
ATOM     16  O   UNL     1       1.851   6.698  21.547  0.00  0.00    +0.000 OA
ATOM     17  H   UNL     1       0.965   6.356  21.759  0.00  0.00    +0.000 HD
ENDBRANCH   3  16
BRANCH   4  18
ATOM     18  S   UNL     1       3.918   5.796  19.511  0.00  0.00    +0.000 S 
BRANCH  18  19
ATOM     19  C   UNL     1       2.893   4.379  19.124  0.00  0.00    +0.000 A 
ATOM     20  C   UNL     1       1.957   3.956  20.082  0.00  0.00    +0.000 A 
ATOM     21  C   UNL     1       1.128   2.858  19.839  0.00  0.00    +0.000 A 
ATOM     22  C   UNL     1       1.225   2.163  18.636  0.00  0.00    +0.000 A 
ATOM     23  C   UNL     1       2.172   2.549  17.689  0.00  0.00    +0.000 A 
ATOM     24  C   UNL     1       3.014   3.641  17.934  0.00  0.00    +0.000 A 
ATOM     25 CL   UNL     1       4.201   3.994  16.726  0.00  0.00    +0.000 Cl
ENDBRANCH  18  19
ENDBRANCH   4  18
TORSDOF 5
ENDMDL
MODEL 9
REMARK VINA RESULT:      -6.6      3.957      7.368
REMARK  Name = 
REMARK  5 active torsions:
REMARK  status: ('A' for Active; 'I' for Inactive)
REMARK    1  A    between atoms: C_2  and  C_3
REMARK    2  A    between atoms: C_8  and  C_9
REMARK    3  A    between atoms: C_11  and  O_12
REMARK    4  A    between atoms: C_13  and  S_14
REMARK    5  A    between atoms: S_14  and  C_15
REMARK                            x       y       z     vdW  Elec       q    Type
REMARK                         _______ _______ _______ _____ _____    ______ ____
ROOT
ATOM      1  C   UNL     1       1.790   8.563  20.489  0.00  0.00    +0.000 C 
ATOM      2  C   UNL     1       1.459   7.104  20.799  0.00  0.00    +0.000 C 
ATOM      3  C   UNL     1       2.236   6.214  19.875  0.00  0.00    +0.000 C 
ATOM      4  C   UNL     1       2.639   6.637  18.661  0.00  0.00    +0.000 C 
ATOM      5  C   UNL     1       2.220   7.985  18.171  0.00  0.00    +0.000 C 
ATOM      6  O   UNL     1       2.332   8.339  17.002  0.00  0.00    +0.000 OA
ATOM      7  O   UNL     1       1.645   8.820  19.080  0.00  0.00    +0.000 OA
ENDROOT
BRANCH   1  13
ATOM      8  C   UNL     1       0.680  10.853  20.850  0.00  0.00    +0.000 A 
ATOM      9  C   UNL     1      -0.176  11.697  21.578  0.00  0.00    +0.000 A 
ATOM     10  C   UNL     1      -0.827  11.232  22.719  0.00  0.00    +0.000 A 
ATOM     11  C   UNL     1      -0.619   9.925  23.146  0.00  0.00    +0.000 A 
ATOM     12  C   UNL     1       0.230   9.078  22.429  0.00  0.00    +0.000 A 
ATOM     13  C   UNL     1       0.883   9.518  21.260  0.00  0.00    +0.000 A 
BRANCH   8  15
ATOM     14  N   UNL     1       1.857  11.865  18.771  0.00  0.00    +0.000 NA
ATOM     15  C   UNL     1       1.339  11.391  19.695  0.00  0.00    +0.000 C 
ENDBRANCH   8  15
ENDBRANCH   1  13
BRANCH   3  16
ATOM     16  O   UNL     1       2.505   4.937  20.334  0.00  0.00    +0.000 OA
ATOM     17  H   UNL     1       3.451   4.840  20.540  0.00  0.00    +0.000 HD
ENDBRANCH   3  16
BRANCH   4  18
ATOM     18  S   UNL     1       3.461   5.601  17.527  0.00  0.00    +0.000 S 
BRANCH  18  19
ATOM     19  C   UNL     1       5.159   6.017  17.919  0.00  0.00    +0.000 A 
ATOM     20  C   UNL     1       5.740   7.116  17.266  0.00  0.00    +0.000 A 
ATOM     21  C   UNL     1       7.060   7.491  17.529  0.00  0.00    +0.000 A 
ATOM     22  C   UNL     1       7.821   6.770  18.446  0.00  0.00    +0.000 A 
ATOM     23  C   UNL     1       7.270   5.656  19.077  0.00  0.00    +0.000 A 
ATOM     24  C   UNL     1       5.952   5.269  18.806  0.00  0.00    +0.000 A 
ATOM     25 CL   UNL     1       5.387   3.832  19.588  0.00  0.00    +0.000 Cl
ENDBRANCH  18  19
ENDBRANCH   4  18
TORSDOF 5
ENDMDL
