MODEL 1
REMARK VINA RESULT:      -8.1      0.000      0.000
REMARK  Name = 
REMARK  5 active torsions:
REMARK  status: ('A' for Active; 'I' for Inactive)
REMARK    1  A    between atoms: C_1  and  N_2
REMARK    2  A    between atoms: C_5  and  C_6
REMARK    3  A    between atoms: C_11  and  C_13
REMARK    4  A    between atoms: C_13  and  C_14
REMARK    5  A    between atoms: C_14  and  C_15
REMARK                            x       y       z     vdW  Elec       q    Type
REMARK                         _______ _______ _______ _____ _____    ______ ____
ROOT
ATOM      1  C   UNL     1       3.907   3.898  18.181  0.00  0.00    +0.000 C 
ATOM      2  C   UNL     1       3.183   2.593  17.827  0.00  0.00    +0.000 C 
ATOM      3  C   UNL     1       1.802   2.799  18.430  0.00  0.00    +0.000 C 
ATOM      4  C   UNL     1       1.551   4.292  18.272  0.00  0.00    +0.000 C 
ATOM      5  N   UNL     1       2.850   4.902  18.014  0.00  0.00    +0.000 N 
ATOM      6  C   UNL     1       3.059   6.276  17.972  0.00  0.00    +0.000 C 
ATOM      7  O   UNL     1       4.167   6.797  17.896  0.00  0.00    +0.000 OA
ENDROOT
BRANCH   1  12
ATOM      8  C   UNL     1       5.536   3.994  13.145  0.00  0.00    +0.000 C 
ATOM      9  N   UNL     1       6.657   3.741  14.020  0.00  0.00    +0.000 N 
ATOM     10  C   UNL     1       6.490   4.009  15.373  0.00  0.00    +0.000 A 
ATOM     11  C   UNL     1       5.294   3.779  16.048  0.00  0.00    +0.000 A 
ATOM     12  C   UNL     1       5.190   4.077  17.410  0.00  0.00    +0.000 A 
ATOM     13  C   UNL     1       6.334   4.552  18.059  0.00  0.00    +0.000 A 
ATOM     14  C   UNL     1       7.491   4.728  17.322  0.00  0.00    +0.000 A 
ATOM     15  N   UNL     1       7.589   4.467  16.002  0.00  0.00    +0.000 NA
ATOM     16  H   UNL     1       7.530   4.192  13.757  0.00  0.00    +0.000 HD
ENDBRANCH   1  12
BRANCH   6  17
ATOM     17  C   UNL     1       1.787   7.116  18.057  0.00  0.00    +0.000 C 
BRANCH  17  18
ATOM     18  C   UNL     1       2.031   8.605  18.294  0.00  0.00    +0.000 C 
BRANCH  18  19
ATOM     19  C   UNL     1       1.276   9.071  19.519  0.00  0.00    +0.000 A 
ATOM     20  C   UNL     1       1.360   8.362  20.726  0.00  0.00    +0.000 A 
ATOM     21  C   UNL     1       0.626   8.771  21.845  0.00  0.00    +0.000 A 
ATOM     22  C   UNL     1      -0.202   9.891  21.770  0.00  0.00    +0.000 A 
ATOM     23  C   UNL     1      -0.298  10.601  20.575  0.00  0.00    +0.000 A 
ATOM     24  C   UNL     1       0.433  10.185  19.464  0.00  0.00    +0.000 A 
ATOM     25  F   UNL     1       0.303  10.870  18.318  0.00  0.00    +0.000 F 
ENDBRANCH  18  19
ENDBRANCH  17  18
ENDBRANCH   6  17
TORSDOF 4
ENDMDL
MODEL 2
REMARK VINA RESULT:      -8.1      0.939      1.393
REMARK  Name = 
REMARK  5 active torsions:
REMARK  status: ('A' for Active; 'I' for Inactive)
REMARK    1  A    between atoms: C_1  and  N_2
REMARK    2  A    between atoms: C_5  and  C_6
REMARK    3  A    between atoms: C_11  and  C_13
REMARK    4  A    between atoms: C_13  and  C_14
REMARK    5  A    between atoms: C_14  and  C_15
REMARK                            x       y       z     vdW  Elec       q    Type
REMARK                         _______ _______ _______ _____ _____    ______ ____
ROOT
ATOM      1  C   UNL     1       3.892   3.953  18.110  0.00  0.00    +0.000 C 
ATOM      2  C   UNL     1       3.131   2.676  17.731  0.00  0.00    +0.000 C 
ATOM      3  C   UNL     1       1.751   2.917  18.322  0.00  0.00    +0.000 C 
ATOM      4  C   UNL     1       1.547   4.419  18.181  0.00  0.00    +0.000 C 
ATOM      5  N   UNL     1       2.868   4.992  17.945  0.00  0.00    +0.000 N 
ATOM      6  C   UNL     1       3.120   6.359  17.923  0.00  0.00    +0.000 C 
ATOM      7  O   UNL     1       4.245   6.846  17.867  0.00  0.00    +0.000 OA
ENDROOT
BRANCH   1  12
ATOM      8  C   UNL     1       5.588   4.003  13.096  0.00  0.00    +0.000 C 
ATOM      9  N   UNL     1       6.691   3.726  13.986  0.00  0.00    +0.000 N 
ATOM     10  C   UNL     1       6.512   4.001  15.336  0.00  0.00    +0.000 A 
ATOM     11  C   UNL     1       5.303   3.799  15.996  0.00  0.00    +0.000 A 
ATOM     12  C   UNL     1       5.188   4.102  17.355  0.00  0.00    +0.000 A 
ATOM     13  C   UNL     1       6.333   4.553  18.019  0.00  0.00    +0.000 A 
ATOM     14  C   UNL     1       7.504   4.701  17.297  0.00  0.00    +0.000 A 
ATOM     15  N   UNL     1       7.614   4.436  15.979  0.00  0.00    +0.000 NA
ATOM     16  H   UNL     1       7.578   4.157  13.734  0.00  0.00    +0.000 HD
ENDBRANCH   1  12
BRANCH   6  17
ATOM     17  C   UNL     1       1.874   7.237  18.006  0.00  0.00    +0.000 C 
BRANCH  17  18
ATOM     18  C   UNL     1       2.164   8.734  18.089  0.00  0.00    +0.000 C 
BRANCH  18  19
ATOM     19  C   UNL     1       1.133   9.420  18.957  0.00  0.00    +0.000 A 
ATOM     20  C   UNL     1       0.266  10.382  18.416  0.00  0.00    +0.000 A 
ATOM     21  C   UNL     1      -0.657  11.046  19.231  0.00  0.00    +0.000 A 
ATOM     22  C   UNL     1      -0.723  10.762  20.595  0.00  0.00    +0.000 A 
ATOM     23  C   UNL     1       0.137   9.813  21.145  0.00  0.00    +0.000 A 
ATOM     24  C   UNL     1       1.056   9.157  20.328  0.00  0.00    +0.000 A 
ATOM     25  F   UNL     1       1.890   8.268  20.885  0.00  0.00    +0.000 F 
ENDBRANCH  18  19
ENDBRANCH  17  18
ENDBRANCH   6  17
TORSDOF 4
ENDMDL
MODEL 3
REMARK VINA RESULT:      -7.9      4.339      8.039
REMARK  Name = 
REMARK  5 active torsions:
REMARK  status: ('A' for Active; 'I' for Inactive)
REMARK    1  A    between atoms: C_1  and  N_2
REMARK    2  A    between atoms: C_5  and  C_6
REMARK    3  A    between atoms: C_11  and  C_13
REMARK    4  A    between atoms: C_13  and  C_14
REMARK    5  A    between atoms: C_14  and  C_15
REMARK                            x       y       z     vdW  Elec       q    Type
REMARK                         _______ _______ _______ _____ _____    ______ ____
ROOT
ATOM      1  C   UNL     1      -0.210   9.852  20.643  0.00  0.00    +0.000 C 
ATOM      2  C   UNL     1      -0.128  10.382  22.080  0.00  0.00    +0.000 C 
ATOM      3  C   UNL     1       0.419   9.191  22.849  0.00  0.00    +0.000 C 
ATOM      4  C   UNL     1       1.352   8.509  21.858  0.00  0.00    +0.000 C 
ATOM      5  N   UNL     1       1.000   9.027  20.541  0.00  0.00    +0.000 N 
ATOM      6  C   UNL     1       1.522   8.526  19.353  0.00  0.00    +0.000 C 
ATOM      7  O   UNL     1       1.128   8.859  18.240  0.00  0.00    +0.000 OA
ENDROOT
BRANCH   1  12
ATOM      8  C   UNL     1      -3.650  11.158  16.838  0.00  0.00    +0.000 C 
ATOM      9  N   UNL     1      -2.402  11.855  16.633  0.00  0.00    +0.000 N 
ATOM     10  C   UNL     1      -1.509  11.900  17.696  0.00  0.00    +0.000 A 
ATOM     11  C   UNL     1      -1.324  10.837  18.576  0.00  0.00    +0.000 A 
ATOM     12  C   UNL     1      -0.414  10.949  19.630  0.00  0.00    +0.000 A 
ATOM     13  C   UNL     1       0.327  12.132  19.724  0.00  0.00    +0.000 A 
ATOM     14  C   UNL     1       0.104  13.131  18.793  0.00  0.00    +0.000 A 
ATOM     15  N   UNL     1      -0.793  13.038  17.790  0.00  0.00    +0.000 NA
ATOM     16  H   UNL     1      -2.482  12.813  16.302  0.00  0.00    +0.000 HD
ENDBRANCH   1  12
BRANCH   6  17
ATOM     17  C   UNL     1       2.625   7.486  19.531  0.00  0.00    +0.000 C 
BRANCH  17  18
ATOM     18  C   UNL     1       2.532   6.300  18.575  0.00  0.00    +0.000 C 
BRANCH  18  19
ATOM     19  C   UNL     1       2.064   5.066  19.314  0.00  0.00    +0.000 A 
ATOM     20  C   UNL     1       2.306   4.918  20.688  0.00  0.00    +0.000 A 
ATOM     21  C   UNL     1       1.911   3.756  21.359  0.00  0.00    +0.000 A 
ATOM     22  C   UNL     1       1.273   2.727  20.666  0.00  0.00    +0.000 A 
ATOM     23  C   UNL     1       1.032   2.859  19.300  0.00  0.00    +0.000 A 
ATOM     24  C   UNL     1       1.432   4.018  18.637  0.00  0.00    +0.000 A 
ATOM     25  F   UNL     1       1.212   4.111  17.318  0.00  0.00    +0.000 F 
ENDBRANCH  18  19
ENDBRANCH  17  18
ENDBRANCH   6  17
TORSDOF 4
ENDMDL
MODEL 4
REMARK VINA RESULT:      -7.8      1.065      1.110
REMARK  Name = 
REMARK  5 active torsions:
REMARK  status: ('A' for Active; 'I' for Inactive)
REMARK    1  A    between atoms: C_1  and  N_2
REMARK    2  A    between atoms: C_5  and  C_6
REMARK    3  A    between atoms: C_11  and  C_13
REMARK    4  A    between atoms: C_13  and  C_14
REMARK    5  A    between atoms: C_14  and  C_15
REMARK                            x       y       z     vdW  Elec       q    Type
REMARK                         _______ _______ _______ _____ _____    ______ ____
ROOT
ATOM      1  C   UNL     1       4.182   4.988  19.367  0.00  0.00    +0.000 C 
ATOM      2  C   UNL     1       3.572   3.621  19.700  0.00  0.00    +0.000 C 
ATOM      3  C   UNL     1       2.196   3.986  20.233  0.00  0.00    +0.000 C 
ATOM      4  C   UNL     1       1.802   5.216  19.427  0.00  0.00    +0.000 C 
ATOM      5  N   UNL     1       3.031   5.726  18.831  0.00  0.00    +0.000 N 
ATOM      6  C   UNL     1       3.111   6.936  18.150  0.00  0.00    +0.000 C 
ATOM      7  O   UNL     1       4.164   7.438  17.771  0.00  0.00    +0.000 OA
ENDROOT
BRANCH   1  12
ATOM      8  C   UNL     1       5.455   4.200  14.290  0.00  0.00    +0.000 C 
ATOM      9  N   UNL     1       6.589   3.902  15.134  0.00  0.00    +0.000 N 
ATOM     10  C   UNL     1       6.554   4.363  16.443  0.00  0.00    +0.000 A 
ATOM     11  C   UNL     1       5.388   4.397  17.203  0.00  0.00    +0.000 A 
ATOM     12  C   UNL     1       5.420   4.879  18.515  0.00  0.00    +0.000 A 
ATOM     13  C   UNL     1       6.660   5.264  19.034  0.00  0.00    +0.000 A 
ATOM     14  C   UNL     1       7.777   5.175  18.222  0.00  0.00    +0.000 A 
ATOM     15  N   UNL     1       7.747   4.735  16.948  0.00  0.00    +0.000 NA
ATOM     16  H   UNL     1       7.495   4.184  14.768  0.00  0.00    +0.000 HD
ENDBRANCH   1  12
BRANCH   6  17
ATOM     17  C   UNL     1       1.770   7.630  17.928  0.00  0.00    +0.000 C 
BRANCH  17  18
ATOM     18  C   UNL     1       1.790   9.135  18.186  0.00  0.00    +0.000 C 
BRANCH  18  19
ATOM     19  C   UNL     1       1.070   9.455  19.477  0.00  0.00    +0.000 A 
ATOM     20  C   UNL     1       1.270   8.670  20.623  0.00  0.00    +0.000 A 
ATOM     21  C   UNL     1       0.569   8.942  21.803  0.00  0.00    +0.000 A 
ATOM     22  C   UNL     1      -0.342   9.998  21.852  0.00  0.00    +0.000 A 
ATOM     23  C   UNL     1      -0.553  10.780  20.719  0.00  0.00    +0.000 A 
ATOM     24  C   UNL     1       0.146  10.502  19.546  0.00  0.00    +0.000 A 
ATOM     25  F   UNL     1      -0.095  11.253  18.462  0.00  0.00    +0.000 F 
ENDBRANCH  18  19
ENDBRANCH  17  18
ENDBRANCH   6  17
TORSDOF 4
ENDMDL
MODEL 5
REMARK VINA RESULT:      -7.8      1.063      1.303
REMARK  Name = 
REMARK  5 active torsions:
REMARK  status: ('A' for Active; 'I' for Inactive)
REMARK    1  A    between atoms: C_1  and  N_2
REMARK    2  A    between atoms: C_5  and  C_6
REMARK    3  A    between atoms: C_11  and  C_13
REMARK    4  A    between atoms: C_13  and  C_14
REMARK    5  A    between atoms: C_14  and  C_15
REMARK                            x       y       z     vdW  Elec       q    Type
REMARK                         _______ _______ _______ _____ _____    ______ ____
ROOT
ATOM      1  C   UNL     1       4.029   4.323  18.596  0.00  0.00    +0.000 C 
ATOM      2  C   UNL     1       3.250   3.007  18.484  0.00  0.00    +0.000 C 
ATOM      3  C   UNL     1       1.911   3.353  19.115  0.00  0.00    +0.000 C 
ATOM      4  C   UNL     1       1.693   4.813  18.741  0.00  0.00    +0.000 C 
ATOM      5  N   UNL     1       2.993   5.328  18.329  0.00  0.00    +0.000 N 
ATOM      6  C   UNL     1       3.239   6.671  18.064  0.00  0.00    +0.000 C 
ATOM      7  O   UNL     1       4.356   7.134  17.856  0.00  0.00    +0.000 OA
ENDROOT
BRANCH   1  12
ATOM      8  C   UNL     1       5.344   4.028  13.477  0.00  0.00    +0.000 C 
ATOM      9  N   UNL     1       6.486   3.701  14.299  0.00  0.00    +0.000 N 
ATOM     10  C   UNL     1       6.431   4.045  15.643  0.00  0.00    +0.000 A 
ATOM     11  C   UNL     1       5.262   3.968  16.396  0.00  0.00    +0.000 A 
ATOM     12  C   UNL     1       5.273   4.336  17.745  0.00  0.00    +0.000 A 
ATOM     13  C   UNL     1       6.496   4.721  18.303  0.00  0.00    +0.000 A 
ATOM     14  C   UNL     1       7.618   4.745  17.493  0.00  0.00    +0.000 A 
ATOM     15  N   UNL     1       7.607   4.416  16.185  0.00  0.00    +0.000 NA
ATOM     16  H   UNL     1       7.382   4.048  13.964  0.00  0.00    +0.000 HD
ENDBRANCH   1  12
BRANCH   6  17
ATOM     17  C   UNL     1       1.998   7.560  18.082  0.00  0.00    +0.000 C 
BRANCH  17  18
ATOM     18  C   UNL     1       2.249   9.000  17.639  0.00  0.00    +0.000 C 
BRANCH  18  19
ATOM     19  C   UNL     1       1.485   9.961  18.522  0.00  0.00    +0.000 A 
ATOM     20  C   UNL     1       0.435   9.507  19.335  0.00  0.00    +0.000 A 
ATOM     21  C   UNL     1      -0.298  10.406  20.118  0.00  0.00    +0.000 A 
ATOM     22  C   UNL     1       0.005  11.768  20.095  0.00  0.00    +0.000 A 
ATOM     23  C   UNL     1       1.042  12.231  19.287  0.00  0.00    +0.000 A 
ATOM     24  C   UNL     1       1.765  11.330  18.507  0.00  0.00    +0.000 A 
ATOM     25  F   UNL     1       2.741  11.804  17.719  0.00  0.00    +0.000 F 
ENDBRANCH  18  19
ENDBRANCH  17  18
ENDBRANCH   6  17
TORSDOF 4
ENDMDL
MODEL 6
REMARK VINA RESULT:      -7.5      4.315      8.080
REMARK  Name = 
REMARK  5 active torsions:
REMARK  status: ('A' for Active; 'I' for Inactive)
REMARK    1  A    between atoms: C_1  and  N_2
REMARK    2  A    between atoms: C_5  and  C_6
REMARK    3  A    between atoms: C_11  and  C_13
REMARK    4  A    between atoms: C_13  and  C_14
REMARK    5  A    between atoms: C_14  and  C_15
REMARK                            x       y       z     vdW  Elec       q    Type
REMARK                         _______ _______ _______ _____ _____    ______ ____
ROOT
ATOM      1  C   UNL     1      -0.158   9.941  20.592  0.00  0.00    +0.000 C 
ATOM      2  C   UNL     1      -0.091  10.331  22.074  0.00  0.00    +0.000 C 
ATOM      3  C   UNL     1       0.351   9.039  22.742  0.00  0.00    +0.000 C 
ATOM      4  C   UNL     1       1.271   8.389  21.718  0.00  0.00    +0.000 C 
ATOM      5  N   UNL     1       0.999   9.049  20.446  0.00  0.00    +0.000 N 
ATOM      6  C   UNL     1       1.527   8.625  19.232  0.00  0.00    +0.000 C 
ATOM      7  O   UNL     1       1.194   9.084  18.144  0.00  0.00    +0.000 OA
ENDROOT
BRANCH   1  12
ATOM      8  C   UNL     1       2.934  13.866  18.843  0.00  0.00    +0.000 C 
ATOM      9  N   UNL     1       1.545  14.218  18.667  0.00  0.00    +0.000 N 
ATOM     10  C   UNL     1       0.607  13.197  18.753  0.00  0.00    +0.000 A 
ATOM     11  C   UNL     1       0.722  12.138  19.649  0.00  0.00    +0.000 A 
ATOM     12  C   UNL     1      -0.255  11.138  19.680  0.00  0.00    +0.000 A 
ATOM     13  C   UNL     1      -1.356  11.279  18.830  0.00  0.00    +0.000 A 
ATOM     14  C   UNL     1      -1.409  12.377  17.988  0.00  0.00    +0.000 A 
ATOM     15  N   UNL     1      -0.456  13.330  17.935  0.00  0.00    +0.000 NA
ATOM     16  H   UNL     1       1.324  14.721  17.810  0.00  0.00    +0.000 HD
ENDBRANCH   1  12
BRANCH   6  17
ATOM     17  C   UNL     1       2.553   7.500  19.342  0.00  0.00    +0.000 C 
BRANCH  17  18
ATOM     18  C   UNL     1       2.376   6.383  18.316  0.00  0.00    +0.000 C 
BRANCH  18  19
ATOM     19  C   UNL     1       1.941   5.107  19.000  0.00  0.00    +0.000 A 
ATOM     20  C   UNL     1       1.829   5.044  20.397  0.00  0.00    +0.000 A 
ATOM     21  C   UNL     1       1.468   3.849  21.029  0.00  0.00    +0.000 A 
ATOM     22  C   UNL     1       1.219   2.702  20.275  0.00  0.00    +0.000 A 
ATOM     23  C   UNL     1       1.333   2.751  18.887  0.00  0.00    +0.000 A 
ATOM     24  C   UNL     1       1.696   3.944  18.264  0.00  0.00    +0.000 A 
ATOM     25  F   UNL     1       1.823   3.957  16.930  0.00  0.00    +0.000 F 
ENDBRANCH  18  19
ENDBRANCH  17  18
ENDBRANCH   6  17
TORSDOF 4
ENDMDL
MODEL 7
REMARK VINA RESULT:      -7.4      1.149      1.281
REMARK  Name = 
REMARK  5 active torsions:
REMARK  status: ('A' for Active; 'I' for Inactive)
REMARK    1  A    between atoms: C_1  and  N_2
REMARK    2  A    between atoms: C_5  and  C_6
REMARK    3  A    between atoms: C_11  and  C_13
REMARK    4  A    between atoms: C_13  and  C_14
REMARK    5  A    between atoms: C_14  and  C_15
REMARK                            x       y       z     vdW  Elec       q    Type
REMARK                         _______ _______ _______ _____ _____    ______ ____
ROOT
ATOM      1  C   UNL     1       4.205   4.528  18.189  0.00  0.00    +0.000 C 
ATOM      2  C   UNL     1       3.570   3.138  18.053  0.00  0.00    +0.000 C 
ATOM      3  C   UNL     1       2.289   3.272  18.860  0.00  0.00    +0.000 C 
ATOM      4  C   UNL     1       1.864   4.718  18.641  0.00  0.00    +0.000 C 
ATOM      5  N   UNL     1       3.037   5.416  18.129  0.00  0.00    +0.000 N 
ATOM      6  C   UNL     1       3.096   6.795  17.956  0.00  0.00    +0.000 C 
ATOM      7  O   UNL     1       4.120   7.404  17.662  0.00  0.00    +0.000 OA
ENDROOT
BRANCH   1  12
ATOM      8  C   UNL     1       5.224   3.676  13.065  0.00  0.00    +0.000 C 
ATOM      9  N   UNL     1       6.460   3.872  13.787  0.00  0.00    +0.000 N 
ATOM     10  C   UNL     1       6.382   4.432  15.055  0.00  0.00    +0.000 A 
ATOM     11  C   UNL     1       5.347   4.151  15.944  0.00  0.00    +0.000 A 
ATOM     12  C   UNL     1       5.324   4.754  17.205  0.00  0.00    +0.000 A 
ATOM     13  C   UNL     1       6.393   5.589  17.545  0.00  0.00    +0.000 A 
ATOM     14  C   UNL     1       7.396   5.796  16.614  0.00  0.00    +0.000 A 
ATOM     15  N   UNL     1       7.410   5.237  15.387  0.00  0.00    +0.000 NA
ATOM     16  H   UNL     1       7.176   4.403  13.296  0.00  0.00    +0.000 HD
ENDBRANCH   1  12
BRANCH   6  17
ATOM     17  C   UNL     1       1.775   7.523  18.192  0.00  0.00    +0.000 C 
BRANCH  17  18
ATOM     18  C   UNL     1       1.759   8.970  17.707  0.00  0.00    +0.000 C 
BRANCH  18  19
ATOM     19  C   UNL     1       0.806   9.793  18.544  0.00  0.00    +0.000 A 
ATOM     20  C   UNL     1       1.205  10.309  19.786  0.00  0.00    +0.000 A 
ATOM     21  C   UNL     1       0.307  11.033  20.578  0.00  0.00    +0.000 A 
ATOM     22  C   UNL     1      -1.001  11.247  20.142  0.00  0.00    +0.000 A 
ATOM     23  C   UNL     1      -1.411  10.734  18.912  0.00  0.00    +0.000 A 
ATOM     24  C   UNL     1      -0.512  10.012  18.130  0.00  0.00    +0.000 A 
ATOM     25  F   UNL     1      -0.938   9.508  16.964  0.00  0.00    +0.000 F 
ENDBRANCH  18  19
ENDBRANCH  17  18
ENDBRANCH   6  17
TORSDOF 4
ENDMDL
MODEL 8
REMARK VINA RESULT:      -7.4      3.333      7.005
REMARK  Name = 
REMARK  5 active torsions:
REMARK  status: ('A' for Active; 'I' for Inactive)
REMARK    1  A    between atoms: C_1  and  N_2
REMARK    2  A    between atoms: C_5  and  C_6
REMARK    3  A    between atoms: C_11  and  C_13
REMARK    4  A    between atoms: C_13  and  C_14
REMARK    5  A    between atoms: C_14  and  C_15
REMARK                            x       y       z     vdW  Elec       q    Type
REMARK                         _______ _______ _______ _____ _____    ______ ____
ROOT
ATOM      1  C   UNL     1       3.164   6.223  19.189  0.00  0.00    +0.000 C 
ATOM      2  C   UNL     1       2.129   6.873  18.263  0.00  0.00    +0.000 C 
ATOM      3  C   UNL     1       2.933   7.963  17.571  0.00  0.00    +0.000 C 
ATOM      4  C   UNL     1       4.327   7.365  17.440  0.00  0.00    +0.000 C 
ATOM      5  N   UNL     1       4.381   6.242  18.368  0.00  0.00    +0.000 N 
ATOM      6  C   UNL     1       5.545   5.537  18.656  0.00  0.00    +0.000 C 
ATOM      7  O   UNL     1       5.628   4.687  19.537  0.00  0.00    +0.000 OA
ENDROOT
BRANCH   1  12
ATOM      8  C   UNL     1       3.625   1.066  18.088  0.00  0.00    +0.000 C 
ATOM      9  N   UNL     1       2.484   1.286  18.946  0.00  0.00    +0.000 N 
ATOM     10  C   UNL     1       2.400   2.507  19.604  0.00  0.00    +0.000 A 
ATOM     11  C   UNL     1       2.802   3.707  19.025  0.00  0.00    +0.000 A 
ATOM     12  C   UNL     1       2.697   4.901  19.744  0.00  0.00    +0.000 A 
ATOM     13  C   UNL     1       2.130   4.842  21.021  0.00  0.00    +0.000 A 
ATOM     14  C   UNL     1       1.731   3.612  21.514  0.00  0.00    +0.000 A 
ATOM     15  N   UNL     1       1.854   2.454  20.834  0.00  0.00    +0.000 NA
ATOM     16  H   UNL     1       2.329   0.578  19.661  0.00  0.00    +0.000 HD
ENDBRANCH   1  12
BRANCH   6  17
ATOM     17  C   UNL     1       6.750   5.924  17.803  0.00  0.00    +0.000 C 
BRANCH  17  18
ATOM     18  C   UNL     1       7.486   4.740  17.181  0.00  0.00    +0.000 C 
BRANCH  18  19
ATOM     19  C   UNL     1       7.023   4.524  15.757  0.00  0.00    +0.000 A 
ATOM     20  C   UNL     1       7.744   5.060  14.680  0.00  0.00    +0.000 A 
ATOM     21  C   UNL     1       7.290   4.895  13.367  0.00  0.00    +0.000 A 
ATOM     22  C   UNL     1       6.108   4.198  13.115  0.00  0.00    +0.000 A 
ATOM     23  C   UNL     1       5.380   3.666  14.178  0.00  0.00    +0.000 A 
ATOM     24  C   UNL     1       5.838   3.836  15.483  0.00  0.00    +0.000 A 
ATOM     25  F   UNL     1       5.106   3.337  16.489  0.00  0.00    +0.000 F 
ENDBRANCH  18  19
ENDBRANCH  17  18
ENDBRANCH   6  17
TORSDOF 4
ENDMDL
MODEL 9
REMARK VINA RESULT:      -7.4      0.817      1.149
REMARK  Name = 
REMARK  5 active torsions:
REMARK  status: ('A' for Active; 'I' for Inactive)
REMARK    1  A    between atoms: C_1  and  N_2
REMARK    2  A    between atoms: C_5  and  C_6
REMARK    3  A    between atoms: C_11  and  C_13
REMARK    4  A    between atoms: C_13  and  C_14
REMARK    5  A    between atoms: C_14  and  C_15
REMARK                            x       y       z     vdW  Elec       q    Type
REMARK                         _______ _______ _______ _____ _____    ______ ____
ROOT
ATOM      1  C   UNL     1       3.913   3.856  17.992  0.00  0.00    +0.000 C 
ATOM      2  C   UNL     1       3.078   2.639  17.574  0.00  0.00    +0.000 C 
ATOM      3  C   UNL     1       1.757   2.876  18.287  0.00  0.00    +0.000 C 
ATOM      4  C   UNL     1       1.600   4.390  18.281  0.00  0.00    +0.000 C 
ATOM      5  N   UNL     1       2.920   4.937  17.990  0.00  0.00    +0.000 N 
ATOM      6  C   UNL     1       3.222   6.293  18.056  0.00  0.00    +0.000 C 
ATOM      7  O   UNL     1       4.357   6.746  17.952  0.00  0.00    +0.000 OA
ENDROOT
BRANCH   1  12
ATOM      8  C   UNL     1       5.285   3.847  12.879  0.00  0.00    +0.000 C 
ATOM      9  N   UNL     1       6.450   3.620  13.702  0.00  0.00    +0.000 N 
ATOM     10  C   UNL     1       6.350   3.918  15.055  0.00  0.00    +0.000 A 
ATOM     11  C   UNL     1       5.191   3.697  15.795  0.00  0.00    +0.000 A 
ATOM     12  C   UNL     1       5.154   4.025  17.153  0.00  0.00    +0.000 A 
ATOM     13  C   UNL     1       6.326   4.522  17.733  0.00  0.00    +0.000 A 
ATOM     14  C   UNL     1       7.444   4.687  16.935  0.00  0.00    +0.000 A 
ATOM     15  N   UNL     1       7.477   4.397  15.618  0.00  0.00    +0.000 NA
ATOM     16  H   UNL     1       7.306   4.070  13.385  0.00  0.00    +0.000 HD
ENDBRANCH   1  12
BRANCH   6  17
ATOM     17  C   UNL     1       2.020   7.201  18.305  0.00  0.00    +0.000 C 
BRANCH  17  18
ATOM     18  C   UNL     1       1.994   7.846  19.689  0.00  0.00    +0.000 C 
BRANCH  18  19
ATOM     19  C   UNL     1       1.163   9.109  19.663  0.00  0.00    +0.000 A 
ATOM     20  C   UNL     1       0.128   9.305  20.589  0.00  0.00    +0.000 A 
ATOM     21  C   UNL     1      -0.667  10.455  20.535  0.00  0.00    +0.000 A 
ATOM     22  C   UNL     1      -0.441  11.421  19.554  0.00  0.00    +0.000 A 
ATOM     23  C   UNL     1       0.581  11.234  18.625  0.00  0.00    +0.000 A 
ATOM     24  C   UNL     1       1.367  10.085  18.683  0.00  0.00    +0.000 A 
ATOM     25  F   UNL     1       2.326   9.917  17.762  0.00  0.00    +0.000 F 
ENDBRANCH  18  19
ENDBRANCH  17  18
ENDBRANCH   6  17
TORSDOF 4
ENDMDL
