MODEL 1
REMARK VINA RESULT:      -8.5      0.000      0.000
REMARK  Name = 
REMARK  3 active torsions:
REMARK  status: ('A' for Active; 'I' for Inactive)
REMARK    1  A    between atoms: N_14  and  C_15
REMARK    2  A    between atoms: C_15  and  C_16
REMARK    3  A    between atoms: N_18  and  C_19
REMARK                            x       y       z     vdW  Elec       q    Type
REMARK                         _______ _______ _______ _____ _____    ______ ____
ROOT
ATOM      1  C   UNL     1       1.882   7.418  17.879  0.00  0.00    +0.000 C 
ENDROOT
BRANCH   1  15
ATOM      2  O   UNL     1       6.996   4.389  18.502  0.00  0.00    +0.000 OA
ATOM      3  C   UNL     1       5.796   4.468  18.744  0.00  0.00    +0.000 A 
ATOM      4  O   UNL     1       5.125   3.483  19.492  0.00  0.00    +0.000 OA
ATOM      5  C   UNL     1       3.734   3.560  19.795  0.00  0.00    +0.000 A 
ATOM      6  C   UNL     1       3.222   2.506  20.551  0.00  0.00    +0.000 A 
ATOM      7  C   UNL     1       1.873   2.514  20.891  0.00  0.00    +0.000 A 
ATOM      8  C   UNL     1       1.063   3.575  20.484  0.00  0.00    +0.000 A 
ATOM      9  C   UNL     1       1.592   4.635  19.733  0.00  0.00    +0.000 A 
ATOM     10  C   UNL     1       2.934   4.638  19.361  0.00  0.00    +0.000 A 
ATOM     11  C   UNL     1       3.617   5.651  18.567  0.00  0.00    +0.000 A 
ATOM     12  C   UNL     1       4.969   5.557  18.286  0.00  0.00    +0.000 A 
ATOM     13  C   UNL     1       5.284   6.682  17.520  0.00  0.00    +0.000 A 
ATOM     14  N   UNL     1       4.215   7.449  17.302  0.00  0.00    +0.000 NA
ATOM     15  N   UNL     1       3.201   6.808  17.948  0.00  0.00    +0.000 N 
ENDBRANCH   1  15
BRANCH   1  16
ATOM     16  C   UNL     1       1.651   8.297  19.050  0.00  0.00    +0.000 A 
ATOM     17  C   UNL     1       1.127   9.570  19.100  0.00  0.00    +0.000 A 
ATOM     18  N   UNL     1       1.101   9.913  20.432  0.00  0.00    +0.000 N 
ATOM     19  N   UNL     1       1.632   8.887  21.145  0.00  0.00    +0.000 NA
ATOM     20  N   UNL     1       1.951   7.899  20.318  0.00  0.00    +0.000 NA
BRANCH  18  21
ATOM     21  C   UNL     1       0.592  11.087  21.050  0.00  0.00    +0.000 A 
ATOM     22  C   UNL     1       0.987  12.374  20.625  0.00  0.00    +0.000 A 
ATOM     23 CL   UNL     1       1.999  12.705  19.256  0.00  0.00    +0.000 Cl
ATOM     24  C   UNL     1       0.464  13.522  21.239  0.00  0.00    +0.000 A 
ATOM     25  C   UNL     1      -0.464  13.408  22.263  0.00  0.00    +0.000 A 
ATOM     26 CL   UNL     1      -1.117  14.823  22.988  0.00  0.00    +0.000 Cl
ATOM     27  C   UNL     1      -0.868  12.154  22.698  0.00  0.00    +0.000 A 
ATOM     28  C   UNL     1      -0.344  10.996  22.105  0.00  0.00    +0.000 A 
ATOM     29 CL   UNL     1      -0.838   9.516  22.863  0.00  0.00    +0.000 Cl
ENDBRANCH  18  21
ENDBRANCH   1  16
TORSDOF 3
ENDMDL
MODEL 2
REMARK VINA RESULT:      -8.5      0.032      1.720
REMARK  Name = 
REMARK  3 active torsions:
REMARK  status: ('A' for Active; 'I' for Inactive)
REMARK    1  A    between atoms: N_14  and  C_15
REMARK    2  A    between atoms: C_15  and  C_16
REMARK    3  A    between atoms: N_18  and  C_19
REMARK                            x       y       z     vdW  Elec       q    Type
REMARK                         _______ _______ _______ _____ _____    ______ ____
ROOT
ATOM      1  C   UNL     1       1.882   7.430  17.871  0.00  0.00    +0.000 C 
ENDROOT
BRANCH   1  15
ATOM      2  O   UNL     1       6.992   4.397  18.511  0.00  0.00    +0.000 OA
ATOM      3  C   UNL     1       5.792   4.478  18.751  0.00  0.00    +0.000 A 
ATOM      4  O   UNL     1       5.119   3.496  19.502  0.00  0.00    +0.000 OA
ATOM      5  C   UNL     1       3.727   3.576  19.802  0.00  0.00    +0.000 A 
ATOM      6  C   UNL     1       3.213   2.525  20.560  0.00  0.00    +0.000 A 
ATOM      7  C   UNL     1       1.864   2.536  20.898  0.00  0.00    +0.000 A 
ATOM      8  C   UNL     1       1.055   3.596  20.487  0.00  0.00    +0.000 A 
ATOM      9  C   UNL     1       1.586   4.653  19.733  0.00  0.00    +0.000 A 
ATOM     10  C   UNL     1       2.929   4.653  19.364  0.00  0.00    +0.000 A 
ATOM     11  C   UNL     1       3.615   5.663  18.567  0.00  0.00    +0.000 A 
ATOM     12  C   UNL     1       4.966   5.567  18.289  0.00  0.00    +0.000 A 
ATOM     13  C   UNL     1       5.284   6.689  17.519  0.00  0.00    +0.000 A 
ATOM     14  N   UNL     1       4.216   7.457  17.297  0.00  0.00    +0.000 NA
ATOM     15  N   UNL     1       3.201   6.818  17.943  0.00  0.00    +0.000 N 
ENDBRANCH   1  15
BRANCH   1  16
ATOM     16  C   UNL     1       1.648   8.309  19.041  0.00  0.00    +0.000 A 
ATOM     17  C   UNL     1       1.093   9.568  19.094  0.00  0.00    +0.000 A 
ATOM     18  N   UNL     1       1.081   9.917  20.424  0.00  0.00    +0.000 N 
ATOM     19  N   UNL     1       1.649   8.909  21.133  0.00  0.00    +0.000 NA
ATOM     20  N   UNL     1       1.979   7.925  20.306  0.00  0.00    +0.000 NA
BRANCH  18  21
ATOM     21  C   UNL     1       0.553  11.082  21.045  0.00  0.00    +0.000 A 
ATOM     22  C   UNL     1      -0.366  10.994  22.114  0.00  0.00    +0.000 A 
ATOM     23 CL   UNL     1      -0.861   9.522  22.885  0.00  0.00    +0.000 Cl
ATOM     24  C   UNL     1      -0.866  12.155  22.723  0.00  0.00    +0.000 A 
ATOM     25  C   UNL     1      -0.450  13.406  22.295  0.00  0.00    +0.000 A 
ATOM     26 CL   UNL     1      -1.050  14.819  23.069  0.00  0.00    +0.000 Cl
ATOM     27  C   UNL     1       0.453  13.518  21.249  0.00  0.00    +0.000 A 
ATOM     28  C   UNL     1       0.951  12.368  20.618  0.00  0.00    +0.000 A 
ATOM     29 CL   UNL     1       1.950  12.685  19.236  0.00  0.00    +0.000 Cl
ENDBRANCH  18  21
ENDBRANCH   1  16
TORSDOF 3
ENDMDL
MODEL 3
REMARK VINA RESULT:      -8.5      3.445      4.453
REMARK  Name = 
REMARK  3 active torsions:
REMARK  status: ('A' for Active; 'I' for Inactive)
REMARK    1  A    between atoms: N_14  and  C_15
REMARK    2  A    between atoms: C_15  and  C_16
REMARK    3  A    between atoms: N_18  and  C_19
REMARK                            x       y       z     vdW  Elec       q    Type
REMARK                         _______ _______ _______ _____ _____    ______ ____
ROOT
ATOM      1  C   UNL     1       2.256   9.188  18.154  0.00  0.00    +0.000 C 
ENDROOT
BRANCH   1  15
ATOM      2  O   UNL     1       2.162   4.256  21.528  0.00  0.00    +0.000 OA
ATOM      3  C   UNL     1       2.592   4.828  20.532  0.00  0.00    +0.000 A 
ATOM      4  O   UNL     1       3.500   4.207  19.654  0.00  0.00    +0.000 OA
ATOM      5  C   UNL     1       4.002   4.849  18.484  0.00  0.00    +0.000 A 
ATOM      6  C   UNL     1       4.890   4.096  17.718  0.00  0.00    +0.000 A 
ATOM      7  C   UNL     1       5.419   4.653  16.558  0.00  0.00    +0.000 A 
ATOM      8  C   UNL     1       5.045   5.942  16.176  0.00  0.00    +0.000 A 
ATOM      9  C   UNL     1       4.142   6.686  16.950  0.00  0.00    +0.000 A 
ATOM     10  C   UNL     1       3.618   6.158  18.127  0.00  0.00    +0.000 A 
ATOM     11  C   UNL     1       2.694   6.816  19.043  0.00  0.00    +0.000 A 
ATOM     12  C   UNL     1       2.217   6.174  20.172  0.00  0.00    +0.000 A 
ATOM     13  C   UNL     1       1.366   7.084  20.805  0.00  0.00    +0.000 A 
ATOM     14  N   UNL     1       1.301   8.242  20.147  0.00  0.00    +0.000 NA
ATOM     15  N   UNL     1       2.118   8.066  19.071  0.00  0.00    +0.000 N 
ENDBRANCH   1  15
BRANCH   1  16
ATOM     16  C   UNL     1       1.087  10.093  18.256  0.00  0.00    +0.000 A 
ATOM     17  C   UNL     1      -0.229   9.865  17.916  0.00  0.00    +0.000 A 
ATOM     18  N   UNL     1      -0.905  11.018  18.241  0.00  0.00    +0.000 N 
ATOM     19  N   UNL     1      -0.008  11.916  18.722  0.00  0.00    +0.000 NA
ATOM     20  N   UNL     1       1.196  11.358  18.751  0.00  0.00    +0.000 NA
BRANCH  18  21
ATOM     21  C   UNL     1      -2.296  11.299  18.163  0.00  0.00    +0.000 A 
ATOM     22  C   UNL     1      -3.041  11.015  16.998  0.00  0.00    +0.000 A 
ATOM     23 CL   UNL     1      -2.429  10.191  15.600  0.00  0.00    +0.000 Cl
ATOM     24  C   UNL     1      -4.416  11.287  16.944  0.00  0.00    +0.000 A 
ATOM     25  C   UNL     1      -5.068  11.824  18.044  0.00  0.00    +0.000 A 
ATOM     26 CL   UNL     1      -6.758  12.128  17.973  0.00  0.00    +0.000 Cl
ATOM     27  C   UNL     1      -4.358  12.111  19.200  0.00  0.00    +0.000 A 
ATOM     28  C   UNL     1      -2.980  11.859  19.266  0.00  0.00    +0.000 A 
ATOM     29 CL   UNL     1      -2.219  12.411  20.724  0.00  0.00    +0.000 Cl
ENDBRANCH  18  21
ENDBRANCH   1  16
TORSDOF 3
ENDMDL
MODEL 4
REMARK VINA RESULT:      -8.4      3.436      4.552
REMARK  Name = 
REMARK  3 active torsions:
REMARK  status: ('A' for Active; 'I' for Inactive)
REMARK    1  A    between atoms: N_14  and  C_15
REMARK    2  A    between atoms: C_15  and  C_16
REMARK    3  A    between atoms: N_18  and  C_19
REMARK                            x       y       z     vdW  Elec       q    Type
REMARK                         _______ _______ _______ _____ _____    ______ ____
ROOT
ATOM      1  C   UNL     1       2.285   9.168  18.152  0.00  0.00    +0.000 C 
ENDROOT
BRANCH   1  15
ATOM      2  O   UNL     1       2.135   4.237  21.526  0.00  0.00    +0.000 OA
ATOM      3  C   UNL     1       2.567   4.802  20.527  0.00  0.00    +0.000 A 
ATOM      4  O   UNL     1       3.459   4.167  19.644  0.00  0.00    +0.000 OA
ATOM      5  C   UNL     1       3.964   4.801  18.470  0.00  0.00    +0.000 A 
ATOM      6  C   UNL     1       4.834   4.033  17.698  0.00  0.00    +0.000 A 
ATOM      7  C   UNL     1       5.364   4.582  16.535  0.00  0.00    +0.000 A 
ATOM      8  C   UNL     1       5.008   5.877  16.155  0.00  0.00    +0.000 A 
ATOM      9  C   UNL     1       4.123   6.636  16.935  0.00  0.00    +0.000 A 
ATOM     10  C   UNL     1       3.598   6.116  18.116  0.00  0.00    +0.000 A 
ATOM     11  C   UNL     1       2.691   6.788  19.038  0.00  0.00    +0.000 A 
ATOM     12  C   UNL     1       2.211   6.154  20.170  0.00  0.00    +0.000 A 
ATOM     13  C   UNL     1       1.380   7.078  20.808  0.00  0.00    +0.000 A 
ATOM     14  N   UNL     1       1.329   8.237  20.151  0.00  0.00    +0.000 NA
ATOM     15  N   UNL     1       2.135   8.047  19.069  0.00  0.00    +0.000 N 
ENDBRANCH   1  15
BRANCH   1  16
ATOM     16  C   UNL     1       1.116  10.074  18.238  0.00  0.00    +0.000 A 
ATOM     17  C   UNL     1      -0.209   9.824  17.952  0.00  0.00    +0.000 A 
ATOM     18  N   UNL     1      -0.879  10.992  18.232  0.00  0.00    +0.000 N 
ATOM     19  N   UNL     1       0.028  11.917  18.634  0.00  0.00    +0.000 NA
ATOM     20  N   UNL     1       1.235  11.365  18.658  0.00  0.00    +0.000 NA
BRANCH  18  21
ATOM     21  C   UNL     1      -2.274  11.265  18.181  0.00  0.00    +0.000 A 
ATOM     22  C   UNL     1      -2.953  11.836  19.278  0.00  0.00    +0.000 A 
ATOM     23 CL   UNL     1      -2.200  12.393  20.738  0.00  0.00    +0.000 Cl
ATOM     24  C   UNL     1      -4.327  12.111  19.204  0.00  0.00    +0.000 A 
ATOM     25  C   UNL     1      -5.034  11.841  18.043  0.00  0.00    +0.000 A 
ATOM     26 CL   UNL     1      -6.711  12.208  17.956  0.00  0.00    +0.000 Cl
ATOM     27  C   UNL     1      -4.388  11.281  16.950  0.00  0.00    +0.000 A 
ATOM     28  C   UNL     1      -3.018  10.986  17.013  0.00  0.00    +0.000 A 
ATOM     29 CL   UNL     1      -2.400  10.155  15.621  0.00  0.00    +0.000 Cl
ENDBRANCH  18  21
ENDBRANCH   1  16
TORSDOF 3
ENDMDL
MODEL 5
REMARK VINA RESULT:      -8.4      2.680      3.910
REMARK  Name = 
REMARK  3 active torsions:
REMARK  status: ('A' for Active; 'I' for Inactive)
REMARK    1  A    between atoms: N_14  and  C_15
REMARK    2  A    between atoms: C_15  and  C_16
REMARK    3  A    between atoms: N_18  and  C_19
REMARK                            x       y       z     vdW  Elec       q    Type
REMARK                         _______ _______ _______ _____ _____    ______ ____
ROOT
ATOM      1  C   UNL     1       2.563   7.540  20.218  0.00  0.00    +0.000 C 
ENDROOT
BRANCH   1  15
ATOM      2  O   UNL     1       1.450   1.943  18.442  0.00  0.00    +0.000 OA
ATOM      3  C   UNL     1       2.085   2.980  18.281  0.00  0.00    +0.000 A 
ATOM      4  O   UNL     1       3.052   3.106  17.267  0.00  0.00    +0.000 OA
ATOM      5  C   UNL     1       3.793   4.306  17.054  0.00  0.00    +0.000 A 
ATOM      6  C   UNL     1       4.711   4.270  16.004  0.00  0.00    +0.000 A 
ATOM      7  C   UNL     1       5.466   5.405  15.732  0.00  0.00    +0.000 A 
ATOM      8  C   UNL     1       5.288   6.557  16.498  0.00  0.00    +0.000 A 
ATOM      9  C   UNL     1       4.354   6.585  17.545  0.00  0.00    +0.000 A 
ATOM     10  C   UNL     1       3.602   5.454  17.851  0.00  0.00    +0.000 A 
ATOM     11  C   UNL     1       2.617   5.323  18.917  0.00  0.00    +0.000 A 
ATOM     12  C   UNL     1       1.908   4.150  19.106  0.00  0.00    +0.000 A 
ATOM     13  C   UNL     1       1.063   4.378  20.196  0.00  0.00    +0.000 A 
ATOM     14  N   UNL     1       1.218   5.605  20.695  0.00  0.00    +0.000 NA
ATOM     15  N   UNL     1       2.171   6.174  19.904  0.00  0.00    +0.000 N 
ENDBRANCH   1  15
BRANCH   1  16
ATOM     16  C   UNL     1       1.577   8.504  19.674  0.00  0.00    +0.000 A 
ATOM     17  C   UNL     1       0.470   9.059  20.278  0.00  0.00    +0.000 A 
ATOM     18  N   UNL     1      -0.077   9.911  19.347  0.00  0.00    +0.000 N 
ATOM     19  N   UNL     1       0.662   9.831  18.211  0.00  0.00    +0.000 NA
ATOM     20  N   UNL     1       1.675   8.996  18.407  0.00  0.00    +0.000 NA
BRANCH  18  21
ATOM     21  C   UNL     1      -1.189  10.788  19.471  0.00  0.00    +0.000 A 
ATOM     22  C   UNL     1      -2.231  10.796  18.518  0.00  0.00    +0.000 A 
ATOM     23 CL   UNL     1      -2.374   9.693  17.187  0.00  0.00    +0.000 Cl
ATOM     24  C   UNL     1      -3.327  11.660  18.664  0.00  0.00    +0.000 A 
ATOM     25  C   UNL     1      -3.411  12.506  19.759  0.00  0.00    +0.000 A 
ATOM     26 CL   UNL     1      -4.773  13.539  19.941  0.00  0.00    +0.000 Cl
ATOM     27  C   UNL     1      -2.401  12.515  20.710  0.00  0.00    +0.000 A 
ATOM     28  C   UNL     1      -1.291  11.669  20.571  0.00  0.00    +0.000 A 
ATOM     29 CL   UNL     1      -0.052  11.910  21.762  0.00  0.00    +0.000 Cl
ENDBRANCH  18  21
ENDBRANCH   1  16
TORSDOF 3
ENDMDL
MODEL 6
REMARK VINA RESULT:      -8.4      1.512      3.097
REMARK  Name = 
REMARK  3 active torsions:
REMARK  status: ('A' for Active; 'I' for Inactive)
REMARK    1  A    between atoms: N_14  and  C_15
REMARK    2  A    between atoms: C_15  and  C_16
REMARK    3  A    between atoms: N_18  and  C_19
REMARK                            x       y       z     vdW  Elec       q    Type
REMARK                         _______ _______ _______ _____ _____    ______ ____
ROOT
ATOM      1  C   UNL     1       2.584   8.448  18.044  0.00  0.00    +0.000 C 
ENDROOT
BRANCH   1  15
ATOM      2  O   UNL     1       3.396   2.980  20.318  0.00  0.00    +0.000 OA
ATOM      3  C   UNL     1       3.659   3.791  19.436  0.00  0.00    +0.000 A 
ATOM      4  O   UNL     1       4.550   3.485  18.391  0.00  0.00    +0.000 OA
ATOM      5  C   UNL     1       4.862   4.408  17.349  0.00  0.00    +0.000 A 
ATOM      6  C   UNL     1       5.759   3.950  16.386  0.00  0.00    +0.000 A 
ATOM      7  C   UNL     1       6.107   4.791  15.335  0.00  0.00    +0.000 A 
ATOM      8  C   UNL     1       5.548   6.067  15.255  0.00  0.00    +0.000 A 
ATOM      9  C   UNL     1       4.638   6.514  16.225  0.00  0.00    +0.000 A 
ATOM     10  C   UNL     1       4.291   5.697  17.298  0.00  0.00    +0.000 A 
ATOM     11  C   UNL     1       3.384   6.029  18.390  0.00  0.00    +0.000 A 
ATOM     12  C   UNL     1       3.094   5.118  19.389  0.00  0.00    +0.000 A 
ATOM     13  C   UNL     1       2.202   5.760  20.252  0.00  0.00    +0.000 A 
ATOM     14  N   UNL     1       1.938   7.006  19.856  0.00  0.00    +0.000 NA
ATOM     15  N   UNL     1       2.667   7.158  18.715  0.00  0.00    +0.000 N 
ENDBRANCH   1  15
BRANCH   1  16
ATOM     16  C   UNL     1       1.494   9.268  18.624  0.00  0.00    +0.000 A 
ATOM     17  C   UNL     1       1.439   9.922  19.835  0.00  0.00    +0.000 A 
ATOM     18  N   UNL     1       0.221  10.559  19.862  0.00  0.00    +0.000 N 
ATOM     19  N   UNL     1      -0.442  10.257  18.717  0.00  0.00    +0.000 NA
ATOM     20  N   UNL     1       0.328   9.492  17.955  0.00  0.00    +0.000 NA
BRANCH  18  21
ATOM     21  C   UNL     1      -0.319  11.430  20.848  0.00  0.00    +0.000 A 
ATOM     22  C   UNL     1      -0.449  12.816  20.614  0.00  0.00    +0.000 A 
ATOM     23 CL   UNL     1      -0.113  13.610  19.110  0.00  0.00    +0.000 Cl
ATOM     24  C   UNL     1      -0.996  13.658  21.594  0.00  0.00    +0.000 A 
ATOM     25  C   UNL     1      -1.435  13.136  22.801  0.00  0.00    +0.000 A 
ATOM     26 CL   UNL     1      -2.129  14.175  23.982  0.00  0.00    +0.000 Cl
ATOM     27  C   UNL     1      -1.320  11.777  23.053  0.00  0.00    +0.000 A 
ATOM     28  C   UNL     1      -0.761  10.924  22.091  0.00  0.00    +0.000 A 
ATOM     29 CL   UNL     1      -0.553   9.285  22.620  0.00  0.00    +0.000 Cl
ENDBRANCH  18  21
ENDBRANCH   1  16
TORSDOF 3
ENDMDL
MODEL 7
REMARK VINA RESULT:      -8.4      1.500      3.489
REMARK  Name = 
REMARK  3 active torsions:
REMARK  status: ('A' for Active; 'I' for Inactive)
REMARK    1  A    between atoms: N_14  and  C_15
REMARK    2  A    between atoms: C_15  and  C_16
REMARK    3  A    between atoms: N_18  and  C_19
REMARK                            x       y       z     vdW  Elec       q    Type
REMARK                         _______ _______ _______ _____ _____    ______ ____
ROOT
ATOM      1  C   UNL     1       2.586   8.398  17.940  0.00  0.00    +0.000 C 
ENDROOT
BRANCH   1  15
ATOM      2  O   UNL     1       3.483   2.989  20.318  0.00  0.00    +0.000 OA
ATOM      3  C   UNL     1       3.732   3.785  19.419  0.00  0.00    +0.000 A 
ATOM      4  O   UNL     1       4.622   3.471  18.376  0.00  0.00    +0.000 OA
ATOM      5  C   UNL     1       4.917   4.377  17.315  0.00  0.00    +0.000 A 
ATOM      6  C   UNL     1       5.816   3.912  16.357  0.00  0.00    +0.000 A 
ATOM      7  C   UNL     1       6.148   4.737  15.288  0.00  0.00    +0.000 A 
ATOM      8  C   UNL     1       5.571   6.004  15.185  0.00  0.00    +0.000 A 
ATOM      9  C   UNL     1       4.658   6.457  16.150  0.00  0.00    +0.000 A 
ATOM     10  C   UNL     1       4.328   5.657  17.241  0.00  0.00    +0.000 A 
ATOM     11  C   UNL     1       3.421   5.998  18.330  0.00  0.00    +0.000 A 
ATOM     12  C   UNL     1       3.148   5.103  19.349  0.00  0.00    +0.000 A 
ATOM     13  C   UNL     1       2.251   5.750  20.203  0.00  0.00    +0.000 A 
ATOM     14  N   UNL     1       1.968   6.983  19.782  0.00  0.00    +0.000 NA
ATOM     15  N   UNL     1       2.690   7.123  18.635  0.00  0.00    +0.000 N 
ENDBRANCH   1  15
BRANCH   1  16
ATOM     16  C   UNL     1       1.516   9.233  18.537  0.00  0.00    +0.000 A 
ATOM     17  C   UNL     1       1.480   9.868  19.759  0.00  0.00    +0.000 A 
ATOM     18  N   UNL     1       0.276  10.531  19.801  0.00  0.00    +0.000 N 
ATOM     19  N   UNL     1      -0.397  10.263  18.653  0.00  0.00    +0.000 NA
ATOM     20  N   UNL     1       0.353   9.493  17.876  0.00  0.00    +0.000 NA
BRANCH  18  21
ATOM     21  C   UNL     1      -0.241  11.397  20.803  0.00  0.00    +0.000 A 
ATOM     22  C   UNL     1      -0.708  10.899  22.038  0.00  0.00    +0.000 A 
ATOM     23 CL   UNL     1      -0.599   9.246  22.552  0.00  0.00    +0.000 Cl
ATOM     24  C   UNL     1      -1.203  11.771  23.020  0.00  0.00    +0.000 A 
ATOM     25  C   UNL     1      -1.223  13.139  22.796  0.00  0.00    +0.000 A 
ATOM     26 CL   UNL     1      -1.806  14.198  24.018  0.00  0.00    +0.000 Cl
ATOM     27  C   UNL     1      -0.768  13.652  21.591  0.00  0.00    +0.000 A 
ATOM     28  C   UNL     1      -0.285  12.794  20.593  0.00  0.00    +0.000 A 
ATOM     29 CL   UNL     1       0.103  13.581  19.096  0.00  0.00    +0.000 Cl
ENDBRANCH  18  21
ENDBRANCH   1  16
TORSDOF 3
ENDMDL
MODEL 8
REMARK VINA RESULT:      -8.2      2.699      3.941
REMARK  Name = 
REMARK  3 active torsions:
REMARK  status: ('A' for Active; 'I' for Inactive)
REMARK    1  A    between atoms: N_14  and  C_15
REMARK    2  A    between atoms: C_15  and  C_16
REMARK    3  A    between atoms: N_18  and  C_19
REMARK                            x       y       z     vdW  Elec       q    Type
REMARK                         _______ _______ _______ _____ _____    ______ ____
ROOT
ATOM      1  C   UNL     1       2.578   7.711  20.074  0.00  0.00    +0.000 C 
ENDROOT
BRANCH   1  15
ATOM      2  O   UNL     1       1.502   2.033  18.550  0.00  0.00    +0.000 OA
ATOM      3  C   UNL     1       2.128   3.067  18.340  0.00  0.00    +0.000 A 
ATOM      4  O   UNL     1       3.090   3.156  17.318  0.00  0.00    +0.000 OA
ATOM      5  C   UNL     1       3.821   4.351  17.049  0.00  0.00    +0.000 A 
ATOM      6  C   UNL     1       4.734   4.276  15.998  0.00  0.00    +0.000 A 
ATOM      7  C   UNL     1       5.480   5.403  15.673  0.00  0.00    +0.000 A 
ATOM      8  C   UNL     1       5.296   6.586  16.389  0.00  0.00    +0.000 A 
ATOM      9  C   UNL     1       4.366   6.653  17.438  0.00  0.00    +0.000 A 
ATOM     10  C   UNL     1       3.624   5.531  17.796  0.00  0.00    +0.000 A 
ATOM     11  C   UNL     1       2.644   5.440  18.871  0.00  0.00    +0.000 A 
ATOM     12  C   UNL     1       1.945   4.271  19.114  0.00  0.00    +0.000 A 
ATOM     13  C   UNL     1       1.104   4.540  20.197  0.00  0.00    +0.000 A 
ATOM     14  N   UNL     1       1.251   5.789  20.641  0.00  0.00    +0.000 NA
ATOM     15  N   UNL     1       2.196   6.329  19.822  0.00  0.00    +0.000 N 
ENDBRANCH   1  15
BRANCH   1  16
ATOM     16  C   UNL     1       1.539   8.640  19.571  0.00  0.00    +0.000 A 
ATOM     17  C   UNL     1       0.456   9.182  20.229  0.00  0.00    +0.000 A 
ATOM     18  N   UNL     1      -0.166  10.002  19.316  0.00  0.00    +0.000 N 
ATOM     19  N   UNL     1       0.507   9.916  18.140  0.00  0.00    +0.000 NA
ATOM     20  N   UNL     1       1.550   9.109  18.291  0.00  0.00    +0.000 NA
BRANCH  18  21
ATOM     21  C   UNL     1      -1.290  10.855  19.489  0.00  0.00    +0.000 A 
ATOM     22  C   UNL     1      -1.357  11.776  20.556  0.00  0.00    +0.000 A 
ATOM     23 CL   UNL     1      -0.079  12.089  21.686  0.00  0.00    +0.000 Cl
ATOM     24  C   UNL     1      -2.469  12.619  20.704  0.00  0.00    +0.000 A 
ATOM     25  C   UNL     1      -3.510  12.572  19.790  0.00  0.00    +0.000 A 
ATOM     26 CL   UNL     1      -4.854  13.630  19.967  0.00  0.00    +0.000 Cl
ATOM     27  C   UNL     1      -3.466  11.676  18.732  0.00  0.00    +0.000 A 
ATOM     28  C   UNL     1      -2.370  10.815  18.579  0.00  0.00    +0.000 A 
ATOM     29 CL   UNL     1      -2.539   9.659  17.296  0.00  0.00    +0.000 Cl
ENDBRANCH  18  21
ENDBRANCH   1  16
TORSDOF 3
ENDMDL
MODEL 9
REMARK VINA RESULT:      -8.2      4.796      8.746
REMARK  Name = 
REMARK  3 active torsions:
REMARK  status: ('A' for Active; 'I' for Inactive)
REMARK    1  A    between atoms: N_14  and  C_15
REMARK    2  A    between atoms: C_15  and  C_16
REMARK    3  A    between atoms: N_18  and  C_19
REMARK                            x       y       z     vdW  Elec       q    Type
REMARK                         _______ _______ _______ _____ _____    ______ ____
ROOT
ATOM      1  C   UNL     1       1.585  10.324  18.159  0.00  0.00    +0.000 C 
ENDROOT
BRANCH   1  15
ATOM      2  O   UNL     1      -2.298  13.226  21.656  0.00  0.00    +0.000 OA
ATOM      3  C   UNL     1      -2.104  12.554  20.648  0.00  0.00    +0.000 A 
ATOM      4  O   UNL     1      -3.157  12.183  19.792  0.00  0.00    +0.000 OA
ATOM      5  C   UNL     1      -2.954  11.413  18.609  0.00  0.00    +0.000 A 
ATOM      6  C   UNL     1      -4.101  11.134  17.867  0.00  0.00    +0.000 A 
ATOM      7  C   UNL     1      -3.981  10.392  16.697  0.00  0.00    +0.000 A 
ATOM      8  C   UNL     1      -2.724   9.953  16.280  0.00  0.00    +0.000 A 
ATOM      9  C   UNL     1      -1.576  10.250  17.030  0.00  0.00    +0.000 A 
ATOM     10  C   UNL     1      -1.673  10.972  18.216  0.00  0.00    +0.000 A 
ATOM     11  C   UNL     1      -0.580  11.334  19.110  0.00  0.00    +0.000 A 
ATOM     12  C   UNL     1      -0.799  12.083  20.252  0.00  0.00    +0.000 A 
ATOM     13  C   UNL     1       0.450  12.243  20.857  0.00  0.00    +0.000 A 
ATOM     14  N   UNL     1       1.415  11.631  20.169  0.00  0.00    +0.000 NA
ATOM     15  N   UNL     1       0.772  11.078  19.103  0.00  0.00    +0.000 N 
ENDBRANCH   1  15
BRANCH   1  16
ATOM     16  C   UNL     1       1.812   8.945  18.651  0.00  0.00    +0.000 A 
ATOM     17  C   UNL     1       2.161   7.811  17.950  0.00  0.00    +0.000 A 
ATOM     18  N   UNL     1       2.275   6.811  18.888  0.00  0.00    +0.000 N 
ATOM     19  N   UNL     1       1.962   7.330  20.102  0.00  0.00    +0.000 NA
ATOM     20  N   UNL     1       1.699   8.624  19.971  0.00  0.00    +0.000 NA
BRANCH  18  21
ATOM     21  C   UNL     1       2.680   5.459  18.719  0.00  0.00    +0.000 A 
ATOM     22  C   UNL     1       2.065   4.411  19.436  0.00  0.00    +0.000 A 
ATOM     23 CL   UNL     1       0.692   4.588  20.481  0.00  0.00    +0.000 Cl
ATOM     24  C   UNL     1       2.470   3.081  19.246  0.00  0.00    +0.000 A 
ATOM     25  C   UNL     1       3.470   2.776  18.335  0.00  0.00    +0.000 A 
ATOM     26 CL   UNL     1       3.937   1.139  18.093  0.00  0.00    +0.000 Cl
ATOM     27  C   UNL     1       4.088   3.789  17.618  0.00  0.00    +0.000 A 
ATOM     28  C   UNL     1       3.707   5.125  17.807  0.00  0.00    +0.000 A 
ATOM     29 CL   UNL     1       4.678   6.276  16.946  0.00  0.00    +0.000 Cl
ENDBRANCH  18  21
ENDBRANCH   1  16
TORSDOF 3
ENDMDL
