MODEL 1
REMARK VINA RESULT:      -6.9      0.000      0.000
REMARK  Name = 
REMARK  13 active torsions:
REMARK  status: ('A' for Active; 'I' for Inactive)
REMARK    1  A    between atoms: C_1  and  O_2
REMARK    2  A    between atoms: O_2  and  C_3
REMARK    3  A    between atoms: C_3  and  C_4
REMARK    4  A    between atoms: C_8  and  O_9
REMARK    5  A    between atoms: C_10  and  N_11
REMARK    6  A    between atoms: C_12  and  C_13
REMARK    7  A    between atoms: C_15  and  C_16
REMARK    8  A    between atoms: C_16  and  O_17
REMARK    9  A    between atoms: C_16  and  C_18
REMARK   10  A    between atoms: C_18  and  O_19
REMARK   11  A    between atoms: C_18  and  C_20
REMARK   12  A    between atoms: C_20  and  N_21
REMARK   13  A    between atoms: C_22  and  C_24
REMARK                            x       y       z     vdW  Elec       q    Type
REMARK                         _______ _______ _______ _____ _____    ______ ____
ROOT
ATOM      1  C   UNL     1       2.597   3.634  20.527  0.00  0.00    +0.000 C 
ATOM      2  C   UNL     1       3.227   2.397  19.890  0.00  0.00    +0.000 C 
ATOM      3  C   UNL     1       3.723   2.690  18.480  0.00  0.00    +0.000 C 
ATOM      4  C   UNL     1       4.820   3.768  18.609  0.00  0.00    +0.000 C 
ATOM      5  C   UNL     1       4.159   5.054  19.181  0.00  0.00    +0.000 C 
ATOM      6  O   UNL     1       3.456   4.792  20.413  0.00  0.00    +0.000 OA
ENDROOT
BRANCH   4   7
ATOM      7  N   UNL     1       5.639   4.039  17.432  0.00  0.00    +0.000 N 
ATOM      8  C   UNL     1       6.942   4.467  17.508  0.00  0.00    +0.000 C 
ATOM      9  C   UNL     1       7.491   4.921  16.176  0.00  0.00    +0.000 C 
ATOM     10  O   UNL     1       7.582   4.512  18.552  0.00  0.00    +0.000 OA
ATOM     11  H   UNL     1       5.128   4.426  16.639  0.00  0.00    +0.000 HD
ENDBRANCH   4   7
BRANCH   1  12
ATOM     12  C   UNL     1       1.155   3.846  19.862  0.00  0.00    +0.000 C 
ATOM     13  O   UNL     1       0.700   2.896  19.160  0.00  0.00    +0.000 OA
ATOM     14  O   UNL     1       0.493   4.870  20.256  0.00  0.00    +0.000 OA
ENDBRANCH   1  12
BRANCH   1  16
ATOM     15  C   UNL     1       1.457   2.306  22.179  0.00  0.00    +0.000 C 
ATOM     16  O   UNL     1       2.463   3.278  21.926  0.00  0.00    +0.000 OA
ENDBRANCH   1  16
BRANCH   3  17
ATOM     17  O   UNL     1       4.086   1.434  17.909  0.00  0.00    +0.000 OA
ATOM     18  H   UNL     1       5.058   1.329  18.026  0.00  0.00    +0.000 HD
ENDBRANCH   3  17
BRANCH   5  19
ATOM     19  C   UNL     1       3.313   5.958  18.215  0.00  0.00    +0.000 C 
BRANCH  19  20
ATOM     20  O   UNL     1       3.981   6.221  16.974  0.00  0.00    +0.000 OA
ATOM     21  H   UNL     1       4.855   5.758  17.043  0.00  0.00    +0.000 HD
ENDBRANCH  19  20
BRANCH  19  22
ATOM     22  C   UNL     1       2.875   7.332  18.788  0.00  0.00    +0.000 C 
BRANCH  22  23
ATOM     23  O   UNL     1       2.235   7.182  20.062  0.00  0.00    +0.000 OA
ATOM     24  H   UNL     1       1.266   7.235  19.923  0.00  0.00    +0.000 HD
ENDBRANCH  22  23
BRANCH  22  25
ATOM     25  C   UNL     1       1.982   8.097  17.785  0.00  0.00    +0.000 C 
BRANCH  25  26
ATOM     26  N   UNL     1       2.151   9.538  17.893  0.00  0.00    +0.000 N 
ATOM     27  C   UNL     1       1.403  10.331  18.729  0.00  0.00    +0.000 C 
ATOM     28  O   UNL     1       0.541   9.928  19.500  0.00  0.00    +0.000 OA
ATOM     29  H   UNL     1       2.896  10.004  17.377  0.00  0.00    +0.000 HD
BRANCH  27  30
ATOM     30  C   UNL     1       1.775  11.830  18.658  0.00  0.00    +0.000 C 
ATOM     31  N   UNL     1       2.456  12.209  17.532  0.00  0.00    +0.000 N 
ATOM     32  O   UNL     1       1.460  12.598  19.555  0.00  0.00    +0.000 OA
ATOM     33  H   UNL     1       2.678  11.534  16.815  0.00  0.00    +0.000 HD
ATOM     34  H   UNL     1       2.709  13.179  17.410  0.00  0.00    +0.000 HD
ENDBRANCH  27  30
ENDBRANCH  25  26
ENDBRANCH  22  25
ENDBRANCH  19  22
ENDBRANCH   5  19
TORSDOF 11
ENDMDL
MODEL 2
REMARK VINA RESULT:      -6.8      2.557      2.840
REMARK  Name = 
REMARK  13 active torsions:
REMARK  status: ('A' for Active; 'I' for Inactive)
REMARK    1  A    between atoms: C_1  and  O_2
REMARK    2  A    between atoms: O_2  and  C_3
REMARK    3  A    between atoms: C_3  and  C_4
REMARK    4  A    between atoms: C_8  and  O_9
REMARK    5  A    between atoms: C_10  and  N_11
REMARK    6  A    between atoms: C_12  and  C_13
REMARK    7  A    between atoms: C_15  and  C_16
REMARK    8  A    between atoms: C_16  and  O_17
REMARK    9  A    between atoms: C_16  and  C_18
REMARK   10  A    between atoms: C_18  and  O_19
REMARK   11  A    between atoms: C_18  and  C_20
REMARK   12  A    between atoms: C_20  and  N_21
REMARK   13  A    between atoms: C_22  and  C_24
REMARK                            x       y       z     vdW  Elec       q    Type
REMARK                         _______ _______ _______ _____ _____    ______ ____
ROOT
ATOM      1  C   UNL     1       3.258   3.288  19.189  0.00  0.00    +0.000 C 
ATOM      2  C   UNL     1       4.223   2.980  18.045  0.00  0.00    +0.000 C 
ATOM      3  C   UNL     1       4.536   4.229  17.231  0.00  0.00    +0.000 C 
ATOM      4  C   UNL     1       5.233   5.220  18.187  0.00  0.00    +0.000 C 
ATOM      5  C   UNL     1       4.219   5.597  19.305  0.00  0.00    +0.000 C 
ATOM      6  O   UNL     1       3.693   4.427  19.965  0.00  0.00    +0.000 OA
ENDROOT
BRANCH   4   7
ATOM      7  N   UNL     1       5.868   6.393  17.593  0.00  0.00    +0.000 N 
ATOM      8  C   UNL     1       7.150   6.785  17.898  0.00  0.00    +0.000 C 
ATOM      9  C   UNL     1       7.488   8.155  17.361  0.00  0.00    +0.000 C 
ATOM     10  O   UNL     1       7.925   6.112  18.566  0.00  0.00    +0.000 OA
ATOM     11  H   UNL     1       5.237   7.171  17.410  0.00  0.00    +0.000 HD
ENDBRANCH   4   7
BRANCH   1  12
ATOM     12  C   UNL     1       1.796   3.471  18.558  0.00  0.00    +0.000 C 
ATOM     13  O   UNL     1       1.625   3.062  17.373  0.00  0.00    +0.000 OA
ATOM     14  O   UNL     1       0.870   3.830  19.368  0.00  0.00    +0.000 OA
ENDBRANCH   1  12
BRANCH   1  16
ATOM     15  C   UNL     1       4.602   1.806  20.527  0.00  0.00    +0.000 C 
ATOM     16  O   UNL     1       3.308   2.100  20.017  0.00  0.00    +0.000 OA
ENDBRANCH   1  16
BRANCH   3  17
ATOM     17  O   UNL     1       5.257   3.792  16.080  0.00  0.00    +0.000 OA
ATOM     18  H   UNL     1       5.500   2.849  16.228  0.00  0.00    +0.000 HD
ENDBRANCH   3  17
BRANCH   5  19
ATOM     19  C   UNL     1       3.086   6.632  18.975  0.00  0.00    +0.000 C 
BRANCH  19  20
ATOM     20  O   UNL     1       3.556   7.738  18.192  0.00  0.00    +0.000 OA
ATOM     21  H   UNL     1       4.540   7.634  18.155  0.00  0.00    +0.000 HD
ENDBRANCH  19  20
BRANCH  19  22
ATOM     22  C   UNL     1       2.345   7.232  20.199  0.00  0.00    +0.000 C 
BRANCH  22  23
ATOM     23  O   UNL     1       1.593   6.228  20.893  0.00  0.00    +0.000 OA
ATOM     24  H   UNL     1       0.852   6.671  21.359  0.00  0.00    +0.000 HD
ENDBRANCH  22  23
BRANCH  22  25
ATOM     25  C   UNL     1       1.458   8.428  19.784  0.00  0.00    +0.000 C 
BRANCH  25  26
ATOM     26  N   UNL     1       1.054   9.231  20.928  0.00  0.00    +0.000 N 
ATOM     27  C   UNL     1      -0.042   8.948  21.707  0.00  0.00    +0.000 C 
ATOM     28  O   UNL     1      -0.781   7.983  21.562  0.00  0.00    +0.000 OA
ATOM     29  H   UNL     1       1.628  10.017  21.227  0.00  0.00    +0.000 HD
BRANCH  27  30
ATOM     30  C   UNL     1      -0.257   9.955  22.861  0.00  0.00    +0.000 C 
ATOM     31  N   UNL     1      -1.058  11.024  22.560  0.00  0.00    +0.000 N 
ATOM     32  O   UNL     1       0.258   9.776  23.954  0.00  0.00    +0.000 OA
ATOM     33  H   UNL     1      -1.470  11.115  21.643  0.00  0.00    +0.000 HD
ATOM     34  H   UNL     1      -1.260  11.707  23.275  0.00  0.00    +0.000 HD
ENDBRANCH  27  30
ENDBRANCH  25  26
ENDBRANCH  22  25
ENDBRANCH  19  22
ENDBRANCH   5  19
TORSDOF 11
ENDMDL
MODEL 3
REMARK VINA RESULT:      -6.6      1.796      5.599
REMARK  Name = 
REMARK  13 active torsions:
REMARK  status: ('A' for Active; 'I' for Inactive)
REMARK    1  A    between atoms: C_1  and  O_2
REMARK    2  A    between atoms: O_2  and  C_3
REMARK    3  A    between atoms: C_3  and  C_4
REMARK    4  A    between atoms: C_8  and  O_9
REMARK    5  A    between atoms: C_10  and  N_11
REMARK    6  A    between atoms: C_12  and  C_13
REMARK    7  A    between atoms: C_15  and  C_16
REMARK    8  A    between atoms: C_16  and  O_17
REMARK    9  A    between atoms: C_16  and  C_18
REMARK   10  A    between atoms: C_18  and  O_19
REMARK   11  A    between atoms: C_18  and  C_20
REMARK   12  A    between atoms: C_20  and  N_21
REMARK   13  A    between atoms: C_22  and  C_24
REMARK                            x       y       z     vdW  Elec       q    Type
REMARK                         _______ _______ _______ _____ _____    ______ ____
ROOT
ATOM      1  C   UNL     1       1.721   3.910  19.689  0.00  0.00    +0.000 C 
ATOM      2  C   UNL     1       1.317   5.071  20.595  0.00  0.00    +0.000 C 
ATOM      3  C   UNL     1       2.150   6.314  20.310  0.00  0.00    +0.000 C 
ATOM      4  C   UNL     1       1.853   6.724  18.852  0.00  0.00    +0.000 C 
ATOM      5  C   UNL     1       2.341   5.574  17.925  0.00  0.00    +0.000 C 
ATOM      6  O   UNL     1       1.766   4.305  18.299  0.00  0.00    +0.000 OA
ENDROOT
BRANCH   4   7
ATOM      7  N   UNL     1       2.326   8.033  18.412  0.00  0.00    +0.000 N 
ATOM      8  C   UNL     1       1.645   9.199  18.665  0.00  0.00    +0.000 C 
ATOM      9  C   UNL     1       2.192  10.378  17.896  0.00  0.00    +0.000 C 
ATOM     10  O   UNL     1       0.671   9.270  19.406  0.00  0.00    +0.000 OA
ATOM     11  H   UNL     1       2.810   8.030  17.516  0.00  0.00    +0.000 HD
ENDBRANCH   4   7
BRANCH   1  12
ATOM     12  C   UNL     1       3.113   3.329  20.229  0.00  0.00    +0.000 C 
ATOM     13  O   UNL     1       3.244   3.221  21.483  0.00  0.00    +0.000 OA
ATOM     14  O   UNL     1       3.901   2.833  19.348  0.00  0.00    +0.000 OA
ENDBRANCH   1  12
BRANCH   1  16
ATOM     15  C   UNL     1       0.520   2.027  18.790  0.00  0.00    +0.000 C 
ATOM     16  O   UNL     1       0.661   2.938  19.872  0.00  0.00    +0.000 OA
ENDBRANCH   1  16
BRANCH   3  17
ATOM     17  O   UNL     1       1.847   7.251  21.342  0.00  0.00    +0.000 OA
ATOM     18  H   UNL     1       1.397   6.754  22.064  0.00  0.00    +0.000 HD
ENDBRANCH   3  17
BRANCH   5  19
ATOM     19  C   UNL     1       3.878   5.447  17.630  0.00  0.00    +0.000 C 
BRANCH  19  20
ATOM     20  O   UNL     1       4.484   6.703  17.292  0.00  0.00    +0.000 OA
ATOM     21  H   UNL     1       5.209   6.831  17.955  0.00  0.00    +0.000 HD
ENDBRANCH  19  20
BRANCH  19  22
ATOM     22  C   UNL     1       4.269   4.446  16.510  0.00  0.00    +0.000 C 
BRANCH  22  23
ATOM     23  O   UNL     1       3.545   3.216  16.640  0.00  0.00    +0.000 OA
ATOM     24  H   UNL     1       3.636   2.720  15.798  0.00  0.00    +0.000 HD
ENDBRANCH  22  23
BRANCH  22  25
ATOM     25  C   UNL     1       5.796   4.212  16.478  0.00  0.00    +0.000 C 
BRANCH  25  26
ATOM     26  N   UNL     1       6.454   4.740  17.663  0.00  0.00    +0.000 N 
ATOM     27  C   UNL     1       7.318   5.808  17.642  0.00  0.00    +0.000 C 
ATOM     28  O   UNL     1       7.610   6.460  16.647  0.00  0.00    +0.000 OA
ATOM     29  H   UNL     1       6.237   4.356  18.581  0.00  0.00    +0.000 HD
BRANCH  27  30
ATOM     30  C   UNL     1       7.886   6.173  19.032  0.00  0.00    +0.000 C 
ATOM     31  N   UNL     1       8.555   7.366  19.095  0.00  0.00    +0.000 N 
ATOM     32  O   UNL     1       7.724   5.431  19.990  0.00  0.00    +0.000 OA
ATOM     33  H   UNL     1       8.647   7.946  18.274  0.00  0.00    +0.000 HD
ATOM     34  H   UNL     1       8.931   7.676  19.979  0.00  0.00    +0.000 HD
ENDBRANCH  27  30
ENDBRANCH  25  26
ENDBRANCH  22  25
ENDBRANCH  19  22
ENDBRANCH   5  19
TORSDOF 11
ENDMDL
MODEL 4
REMARK VINA RESULT:      -6.5      2.357      5.920
REMARK  Name = 
REMARK  13 active torsions:
REMARK  status: ('A' for Active; 'I' for Inactive)
REMARK    1  A    between atoms: C_1  and  O_2
REMARK    2  A    between atoms: O_2  and  C_3
REMARK    3  A    between atoms: C_3  and  C_4
REMARK    4  A    between atoms: C_8  and  O_9
REMARK    5  A    between atoms: C_10  and  N_11
REMARK    6  A    between atoms: C_12  and  C_13
REMARK    7  A    between atoms: C_15  and  C_16
REMARK    8  A    between atoms: C_16  and  O_17
REMARK    9  A    between atoms: C_16  and  C_18
REMARK   10  A    between atoms: C_18  and  O_19
REMARK   11  A    between atoms: C_18  and  C_20
REMARK   12  A    between atoms: C_20  and  N_21
REMARK   13  A    between atoms: C_22  and  C_24
REMARK                            x       y       z     vdW  Elec       q    Type
REMARK                         _______ _______ _______ _____ _____    ______ ____
ROOT
ATOM      1  C   UNL     1       2.661   2.786  19.613  0.00  0.00    +0.000 C 
ATOM      2  C   UNL     1       1.758   3.915  20.102  0.00  0.00    +0.000 C 
ATOM      3  C   UNL     1       2.497   5.247  20.127  0.00  0.00    +0.000 C 
ATOM      4  C   UNL     1       2.902   5.559  18.671  0.00  0.00    +0.000 C 
ATOM      5  C   UNL     1       3.888   4.452  18.203  0.00  0.00    +0.000 C 
ATOM      6  O   UNL     1       3.333   3.132  18.380  0.00  0.00    +0.000 OA
ENDROOT
BRANCH   4   7
ATOM      7  N   UNL     1       3.396   6.902  18.384  0.00  0.00    +0.000 N 
ATOM      8  C   UNL     1       2.565   7.971  18.145  0.00  0.00    +0.000 C 
ATOM      9  C   UNL     1       3.301   9.182  17.624  0.00  0.00    +0.000 C 
ATOM     10  O   UNL     1       1.350   7.935  18.301  0.00  0.00    +0.000 OA
ATOM     11  H   UNL     1       4.261   6.931  17.847  0.00  0.00    +0.000 HD
ENDBRANCH   4   7
BRANCH   1  12
ATOM     12  C   UNL     1       3.669   2.417  20.802  0.00  0.00    +0.000 C 
ATOM     13  O   UNL     1       3.194   2.399  21.975  0.00  0.00    +0.000 OA
ATOM     14  O   UNL     1       4.820   1.973  20.454  0.00  0.00    +0.000 OA
ENDBRANCH   1  12
BRANCH   1  16
ATOM     15  C   UNL     1       0.544   2.078  18.714  0.00  0.00    +0.000 C 
ATOM     16  O   UNL     1       1.747   1.689  19.364  0.00  0.00    +0.000 OA
ENDBRANCH   1  16
BRANCH   3  17
ATOM     17  O   UNL     1       1.642   6.173  20.796  0.00  0.00    +0.000 OA
ATOM     18  H   UNL     1       0.817   6.247  20.262  0.00  0.00    +0.000 HD
ENDBRANCH   3  17
BRANCH   5  19
ATOM     19  C   UNL     1       5.380   4.520  18.686  0.00  0.00    +0.000 C 
BRANCH  19  20
ATOM     20  O   UNL     1       5.644   5.661  19.515  0.00  0.00    +0.000 OA
ATOM     21  H   UNL     1       4.784   5.862  19.965  0.00  0.00    +0.000 HD
ENDBRANCH  19  20
BRANCH  19  22
ATOM     22  C   UNL     1       6.452   4.524  17.564  0.00  0.00    +0.000 C 
BRANCH  22  23
ATOM     23  O   UNL     1       7.749   4.204  18.085  0.00  0.00    +0.000 OA
ATOM     24  H   UNL     1       7.628   3.614  18.858  0.00  0.00    +0.000 HD
ENDBRANCH  22  23
BRANCH  22  25
ATOM     25  C   UNL     1       6.456   5.867  16.800  0.00  0.00    +0.000 C 
BRANCH  25  26
ATOM     26  N   UNL     1       7.154   5.769  15.528  0.00  0.00    +0.000 N 
ATOM     27  C   UNL     1       6.701   5.025  14.465  0.00  0.00    +0.000 C 
ATOM     28  O   UNL     1       5.653   4.391  14.444  0.00  0.00    +0.000 OA
ATOM     29  H   UNL     1       7.997   6.318  15.365  0.00  0.00    +0.000 HD
BRANCH  27  30
ATOM     30  C   UNL     1       7.625   5.084  13.228  0.00  0.00    +0.000 C 
ATOM     31  N   UNL     1       7.236   4.306  12.171  0.00  0.00    +0.000 N 
ATOM     32  O   UNL     1       8.621   5.793  13.222  0.00  0.00    +0.000 OA
ATOM     33  H   UNL     1       6.395   3.750  12.225  0.00  0.00    +0.000 HD
ATOM     34  H   UNL     1       7.782   4.316  11.322  0.00  0.00    +0.000 HD
ENDBRANCH  27  30
ENDBRANCH  25  26
ENDBRANCH  22  25
ENDBRANCH  19  22
ENDBRANCH   5  19
TORSDOF 11
ENDMDL
MODEL 5
REMARK VINA RESULT:      -6.5      2.536      6.239
REMARK  Name = 
REMARK  13 active torsions:
REMARK  status: ('A' for Active; 'I' for Inactive)
REMARK    1  A    between atoms: C_1  and  O_2
REMARK    2  A    between atoms: O_2  and  C_3
REMARK    3  A    between atoms: C_3  and  C_4
REMARK    4  A    between atoms: C_8  and  O_9
REMARK    5  A    between atoms: C_10  and  N_11
REMARK    6  A    between atoms: C_12  and  C_13
REMARK    7  A    between atoms: C_15  and  C_16
REMARK    8  A    between atoms: C_16  and  O_17
REMARK    9  A    between atoms: C_16  and  C_18
REMARK   10  A    between atoms: C_18  and  O_19
REMARK   11  A    between atoms: C_18  and  C_20
REMARK   12  A    between atoms: C_20  and  N_21
REMARK   13  A    between atoms: C_22  and  C_24
REMARK                            x       y       z     vdW  Elec       q    Type
REMARK                         _______ _______ _______ _____ _____    ______ ____
ROOT
ATOM      1  C   UNL     1       2.586   3.293  19.231  0.00  0.00    +0.000 C 
ATOM      2  C   UNL     1       1.844   4.308  20.098  0.00  0.00    +0.000 C 
ATOM      3  C   UNL     1       2.500   5.681  20.029  0.00  0.00    +0.000 C 
ATOM      4  C   UNL     1       2.403   6.148  18.561  0.00  0.00    +0.000 C 
ATOM      5  C   UNL     1       3.229   5.158  17.691  0.00  0.00    +0.000 C 
ATOM      6  O   UNL     1       2.812   3.792  17.894  0.00  0.00    +0.000 OA
ENDROOT
BRANCH   4   7
ATOM      7  N   UNL     1       2.726   7.543  18.276  0.00  0.00    +0.000 N 
ATOM      8  C   UNL     1       1.884   8.584  18.585  0.00  0.00    +0.000 C 
ATOM      9  C   UNL     1       2.317   9.893  17.968  0.00  0.00    +0.000 C 
ATOM     10  O   UNL     1       0.868   8.460  19.259  0.00  0.00    +0.000 OA
ATOM     11  H   UNL     1       3.258   7.690  17.420  0.00  0.00    +0.000 HD
ENDBRANCH   4   7
BRANCH   1  12
ATOM     12  C   UNL     1       3.937   2.893  19.996  0.00  0.00    +0.000 C 
ATOM     13  O   UNL     1       3.859   2.716  21.246  0.00  0.00    +0.000 OA
ATOM     14  O   UNL     1       4.938   2.587  19.257  0.00  0.00    +0.000 OA
ENDBRANCH   1  12
BRANCH   1  16
ATOM     15  C   UNL     1       0.331   2.514  18.915  0.00  0.00    +0.000 C 
ATOM     16  O   UNL     1       1.684   2.160  19.170  0.00  0.00    +0.000 OA
ENDBRANCH   1  16
BRANCH   3  17
ATOM     17  O   UNL     1       1.869   6.482  21.027  0.00  0.00    +0.000 OA
ATOM     18  H   UNL     1       0.925   6.205  21.070  0.00  0.00    +0.000 HD
ENDBRANCH   3  17
BRANCH   5  19
ATOM     19  C   UNL     1       4.794   5.290  17.683  0.00  0.00    +0.000 C 
BRANCH  19  20
ATOM     20  O   UNL     1       5.236   6.652  17.607  0.00  0.00    +0.000 OA
ATOM     21  H   UNL     1       6.115   6.668  18.065  0.00  0.00    +0.000 HD
ENDBRANCH  19  20
BRANCH  19  22
ATOM     22  C   UNL     1       5.529   4.516  16.556  0.00  0.00    +0.000 C 
BRANCH  22  23
ATOM     23  O   UNL     1       5.258   3.111  16.630  0.00  0.00    +0.000 OA
ATOM     24  H   UNL     1       4.504   2.979  17.243  0.00  0.00    +0.000 HD
ENDBRANCH  22  23
BRANCH  22  25
ATOM     25  C   UNL     1       7.046   4.810  16.575  0.00  0.00    +0.000 C 
BRANCH  25  26
ATOM     26  N   UNL     1       7.542   5.202  15.265  0.00  0.00    +0.000 N 
ATOM     27  C   UNL     1       7.171   4.585  14.094  0.00  0.00    +0.000 C 
ATOM     28  O   UNL     1       6.363   3.669  14.005  0.00  0.00    +0.000 OA
ATOM     29  H   UNL     1       8.154   6.011  15.172  0.00  0.00    +0.000 HD
BRANCH  27  30
ATOM     30  C   UNL     1       7.840   5.187  12.837  0.00  0.00    +0.000 C 
ATOM     31  N   UNL     1       8.855   6.072  13.084  0.00  0.00    +0.000 N 
ATOM     32  O   UNL     1       7.471   4.867  11.717  0.00  0.00    +0.000 OA
ATOM     33  H   UNL     1       9.128   6.289  14.032  0.00  0.00    +0.000 HD
ATOM     34  H   UNL     1       9.351   6.484  12.308  0.00  0.00    +0.000 HD
ENDBRANCH  27  30
ENDBRANCH  25  26
ENDBRANCH  22  25
ENDBRANCH  19  22
ENDBRANCH   5  19
TORSDOF 11
ENDMDL
MODEL 6
REMARK VINA RESULT:      -6.5      2.056      4.702
REMARK  Name = 
REMARK  13 active torsions:
REMARK  status: ('A' for Active; 'I' for Inactive)
REMARK    1  A    between atoms: C_1  and  O_2
REMARK    2  A    between atoms: O_2  and  C_3
REMARK    3  A    between atoms: C_3  and  C_4
REMARK    4  A    between atoms: C_8  and  O_9
REMARK    5  A    between atoms: C_10  and  N_11
REMARK    6  A    between atoms: C_12  and  C_13
REMARK    7  A    between atoms: C_15  and  C_16
REMARK    8  A    between atoms: C_16  and  O_17
REMARK    9  A    between atoms: C_16  and  C_18
REMARK   10  A    between atoms: C_18  and  O_19
REMARK   11  A    between atoms: C_18  and  C_20
REMARK   12  A    between atoms: C_20  and  N_21
REMARK   13  A    between atoms: C_22  and  C_24
REMARK                            x       y       z     vdW  Elec       q    Type
REMARK                         _______ _______ _______ _____ _____    ______ ____
ROOT
ATOM      1  C   UNL     1       6.112   5.733  16.721  0.00  0.00    +0.000 C 
ATOM      2  C   UNL     1       6.176   4.350  17.366  0.00  0.00    +0.000 C 
ATOM      3  C   UNL     1       5.210   4.238  18.538  0.00  0.00    +0.000 C 
ATOM      4  C   UNL     1       3.790   4.430  17.965  0.00  0.00    +0.000 C 
ATOM      5  C   UNL     1       3.701   5.869  17.382  0.00  0.00    +0.000 C 
ATOM      6  O   UNL     1       4.751   6.125  16.427  0.00  0.00    +0.000 OA
ENDROOT
BRANCH   4   7
ATOM      7  N   UNL     1       2.664   4.112  18.837  0.00  0.00    +0.000 N 
ATOM      8  C   UNL     1       2.149   2.844  18.963  0.00  0.00    +0.000 C 
ATOM      9  C   UNL     1       0.840   2.813  19.716  0.00  0.00    +0.000 C 
ATOM     10  O   UNL     1       2.675   1.846  18.483  0.00  0.00    +0.000 OA
ATOM     11  H   UNL     1       1.961   4.846  18.909  0.00  0.00    +0.000 HD
ENDBRANCH   4   7
BRANCH   1  12
ATOM     12  C   UNL     1       6.873   6.758  17.688  0.00  0.00    +0.000 C 
ATOM     13  O   UNL     1       7.532   6.263  18.648  0.00  0.00    +0.000 OA
ATOM     14  O   UNL     1       6.921   7.978  17.297  0.00  0.00    +0.000 OA
ENDBRANCH   1  12
BRANCH   1  16
ATOM     15  C   UNL     1       6.448   4.433  14.723  0.00  0.00    +0.000 C 
ATOM     16  O   UNL     1       6.839   5.573  15.477  0.00  0.00    +0.000 OA
ENDBRANCH   1  16
BRANCH   3  17
ATOM     17  O   UNL     1       5.506   3.004  19.191  0.00  0.00    +0.000 OA
ATOM     18  H   UNL     1       5.524   2.304  18.498  0.00  0.00    +0.000 HD
ENDBRANCH   3  17
BRANCH   5  19
ATOM     19  C   UNL     1       3.518   7.072  18.375  0.00  0.00    +0.000 C 
BRANCH  19  20
ATOM     20  O   UNL     1       3.474   6.657  19.747  0.00  0.00    +0.000 OA
ATOM     21  H   UNL     1       2.589   6.951  20.082  0.00  0.00    +0.000 HD
ENDBRANCH  19  20
BRANCH  19  22
ATOM     22  C   UNL     1       2.267   7.958  18.135  0.00  0.00    +0.000 C 
BRANCH  22  23
ATOM     23  O   UNL     1       2.528   8.969  17.152  0.00  0.00    +0.000 OA
ATOM     24  H   UNL     1       2.089   9.796  17.444  0.00  0.00    +0.000 HD
ENDBRANCH  22  23
BRANCH  22  25
ATOM     25  C   UNL     1       1.750   8.565  19.459  0.00  0.00    +0.000 C 
BRANCH  25  26
ATOM     26  N   UNL     1       0.559   9.376  19.260  0.00  0.00    +0.000 N 
ATOM     27  C   UNL     1       0.591  10.728  19.014  0.00  0.00    +0.000 C 
ATOM     28  O   UNL     1       1.608  11.400  18.898  0.00  0.00    +0.000 OA
ATOM     29  H   UNL     1      -0.359   8.937  19.237  0.00  0.00    +0.000 HD
BRANCH  27  30
ATOM     30  C   UNL     1      -0.809  11.359  18.840  0.00  0.00    +0.000 C 
ATOM     31  N   UNL     1      -1.171  11.631  17.548  0.00  0.00    +0.000 N 
ATOM     32  O   UNL     1      -1.523  11.579  19.808  0.00  0.00    +0.000 OA
ATOM     33  H   UNL     1      -0.546  11.416  16.784  0.00  0.00    +0.000 HD
ATOM     34  H   UNL     1      -2.083  12.022  17.361  0.00  0.00    +0.000 HD
ENDBRANCH  27  30
ENDBRANCH  25  26
ENDBRANCH  22  25
ENDBRANCH  19  22
ENDBRANCH   5  19
TORSDOF 11
ENDMDL
MODEL 7
REMARK VINA RESULT:      -6.5      1.940      2.034
REMARK  Name = 
REMARK  13 active torsions:
REMARK  status: ('A' for Active; 'I' for Inactive)
REMARK    1  A    between atoms: C_1  and  O_2
REMARK    2  A    between atoms: O_2  and  C_3
REMARK    3  A    between atoms: C_3  and  C_4
REMARK    4  A    between atoms: C_8  and  O_9
REMARK    5  A    between atoms: C_10  and  N_11
REMARK    6  A    between atoms: C_12  and  C_13
REMARK    7  A    between atoms: C_15  and  C_16
REMARK    8  A    between atoms: C_16  and  O_17
REMARK    9  A    between atoms: C_16  and  C_18
REMARK   10  A    between atoms: C_18  and  O_19
REMARK   11  A    between atoms: C_18  and  C_20
REMARK   12  A    between atoms: C_20  and  N_21
REMARK   13  A    between atoms: C_22  and  C_24
REMARK                            x       y       z     vdW  Elec       q    Type
REMARK                         _______ _______ _______ _____ _____    ______ ____
ROOT
ATOM      1  C   UNL     1       2.661   3.223  19.411  0.00  0.00    +0.000 C 
ATOM      2  C   UNL     1       3.844   2.740  18.576  0.00  0.00    +0.000 C 
ATOM      3  C   UNL     1       4.451   3.876  17.762  0.00  0.00    +0.000 C 
ATOM      4  C   UNL     1       4.975   4.917  18.772  0.00  0.00    +0.000 C 
ATOM      5  C   UNL     1       3.756   5.468  19.565  0.00  0.00    +0.000 C 
ATOM      6  O   UNL     1       2.989   4.408  20.171  0.00  0.00    +0.000 OA
ENDROOT
BRANCH   4   7
ATOM      7  N   UNL     1       5.833   5.981  18.258  0.00  0.00    +0.000 N 
ATOM      8  C   UNL     1       7.200   5.870  18.183  0.00  0.00    +0.000 C 
ATOM      9  C   UNL     1       7.879   7.180  17.862  0.00  0.00    +0.000 C 
ATOM     10  O   UNL     1       7.810   4.827  18.391  0.00  0.00    +0.000 OA
ATOM     11  H   UNL     1       5.511   6.924  18.468  0.00  0.00    +0.000 HD
ENDBRANCH   4   7
BRANCH   1  12
ATOM     12  C   UNL     1       1.417   3.428  18.422  0.00  0.00    +0.000 C 
ATOM     13  O   UNL     1       1.675   3.806  17.243  0.00  0.00    +0.000 OA
ATOM     14  O   UNL     1       0.283   2.999  18.840  0.00  0.00    +0.000 OA
ENDBRANCH   1  12
BRANCH   1  16
ATOM     15  C   UNL     1       2.173   2.537  21.666  0.00  0.00    +0.000 C 
ATOM     16  O   UNL     1       2.407   2.127  20.325  0.00  0.00    +0.000 OA
ENDBRANCH   1  16
BRANCH   3  17
ATOM     17  O   UNL     1       5.390   3.278  16.869  0.00  0.00    +0.000 OA
ATOM     18  H   UNL     1       6.080   2.841  17.421  0.00  0.00    +0.000 HD
ENDBRANCH   3  17
BRANCH   5  19
ATOM     19  C   UNL     1       2.829   6.531  18.874  0.00  0.00    +0.000 C 
BRANCH  19  20
ATOM     20  O   UNL     1       3.476   7.213  17.792  0.00  0.00    +0.000 OA
ATOM     21  H   UNL     1       3.694   6.508  17.130  0.00  0.00    +0.000 HD
ENDBRANCH  19  20
BRANCH  19  22
ATOM     22  C   UNL     1       2.246   7.624  19.809  0.00  0.00    +0.000 C 
BRANCH  22  23
ATOM     23  O   UNL     1       1.547   7.042  20.916  0.00  0.00    +0.000 OA
ATOM     24  H   UNL     1       1.945   7.389  21.743  0.00  0.00    +0.000 HD
ENDBRANCH  22  23
BRANCH  22  25
ATOM     25  C   UNL     1       1.354   8.612  19.023  0.00  0.00    +0.000 C 
BRANCH  25  26
ATOM     26  N   UNL     1       1.205   9.883  19.716  0.00  0.00    +0.000 N 
ATOM     27  C   UNL     1       0.284  10.102  20.713  0.00  0.00    +0.000 C 
ATOM     28  O   UNL     1      -0.486   9.262  21.159  0.00  0.00    +0.000 OA
ATOM     29  H   UNL     1       1.842  10.651  19.515  0.00  0.00    +0.000 HD
BRANCH  27  30
ATOM     30  C   UNL     1       0.325  11.536  21.288  0.00  0.00    +0.000 C 
ATOM     31  N   UNL     1      -0.785  11.913  21.996  0.00  0.00    +0.000 N 
ATOM     32  O   UNL     1       1.298  12.255  21.113  0.00  0.00    +0.000 OA
ATOM     33  H   UNL     1      -1.555  11.272  22.122  0.00  0.00    +0.000 HD
ATOM     34  H   UNL     1      -0.814  12.829  22.420  0.00  0.00    +0.000 HD
ENDBRANCH  27  30
ENDBRANCH  25  26
ENDBRANCH  22  25
ENDBRANCH  19  22
ENDBRANCH   5  19
TORSDOF 11
ENDMDL
MODEL 8
REMARK VINA RESULT:      -6.5      1.627      1.979
REMARK  Name = 
REMARK  13 active torsions:
REMARK  status: ('A' for Active; 'I' for Inactive)
REMARK    1  A    between atoms: C_1  and  O_2
REMARK    2  A    between atoms: O_2  and  C_3
REMARK    3  A    between atoms: C_3  and  C_4
REMARK    4  A    between atoms: C_8  and  O_9
REMARK    5  A    between atoms: C_10  and  N_11
REMARK    6  A    between atoms: C_12  and  C_13
REMARK    7  A    between atoms: C_15  and  C_16
REMARK    8  A    between atoms: C_16  and  O_17
REMARK    9  A    between atoms: C_16  and  C_18
REMARK   10  A    between atoms: C_18  and  O_19
REMARK   11  A    between atoms: C_18  and  C_20
REMARK   12  A    between atoms: C_20  and  N_21
REMARK   13  A    between atoms: C_22  and  C_24
REMARK                            x       y       z     vdW  Elec       q    Type
REMARK                         _______ _______ _______ _____ _____    ______ ____
ROOT
ATOM      1  C   UNL     1       3.342   3.323  18.871  0.00  0.00    +0.000 C 
ATOM      2  C   UNL     1       4.512   2.942  17.967  0.00  0.00    +0.000 C 
ATOM      3  C   UNL     1       4.989   4.132  17.144  0.00  0.00    +0.000 C 
ATOM      4  C   UNL     1       5.489   5.194  18.145  0.00  0.00    +0.000 C 
ATOM      5  C   UNL     1       4.276   5.642  19.010  0.00  0.00    +0.000 C 
ATOM      6  O   UNL     1       3.623   4.518  19.636  0.00  0.00    +0.000 OA
ENDROOT
BRANCH   4   7
ATOM      7  N   UNL     1       6.237   6.326  17.607  0.00  0.00    +0.000 N 
ATOM      8  C   UNL     1       7.425   6.761  18.142  0.00  0.00    +0.000 C 
ATOM      9  C   UNL     1       7.872   8.090  17.580  0.00  0.00    +0.000 C 
ATOM     10  O   UNL     1       8.041   6.155  19.011  0.00  0.00    +0.000 OA
ATOM     11  H   UNL     1       5.659   7.078  17.233  0.00  0.00    +0.000 HD
ENDBRANCH   4   7
BRANCH   1  12
ATOM     12  C   UNL     1       2.036   3.450  17.953  0.00  0.00    +0.000 C 
ATOM     13  O   UNL     1       1.026   4.017  18.463  0.00  0.00    +0.000 OA
ATOM     14  O   UNL     1       2.181   3.151  16.715  0.00  0.00    +0.000 OA
ENDBRANCH   1  12
BRANCH   1  16
ATOM     15  C   UNL     1       4.352   2.003  20.612  0.00  0.00    +0.000 C 
ATOM     16  O   UNL     1       3.219   2.198  19.776  0.00  0.00    +0.000 OA
ENDBRANCH   1  16
BRANCH   3  17
ATOM     17  O   UNL     1       5.921   3.620  16.192  0.00  0.00    +0.000 OA
ATOM     18  H   UNL     1       5.555   2.769  15.855  0.00  0.00    +0.000 HD
ENDBRANCH   3  17
BRANCH   5  19
ATOM     19  C   UNL     1       3.238   6.642  18.389  0.00  0.00    +0.000 C 
BRANCH  19  20
ATOM     20  O   UNL     1       3.826   7.523  17.422  0.00  0.00    +0.000 OA
ATOM     21  H   UNL     1       4.803   7.467  17.576  0.00  0.00    +0.000 HD
ENDBRANCH  19  20
BRANCH  19  22
ATOM     22  C   UNL     1       2.474   7.535  19.403  0.00  0.00    +0.000 C 
BRANCH  22  23
ATOM     23  O   UNL     1       1.872   6.747  20.438  0.00  0.00    +0.000 OA
ATOM     24  H   UNL     1       2.539   6.614  21.145  0.00  0.00    +0.000 HD
ENDBRANCH  22  23
BRANCH  22  25
ATOM     25  C   UNL     1       1.438   8.431  18.688  0.00  0.00    +0.000 C 
BRANCH  25  26
ATOM     26  N   UNL     1       1.926   9.790  18.503  0.00  0.00    +0.000 N 
ATOM     27  C   UNL     1       1.245  10.906  18.924  0.00  0.00    +0.000 C 
ATOM     28  O   UNL     1       0.180  10.897  19.528  0.00  0.00    +0.000 OA
ATOM     29  H   UNL     1       2.845   9.950  18.096  0.00  0.00    +0.000 HD
BRANCH  27  30
ATOM     30  C   UNL     1       1.974  12.232  18.608  0.00  0.00    +0.000 C 
ATOM     31  N   UNL     1       2.533  12.307  17.360  0.00  0.00    +0.000 N 
ATOM     32  O   UNL     1       2.022  13.134  19.432  0.00  0.00    +0.000 OA
ATOM     33  H   UNL     1       2.450  11.536  16.714  0.00  0.00    +0.000 HD
ATOM     34  H   UNL     1       3.004  13.155  17.079  0.00  0.00    +0.000 HD
ENDBRANCH  27  30
ENDBRANCH  25  26
ENDBRANCH  22  25
ENDBRANCH  19  22
ENDBRANCH   5  19
TORSDOF 11
ENDMDL
MODEL 9
REMARK VINA RESULT:      -6.5      1.294      1.417
REMARK  Name = 
REMARK  13 active torsions:
REMARK  status: ('A' for Active; 'I' for Inactive)
REMARK    1  A    between atoms: C_1  and  O_2
REMARK    2  A    between atoms: O_2  and  C_3
REMARK    3  A    between atoms: C_3  and  C_4
REMARK    4  A    between atoms: C_8  and  O_9
REMARK    5  A    between atoms: C_10  and  N_11
REMARK    6  A    between atoms: C_12  and  C_13
REMARK    7  A    between atoms: C_15  and  C_16
REMARK    8  A    between atoms: C_16  and  O_17
REMARK    9  A    between atoms: C_16  and  C_18
REMARK   10  A    between atoms: C_18  and  O_19
REMARK   11  A    between atoms: C_18  and  C_20
REMARK   12  A    between atoms: C_20  and  N_21
REMARK   13  A    between atoms: C_22  and  C_24
REMARK                            x       y       z     vdW  Elec       q    Type
REMARK                         _______ _______ _______ _____ _____    ______ ____
ROOT
ATOM      1  C   UNL     1       2.372   3.126  19.405  0.00  0.00    +0.000 C 
ATOM      2  C   UNL     1       3.517   2.457  18.648  0.00  0.00    +0.000 C 
ATOM      3  C   UNL     1       4.253   3.452  17.761  0.00  0.00    +0.000 C 
ATOM      4  C   UNL     1       4.861   4.519  18.696  0.00  0.00    +0.000 C 
ATOM      5  C   UNL     1       3.689   5.255  19.404  0.00  0.00    +0.000 C 
ATOM      6  O   UNL     1       2.804   4.333  20.073  0.00  0.00    +0.000 OA
ENDROOT
BRANCH   4   7
ATOM      7  N   UNL     1       5.833   5.443  18.120  0.00  0.00    +0.000 N 
ATOM      8  C   UNL     1       6.950   5.872  18.796  0.00  0.00    +0.000 C 
ATOM      9  C   UNL     1       7.658   7.010  18.099  0.00  0.00    +0.000 C 
ATOM     10  O   UNL     1       7.315   5.407  19.870  0.00  0.00    +0.000 OA
ATOM     11  H   UNL     1       5.435   6.149  17.503  0.00  0.00    +0.000 HD
ENDBRANCH   4   7
BRANCH   1  12
ATOM     12  C   UNL     1       1.177   3.369  18.367  0.00  0.00    +0.000 C 
ATOM     13  O   UNL     1       1.382   4.202  17.436  0.00  0.00    +0.000 OA
ATOM     14  O   UNL     1       0.188   2.557  18.439  0.00  0.00    +0.000 OA
ENDBRANCH   1  12
BRANCH   1  16
ATOM     15  C   UNL     1       1.667   2.701  21.667  0.00  0.00    +0.000 C 
ATOM     16  O   UNL     1       1.989   2.144  20.399  0.00  0.00    +0.000 OA
ENDBRANCH   1  16
BRANCH   3  17
ATOM     17  O   UNL     1       5.145   2.689  16.949  0.00  0.00    +0.000 OA
ATOM     18  H   UNL     1       4.602   2.245  16.257  0.00  0.00    +0.000 HD
ENDBRANCH   3  17
BRANCH   5  19
ATOM     19  C   UNL     1       2.890   6.343  18.600  0.00  0.00    +0.000 C 
BRANCH  19  20
ATOM     20  O   UNL     1       3.610   6.833  17.462  0.00  0.00    +0.000 OA
ATOM     21  H   UNL     1       3.593   7.820  17.545  0.00  0.00    +0.000 HD
ENDBRANCH  19  20
BRANCH  19  22
ATOM     22  C   UNL     1       2.438   7.585  19.414  0.00  0.00    +0.000 C 
BRANCH  22  23
ATOM     23  O   UNL     1       1.817   7.199  20.647  0.00  0.00    +0.000 OA
ATOM     24  H   UNL     1       1.946   7.927  21.292  0.00  0.00    +0.000 HD
ENDBRANCH  22  23
BRANCH  22  25
ATOM     25  C   UNL     1       1.522   8.501  18.572  0.00  0.00    +0.000 C 
BRANCH  25  26
ATOM     26  N   UNL     1       2.032   9.861  18.494  0.00  0.00    +0.000 N 
ATOM     27  C   UNL     1       1.267  10.976  18.740  0.00  0.00    +0.000 C 
ATOM     28  O   UNL     1       0.092  10.963  19.082  0.00  0.00    +0.000 OA
ATOM     29  H   UNL     1       3.020  10.025  18.309  0.00  0.00    +0.000 HD
BRANCH  27  30
ATOM     30  C   UNL     1       2.043  12.304  18.590  0.00  0.00    +0.000 C 
ATOM     31  N   UNL     1       2.540  12.552  17.338  0.00  0.00    +0.000 N 
ATOM     32  O   UNL     1       2.178  13.063  19.539  0.00  0.00    +0.000 OA
ATOM     33  H   UNL     1       2.387  11.896  16.587  0.00  0.00    +0.000 HD
ATOM     34  H   UNL     1       3.037  13.413  17.165  0.00  0.00    +0.000 HD
ENDBRANCH  27  30
ENDBRANCH  25  26
ENDBRANCH  22  25
ENDBRANCH  19  22
ENDBRANCH   5  19
TORSDOF 11
ENDMDL
