MODEL 1
REMARK VINA RESULT:      -9.4      0.000      0.000
REMARK  Name = 
REMARK  7 active torsions:
REMARK  status: ('A' for Active; 'I' for Inactive)
REMARK    1  A    between atoms: C_1  and  N_2
REMARK    2  A    between atoms: N_6  and  C_7
REMARK    3  A    between atoms: C_10  and  C_11
REMARK    4  A    between atoms: C_16  and  O_17
REMARK    5  A    between atoms: O_17  and  C_18
REMARK    6  A    between atoms: C_21  and  C_22
REMARK    7  A    between atoms: C_26  and  C_27
REMARK                            x       y       z     vdW  Elec       q    Type
REMARK                         _______ _______ _______ _____ _____    ______ ____
ROOT
ATOM      1  C   UNL     1       7.655   5.689  19.870  0.00  0.00    +0.000 C 
ATOM      2  N   UNL     1       7.955   6.070  18.504  0.00  0.00    +0.000 N 
ATOM      3  C   UNL     1       6.928   5.788  17.610  0.00  0.00    +0.000 A 
ATOM      4  N   UNL     1       5.678   5.819  18.030  0.00  0.00    +0.000 NA
ATOM      5  C   UNL     1       4.738   5.470  17.166  0.00  0.00    +0.000 A 
ATOM      6  N   UNL     1       3.415   5.415  17.598  0.00  0.00    +0.000 N 
ATOM      7  N   UNL     1       4.983   5.105  15.918  0.00  0.00    +0.000 NA
ATOM      8  C   UNL     1       6.269   5.142  15.563  0.00  0.00    +0.000 A 
ATOM      9  N   UNL     1       7.278   5.465  16.376  0.00  0.00    +0.000 NA
ATOM     10  H   UNL     1       8.802   5.669  18.118  0.00  0.00    +0.000 HD
ATOM     11  H   UNL     1       2.808   5.034  16.893  0.00  0.00    +0.000 HD
ENDROOT
BRANCH   8  12
ATOM     12  C   UNL     1       6.607   4.711  14.189  0.00  0.00    +0.000 A 
ATOM     13  C   UNL     1       7.613   5.354  13.442  0.00  0.00    +0.000 A 
ATOM     14  C   UNL     1       7.877   5.001  12.118  0.00  0.00    +0.000 A 
ATOM     15  C   UNL     1       7.141   3.992  11.503  0.00  0.00    +0.000 A 
ATOM     16  C   UNL     1       6.151   3.313  12.218  0.00  0.00    +0.000 A 
ATOM     17  C   UNL     1       5.332   2.234  11.573  0.00  0.00    +0.000 C 
ATOM     18  C   UNL     1       5.906   3.667  13.554  0.00  0.00    +0.000 A 
ENDBRANCH   8  12
BRANCH   6  19
ATOM     19  C   UNL     1       2.805   6.183  18.604  0.00  0.00    +0.000 A 
ATOM     20  C   UNL     1       2.426   5.636  19.832  0.00  0.00    +0.000 A 
ATOM     21  C   UNL     1       1.805   6.418  20.803  0.00  0.00    +0.000 A 
ATOM     22  C   UNL     1       1.524   7.771  20.569  0.00  0.00    +0.000 A 
ATOM     23  C   UNL     1       1.864   8.324  19.315  0.00  0.00    +0.000 A 
ATOM     24  C   UNL     1       2.509   7.529  18.354  0.00  0.00    +0.000 A 
BRANCH  22  25
ATOM     25  C   UNL     1       0.914   8.562  21.632  0.00  0.00    +0.000 A 
ATOM     26  C   UNL     1       1.369   9.385  22.640  0.00  0.00    +0.000 A 
ATOM     27  N   UNL     1       0.317   9.861  23.383  0.00  0.00    +0.000 NA
ATOM     28  C   UNL     1      -0.728   9.318  22.805  0.00  0.00    +0.000 A 
ATOM     29  O   UNL     1      -0.453   8.515  21.742  0.00  0.00    +0.000 OA
ENDBRANCH  22  25
BRANCH  23  30
ATOM     30  O   UNL     1       1.516   9.637  19.106  0.00  0.00    +0.000 OA
ATOM     31  C   UNL     1       0.407   9.907  18.260  0.00  0.00    +0.000 C 
ENDBRANCH  23  30
ENDBRANCH   6  19
TORSDOF 4
ENDMDL
MODEL 2
REMARK VINA RESULT:      -8.0      1.122      1.316
REMARK  Name = 
REMARK  7 active torsions:
REMARK  status: ('A' for Active; 'I' for Inactive)
REMARK    1  A    between atoms: C_1  and  N_2
REMARK    2  A    between atoms: N_6  and  C_7
REMARK    3  A    between atoms: C_10  and  C_11
REMARK    4  A    between atoms: C_16  and  O_17
REMARK    5  A    between atoms: O_17  and  C_18
REMARK    6  A    between atoms: C_21  and  C_22
REMARK    7  A    between atoms: C_26  and  C_27
REMARK                            x       y       z     vdW  Elec       q    Type
REMARK                         _______ _______ _______ _____ _____    ______ ____
ROOT
ATOM      1  C   UNL     1       7.684   6.948  18.312  0.00  0.00    +0.000 C 
ATOM      2  N   UNL     1       7.515   6.961  16.873  0.00  0.00    +0.000 N 
ATOM      3  C   UNL     1       6.484   6.142  16.425  0.00  0.00    +0.000 A 
ATOM      4  N   UNL     1       5.433   5.945  17.198  0.00  0.00    +0.000 NA
ATOM      5  C   UNL     1       4.512   5.100  16.766  0.00  0.00    +0.000 A 
ATOM      6  N   UNL     1       3.427   4.808  17.591  0.00  0.00    +0.000 N 
ATOM      7  N   UNL     1       4.585   4.455  15.613  0.00  0.00    +0.000 NA
ATOM      8  C   UNL     1       5.659   4.744  14.875  0.00  0.00    +0.000 A 
ATOM      9  N   UNL     1       6.641   5.570  15.243  0.00  0.00    +0.000 NA
ATOM     10  H   UNL     1       8.340   6.717  16.336  0.00  0.00    +0.000 HD
ATOM     11  H   UNL     1       2.855   4.075  17.210  0.00  0.00    +0.000 HD
ENDROOT
BRANCH   8  12
ATOM     12  C   UNL     1       5.812   4.027  13.590  0.00  0.00    +0.000 A 
ATOM     13  C   UNL     1       7.081   3.684  13.085  0.00  0.00    +0.000 A 
ATOM     14  C   UNL     1       7.230   3.080  11.835  0.00  0.00    +0.000 A 
ATOM     15  C   UNL     1       6.111   2.802  11.056  0.00  0.00    +0.000 A 
ATOM     16  C   UNL     1       4.833   3.104  11.531  0.00  0.00    +0.000 A 
ATOM     17  C   UNL     1       3.614   2.830  10.703  0.00  0.00    +0.000 C 
ATOM     18  C   UNL     1       4.696   3.697  12.796  0.00  0.00    +0.000 A 
ENDBRANCH   8  12
BRANCH   6  19
ATOM     19  C   UNL     1       2.825   5.641  18.549  0.00  0.00    +0.000 A 
ATOM     20  C   UNL     1       2.310   5.146  19.749  0.00  0.00    +0.000 A 
ATOM     21  C   UNL     1       1.701   5.994  20.671  0.00  0.00    +0.000 A 
ATOM     22  C   UNL     1       1.568   7.365  20.413  0.00  0.00    +0.000 A 
ATOM     23  C   UNL     1       2.047   7.870  19.183  0.00  0.00    +0.000 A 
ATOM     24  C   UNL     1       2.678   7.007  18.273  0.00  0.00    +0.000 A 
BRANCH  22  25
ATOM     25  C   UNL     1       0.965   8.222  21.427  0.00  0.00    +0.000 A 
ATOM     26  C   UNL     1      -0.316   8.582  21.786  0.00  0.00    +0.000 A 
ATOM     27  N   UNL     1      -0.290   9.467  22.835  0.00  0.00    +0.000 NA
ATOM     28  C   UNL     1       0.992   9.609  23.076  0.00  0.00    +0.000 A 
ATOM     29  O   UNL     1       1.819   8.894  22.266  0.00  0.00    +0.000 OA
ENDBRANCH  22  25
BRANCH  23  30
ATOM     30  O   UNL     1       1.843   9.208  18.946  0.00  0.00    +0.000 OA
ATOM     31  C   UNL     1       0.835   9.574  18.015  0.00  0.00    +0.000 C 
ENDBRANCH  23  30
ENDBRANCH   6  19
TORSDOF 4
ENDMDL
MODEL 3
REMARK VINA RESULT:      -7.8      3.646     10.802
REMARK  Name = 
REMARK  7 active torsions:
REMARK  status: ('A' for Active; 'I' for Inactive)
REMARK    1  A    between atoms: C_1  and  N_2
REMARK    2  A    between atoms: N_6  and  C_7
REMARK    3  A    between atoms: C_10  and  C_11
REMARK    4  A    between atoms: C_16  and  O_17
REMARK    5  A    between atoms: O_17  and  C_18
REMARK    6  A    between atoms: C_21  and  C_22
REMARK    7  A    between atoms: C_26  and  C_27
REMARK                            x       y       z     vdW  Elec       q    Type
REMARK                         _______ _______ _______ _____ _____    ______ ____
ROOT
ATOM      1  C   UNL     1       2.970  13.709  18.826  0.00  0.00    +0.000 C 
ATOM      2  N   UNL     1       2.619  13.927  20.215  0.00  0.00    +0.000 N 
ATOM      3  C   UNL     1       1.576  13.122  20.658  0.00  0.00    +0.000 A 
ATOM      4  N   UNL     1       1.414  11.923  20.131  0.00  0.00    +0.000 NA
ATOM      5  C   UNL     1       0.364  11.223  20.528  0.00  0.00    +0.000 A 
ATOM      6  N   UNL     1       0.119   9.986  19.935  0.00  0.00    +0.000 N 
ATOM      7  N   UNL     1      -0.515  11.652  21.419  0.00  0.00    +0.000 NA
ATOM      8  C   UNL     1      -0.253  12.856  21.932  0.00  0.00    +0.000 A 
ATOM      9  N   UNL     1       0.772  13.633  21.576  0.00  0.00    +0.000 NA
ATOM     10  H   UNL     1       2.381  14.881  20.458  0.00  0.00    +0.000 HD
ATOM     11  H   UNL     1      -0.760   9.598  20.232  0.00  0.00    +0.000 HD
ENDROOT
BRANCH   8  12
ATOM     12  C   UNL     1      -1.221  13.402  22.908  0.00  0.00    +0.000 A 
ATOM     13  C   UNL     1      -0.974  14.606  23.595  0.00  0.00    +0.000 A 
ATOM     14  C   UNL     1      -1.847  15.081  24.575  0.00  0.00    +0.000 A 
ATOM     15  C   UNL     1      -2.996  14.362  24.894  0.00  0.00    +0.000 A 
ATOM     16  C   UNL     1      -3.291  13.176  24.218  0.00  0.00    +0.000 A 
ATOM     17  C   UNL     1      -4.512  12.374  24.556  0.00  0.00    +0.000 C 
ATOM     18  C   UNL     1      -2.412  12.717  23.224  0.00  0.00    +0.000 A 
ENDBRANCH   8  12
BRANCH   6  19
ATOM     19  C   UNL     1       1.055   9.085  19.402  0.00  0.00    +0.000 A 
ATOM     20  C   UNL     1       1.553   9.210  18.103  0.00  0.00    +0.000 A 
ATOM     21  C   UNL     1       2.467   8.289  17.594  0.00  0.00    +0.000 A 
ATOM     22  C   UNL     1       2.898   7.200  18.364  0.00  0.00    +0.000 A 
ATOM     23  C   UNL     1       2.369   7.040  19.664  0.00  0.00    +0.000 A 
ATOM     24  C   UNL     1       1.465   7.988  20.170  0.00  0.00    +0.000 A 
BRANCH  22  25
ATOM     25  C   UNL     1       3.891   6.289  17.808  0.00  0.00    +0.000 A 
ATOM     26  C   UNL     1       5.257   6.305  17.621  0.00  0.00    +0.000 A 
ATOM     27  N   UNL     1       5.671   5.148  17.007  0.00  0.00    +0.000 NA
ATOM     28  C   UNL     1       4.555   4.477  16.848  0.00  0.00    +0.000 A 
ATOM     29  O   UNL     1       3.433   5.098  17.301  0.00  0.00    +0.000 OA
ENDBRANCH  22  25
BRANCH  23  30
ATOM     30  O   UNL     1       2.773   5.927  20.361  0.00  0.00    +0.000 OA
ATOM     31  C   UNL     1       1.808   4.919  20.624  0.00  0.00    +0.000 C 
ENDBRANCH  23  30
ENDBRANCH   6  19
TORSDOF 4
ENDMDL
MODEL 4
REMARK VINA RESULT:      -7.8      3.645     10.931
REMARK  Name = 
REMARK  7 active torsions:
REMARK  status: ('A' for Active; 'I' for Inactive)
REMARK    1  A    between atoms: C_1  and  N_2
REMARK    2  A    between atoms: N_6  and  C_7
REMARK    3  A    between atoms: C_10  and  C_11
REMARK    4  A    between atoms: C_16  and  O_17
REMARK    5  A    between atoms: O_17  and  C_18
REMARK    6  A    between atoms: C_21  and  C_22
REMARK    7  A    between atoms: C_26  and  C_27
REMARK                            x       y       z     vdW  Elec       q    Type
REMARK                         _______ _______ _______ _____ _____    ______ ____
ROOT
ATOM      1  C   UNL     1       2.911  13.685  19.146  0.00  0.00    +0.000 C 
ATOM      2  N   UNL     1       2.492  13.799  20.529  0.00  0.00    +0.000 N 
ATOM      3  C   UNL     1       1.450  12.942  20.867  0.00  0.00    +0.000 A 
ATOM      4  N   UNL     1       1.344  11.779  20.252  0.00  0.00    +0.000 NA
ATOM      5  C   UNL     1       0.296  11.029  20.551  0.00  0.00    +0.000 A 
ATOM      6  N   UNL     1       0.111   9.830  19.864  0.00  0.00    +0.000 N 
ATOM      7  N   UNL     1      -0.634  11.375  21.425  0.00  0.00    +0.000 NA
ATOM      8  C   UNL     1      -0.428  12.546  22.031  0.00  0.00    +0.000 A 
ATOM      9  N   UNL     1       0.592  13.370  21.777  0.00  0.00    +0.000 NA
ATOM     10  H   UNL     1       2.217  14.729  20.824  0.00  0.00    +0.000 HD
ATOM     11  H   UNL     1      -0.770   9.403  20.092  0.00  0.00    +0.000 HD
ENDROOT
BRANCH   8  12
ATOM     12  C   UNL     1      -1.453  13.002  22.995  0.00  0.00    +0.000 A 
ATOM     13  C   UNL     1      -2.641  12.274  23.205  0.00  0.00    +0.000 A 
ATOM     14  C   UNL     1      -3.645  12.745  24.053  0.00  0.00    +0.000 A 
ATOM     15  C   UNL     1      -3.487  13.958  24.717  0.00  0.00    +0.000 A 
ATOM     16  C   UNL     1      -2.314  14.698  24.555  0.00  0.00    +0.000 A 
ATOM     17  C   UNL     1      -2.127  16.016  25.244  0.00  0.00    +0.000 C 
ATOM     18  C   UNL     1      -1.305  14.207  23.711  0.00  0.00    +0.000 A 
ENDBRANCH   8  12
BRANCH   6  19
ATOM     19  C   UNL     1       1.094   8.990  19.317  0.00  0.00    +0.000 A 
ATOM     20  C   UNL     1       1.589   9.167  18.022  0.00  0.00    +0.000 A 
ATOM     21  C   UNL     1       2.550   8.305  17.499  0.00  0.00    +0.000 A 
ATOM     22  C   UNL     1       3.035   7.224  18.249  0.00  0.00    +0.000 A 
ATOM     23  C   UNL     1       2.511   7.011  19.543  0.00  0.00    +0.000 A 
ATOM     24  C   UNL     1       1.557   7.900  20.064  0.00  0.00    +0.000 A 
BRANCH  22  25
ATOM     25  C   UNL     1       4.075   6.376  17.678  0.00  0.00    +0.000 A 
ATOM     26  C   UNL     1       5.427   6.492  17.439  0.00  0.00    +0.000 A 
ATOM     27  N   UNL     1       5.908   5.354  16.839  0.00  0.00    +0.000 NA
ATOM     28  C   UNL     1       4.842   4.595  16.738  0.00  0.00    +0.000 A 
ATOM     29  O   UNL     1       3.692   5.141  17.217  0.00  0.00    +0.000 OA
ENDBRANCH  22  25
BRANCH  23  30
ATOM     30  O   UNL     1       2.969   5.906  20.218  0.00  0.00    +0.000 OA
ATOM     31  C   UNL     1       2.033   4.890  20.549  0.00  0.00    +0.000 C 
ENDBRANCH  23  30
ENDBRANCH   6  19
TORSDOF 4
ENDMDL
MODEL 5
REMARK VINA RESULT:      -7.7      4.303      6.815
REMARK  Name = 
REMARK  7 active torsions:
REMARK  status: ('A' for Active; 'I' for Inactive)
REMARK    1  A    between atoms: C_1  and  N_2
REMARK    2  A    between atoms: N_6  and  C_7
REMARK    3  A    between atoms: C_10  and  C_11
REMARK    4  A    between atoms: C_16  and  O_17
REMARK    5  A    between atoms: O_17  and  C_18
REMARK    6  A    between atoms: C_21  and  C_22
REMARK    7  A    between atoms: C_26  and  C_27
REMARK                            x       y       z     vdW  Elec       q    Type
REMARK                         _______ _______ _______ _____ _____    ______ ____
ROOT
ATOM      1  C   UNL     1       0.281   9.352  22.311  0.00  0.00    +0.000 C 
ATOM      2  N   UNL     1       1.357   8.449  21.955  0.00  0.00    +0.000 N 
ATOM      3  C   UNL     1       1.637   8.425  20.593  0.00  0.00    +0.000 A 
ATOM      4  N   UNL     1       1.442   9.514  19.874  0.00  0.00    +0.000 NA
ATOM      5  C   UNL     1       1.649   9.424  18.570  0.00  0.00    +0.000 A 
ATOM      6  N   UNL     1       1.378  10.532  17.769  0.00  0.00    +0.000 N 
ATOM      7  N   UNL     1       2.041   8.317  17.960  0.00  0.00    +0.000 NA
ATOM      8  C   UNL     1       2.255   7.276  18.767  0.00  0.00    +0.000 A 
ATOM      9  N   UNL     1       2.056   7.277  20.087  0.00  0.00    +0.000 NA
ATOM     10  H   UNL     1       1.231   7.487  22.248  0.00  0.00    +0.000 HD
ATOM     11  H   UNL     1       1.463  10.314  16.792  0.00  0.00    +0.000 HD
ENDROOT
BRANCH   8  12
ATOM     12  C   UNL     1       2.663   6.002  18.136  0.00  0.00    +0.000 A 
ATOM     13  C   UNL     1       1.829   4.867  18.164  0.00  0.00    +0.000 A 
ATOM     14  C   UNL     1       2.247   3.642  17.640  0.00  0.00    +0.000 A 
ATOM     15  C   UNL     1       3.511   3.519  17.072  0.00  0.00    +0.000 A 
ATOM     16  C   UNL     1       4.359   4.627  17.003  0.00  0.00    +0.000 A 
ATOM     17  C   UNL     1       5.733   4.516  16.412  0.00  0.00    +0.000 C 
ATOM     18  C   UNL     1       3.922   5.857  17.519  0.00  0.00    +0.000 A 
ENDBRANCH   8  12
BRANCH   6  19
ATOM     19  C   UNL     1       1.458  11.889  18.121  0.00  0.00    +0.000 A 
ATOM     20  C   UNL     1       2.666  12.590  18.115  0.00  0.00    +0.000 A 
ATOM     21  C   UNL     1       2.718  13.931  18.488  0.00  0.00    +0.000 A 
ATOM     22  C   UNL     1       1.563  14.611  18.898  0.00  0.00    +0.000 A 
ATOM     23  C   UNL     1       0.343  13.901  18.949  0.00  0.00    +0.000 A 
ATOM     24  C   UNL     1       0.303  12.555  18.550  0.00  0.00    +0.000 A 
BRANCH  22  25
ATOM     25  C   UNL     1       1.656  16.027  19.235  0.00  0.00    +0.000 A 
ATOM     26  C   UNL     1       1.569  17.217  18.545  0.00  0.00    +0.000 A 
ATOM     27  N   UNL     1       1.767  18.279  19.393  0.00  0.00    +0.000 NA
ATOM     28  C   UNL     1       1.962  17.702  20.556  0.00  0.00    +0.000 A 
ATOM     29  O   UNL     1       1.917  16.343  20.545  0.00  0.00    +0.000 OA
ENDBRANCH  22  25
BRANCH  23  30
ATOM     30  O   UNL     1      -0.751  14.589  19.415  0.00  0.00    +0.000 OA
ATOM     31  C   UNL     1      -1.294  14.208  20.672  0.00  0.00    +0.000 C 
ENDBRANCH  23  30
ENDBRANCH   6  19
TORSDOF 4
ENDMDL
MODEL 6
REMARK VINA RESULT:      -7.7      4.564      7.246
REMARK  Name = 
REMARK  7 active torsions:
REMARK  status: ('A' for Active; 'I' for Inactive)
REMARK    1  A    between atoms: C_1  and  N_2
REMARK    2  A    between atoms: N_6  and  C_7
REMARK    3  A    between atoms: C_10  and  C_11
REMARK    4  A    between atoms: C_16  and  O_17
REMARK    5  A    between atoms: O_17  and  C_18
REMARK    6  A    between atoms: C_21  and  C_22
REMARK    7  A    between atoms: C_26  and  C_27
REMARK                            x       y       z     vdW  Elec       q    Type
REMARK                         _______ _______ _______ _____ _____    ______ ____
ROOT
ATOM      1  C   UNL     1      -0.410   9.723  22.344  0.00  0.00    +0.000 C 
ATOM      2  N   UNL     1       0.704   8.815  22.161  0.00  0.00    +0.000 N 
ATOM      3  C   UNL     1       1.184   8.779  20.856  0.00  0.00    +0.000 A 
ATOM      4  N   UNL     1       1.103   9.862  20.107  0.00  0.00    +0.000 NA
ATOM      5  C   UNL     1       1.502   9.761  18.849  0.00  0.00    +0.000 A 
ATOM      6  N   UNL     1       1.356  10.863  18.008  0.00  0.00    +0.000 N 
ATOM      7  N   UNL     1       1.978   8.649  18.314  0.00  0.00    +0.000 NA
ATOM      8  C   UNL     1       2.066   7.614  19.151  0.00  0.00    +0.000 A 
ATOM      9  N   UNL     1       1.671   7.627  20.427  0.00  0.00    +0.000 NA
ATOM     10  H   UNL     1       0.533   7.855  22.439  0.00  0.00    +0.000 HD
ATOM     11  H   UNL     1       1.586  10.637  17.056  0.00  0.00    +0.000 HD
ENDROOT
BRANCH   8  12
ATOM     12  C   UNL     1       2.559   6.334  18.599  0.00  0.00    +0.000 A 
ATOM     13  C   UNL     1       3.707   6.277  17.785  0.00  0.00    +0.000 A 
ATOM     14  C   UNL     1       4.127   5.083  17.197  0.00  0.00    +0.000 A 
ATOM     15  C   UNL     1       3.409   3.909  17.410  0.00  0.00    +0.000 A 
ATOM     16  C   UNL     1       2.280   3.918  18.232  0.00  0.00    +0.000 A 
ATOM     17  C   UNL     1       1.480   2.671  18.463  0.00  0.00    +0.000 C 
ATOM     18  C   UNL     1       1.877   5.122  18.829  0.00  0.00    +0.000 A 
ENDBRANCH   8  12
BRANCH   6  19
ATOM     19  C   UNL     1       1.387  12.222  18.357  0.00  0.00    +0.000 A 
ATOM     20  C   UNL     1       0.223  12.984  18.492  0.00  0.00    +0.000 A 
ATOM     21  C   UNL     1       0.286  14.336  18.820  0.00  0.00    +0.000 A 
ATOM     22  C   UNL     1       1.519  14.977  19.005  0.00  0.00    +0.000 A 
ATOM     23  C   UNL     1       2.704  14.228  18.829  0.00  0.00    +0.000 A 
ATOM     24  C   UNL     1       2.623  12.860  18.519  0.00  0.00    +0.000 A 
BRANCH  22  25
ATOM     25  C   UNL     1       1.535  16.383  19.393  0.00  0.00    +0.000 A 
ATOM     26  C   UNL     1       1.508  17.593  18.734  0.00  0.00    +0.000 A 
ATOM     27  N   UNL     1       1.571  18.631  19.631  0.00  0.00    +0.000 NA
ATOM     28  C   UNL     1       1.630  18.020  20.792  0.00  0.00    +0.000 A 
ATOM     29  O   UNL     1       1.618  16.661  20.735  0.00  0.00    +0.000 OA
ENDBRANCH  22  25
BRANCH  23  30
ATOM     30  O   UNL     1       3.889  14.910  18.960  0.00  0.00    +0.000 OA
ATOM     31  C   UNL     1       4.811  14.859  17.881  0.00  0.00    +0.000 C 
ENDBRANCH  23  30
ENDBRANCH   6  19
TORSDOF 4
ENDMDL
MODEL 7
REMARK VINA RESULT:      -7.7      4.392      6.946
REMARK  Name = 
REMARK  7 active torsions:
REMARK  status: ('A' for Active; 'I' for Inactive)
REMARK    1  A    between atoms: C_1  and  N_2
REMARK    2  A    between atoms: N_6  and  C_7
REMARK    3  A    between atoms: C_10  and  C_11
REMARK    4  A    between atoms: C_16  and  O_17
REMARK    5  A    between atoms: O_17  and  C_18
REMARK    6  A    between atoms: C_21  and  C_22
REMARK    7  A    between atoms: C_26  and  C_27
REMARK                            x       y       z     vdW  Elec       q    Type
REMARK                         _______ _______ _______ _____ _____    ______ ____
ROOT
ATOM      1  C   UNL     1       0.021   9.266  22.375  0.00  0.00    +0.000 C 
ATOM      2  N   UNL     1       1.198   8.506  22.008  0.00  0.00    +0.000 N 
ATOM      3  C   UNL     1       1.513   8.586  20.655  0.00  0.00    +0.000 A 
ATOM      4  N   UNL     1       1.218   9.685  19.987  0.00  0.00    +0.000 NA
ATOM      5  C   UNL     1       1.467   9.689  18.687  0.00  0.00    +0.000 A 
ATOM      6  N   UNL     1       1.095  10.803  17.936  0.00  0.00    +0.000 N 
ATOM      7  N   UNL     1       1.994   8.667  18.034  0.00  0.00    +0.000 NA
ATOM      8  C   UNL     1       2.302   7.613  18.792  0.00  0.00    +0.000 A 
ATOM      9  N   UNL     1       2.069   7.521  20.104  0.00  0.00    +0.000 NA
ATOM     10  H   UNL     1       1.172   7.522  22.247  0.00  0.00    +0.000 HD
ATOM     11  H   UNL     1       1.229  10.650  16.952  0.00  0.00    +0.000 HD
ENDROOT
BRANCH   8  12
ATOM     12  C   UNL     1       2.863   6.427  18.111  0.00  0.00    +0.000 A 
ATOM     13  C   UNL     1       2.200   5.185  18.127  0.00  0.00    +0.000 A 
ATOM     14  C   UNL     1       2.768   4.046  17.554  0.00  0.00    +0.000 A 
ATOM     15  C   UNL     1       4.017   4.120  16.945  0.00  0.00    +0.000 A 
ATOM     16  C   UNL     1       4.697   5.338  16.885  0.00  0.00    +0.000 A 
ATOM     17  C   UNL     1       6.052   5.440  16.251  0.00  0.00    +0.000 C 
ATOM     18  C   UNL     1       4.108   6.479  17.452  0.00  0.00    +0.000 A 
ENDBRANCH   8  12
BRANCH   6  19
ATOM     19  C   UNL     1       1.015  12.140  18.359  0.00  0.00    +0.000 A 
ATOM     20  C   UNL     1      -0.206  12.784  18.568  0.00  0.00    +0.000 A 
ATOM     21  C   UNL     1      -0.253  14.118  18.968  0.00  0.00    +0.000 A 
ATOM     22  C   UNL     1       0.923  14.857  19.155  0.00  0.00    +0.000 A 
ATOM     23  C   UNL     1       2.163  14.228  18.907  0.00  0.00    +0.000 A 
ATOM     24  C   UNL     1       2.195  12.877  18.524  0.00  0.00    +0.000 A 
BRANCH  22  25
ATOM     25  C   UNL     1       0.826  16.236  19.620  0.00  0.00    +0.000 A 
ATOM     26  C   UNL     1       0.681  16.863  20.840  0.00  0.00    +0.000 A 
ATOM     27  N   UNL     1       0.622  18.225  20.676  0.00  0.00    +0.000 NA
ATOM     28  C   UNL     1       0.735  18.375  19.377  0.00  0.00    +0.000 A 
ATOM     29  O   UNL     1       0.858  17.222  18.666  0.00  0.00    +0.000 OA
ENDBRANCH  22  25
BRANCH  23  30
ATOM     30  O   UNL     1       3.286  15.006  19.044  0.00  0.00    +0.000 OA
ATOM     31  C   UNL     1       4.241  14.991  17.992  0.00  0.00    +0.000 C 
ENDBRANCH  23  30
ENDBRANCH   6  19
TORSDOF 4
ENDMDL
MODEL 8
REMARK VINA RESULT:      -7.7      4.331      6.720
REMARK  Name = 
REMARK  7 active torsions:
REMARK  status: ('A' for Active; 'I' for Inactive)
REMARK    1  A    between atoms: C_1  and  N_2
REMARK    2  A    between atoms: N_6  and  C_7
REMARK    3  A    between atoms: C_10  and  C_11
REMARK    4  A    between atoms: C_16  and  O_17
REMARK    5  A    between atoms: O_17  and  C_18
REMARK    6  A    between atoms: C_21  and  C_22
REMARK    7  A    between atoms: C_26  and  C_27
REMARK                            x       y       z     vdW  Elec       q    Type
REMARK                         _______ _______ _______ _____ _____    ______ ____
ROOT
ATOM      1  C   UNL     1      -0.257   8.928  22.055  0.00  0.00    +0.000 C 
ATOM      2  N   UNL     1       0.970   8.200  21.806  0.00  0.00    +0.000 N 
ATOM      3  C   UNL     1       1.444   8.334  20.505  0.00  0.00    +0.000 A 
ATOM      4  N   UNL     1       1.210   9.453  19.845  0.00  0.00    +0.000 NA
ATOM      5  C   UNL     1       1.613   9.509  18.586  0.00  0.00    +0.000 A 
ATOM      6  N   UNL     1       1.313  10.644  17.835  0.00  0.00    +0.000 N 
ATOM      7  N   UNL     1       2.234   8.519  17.966  0.00  0.00    +0.000 NA
ATOM      8  C   UNL     1       2.468   7.442  18.718  0.00  0.00    +0.000 A 
ATOM      9  N   UNL     1       2.082   7.298  19.988  0.00  0.00    +0.000 NA
ATOM     10  H   UNL     1       0.934   7.207  22.005  0.00  0.00    +0.000 HD
ATOM     11  H   UNL     1       1.567  10.529  16.869  0.00  0.00    +0.000 HD
ENDROOT
BRANCH   8  12
ATOM     12  C   UNL     1       3.130   6.290  18.068  0.00  0.00    +0.000 A 
ATOM     13  C   UNL     1       4.291   6.453  17.287  0.00  0.00    +0.000 A 
ATOM     14  C   UNL     1       4.870   5.380  16.607  0.00  0.00    +0.000 A 
ATOM     15  C   UNL     1       4.303   4.112  16.692  0.00  0.00    +0.000 A 
ATOM     16  C   UNL     1       3.166   3.904  17.476  0.00  0.00    +0.000 A 
ATOM     17  C   UNL     1       2.525   2.550  17.569  0.00  0.00    +0.000 C 
ATOM     18  C   UNL     1       2.602   4.988  18.167  0.00  0.00    +0.000 A 
ENDBRANCH   8  12
BRANCH   6  19
ATOM     19  C   UNL     1       1.158  11.962  18.291  0.00  0.00    +0.000 A 
ATOM     20  C   UNL     1      -0.091  12.497  18.616  0.00  0.00    +0.000 A 
ATOM     21  C   UNL     1      -0.216  13.816  19.048  0.00  0.00    +0.000 A 
ATOM     22  C   UNL     1       0.906  14.650  19.151  0.00  0.00    +0.000 A 
ATOM     23  C   UNL     1       2.169  14.133  18.785  0.00  0.00    +0.000 A 
ATOM     24  C   UNL     1       2.281  12.796  18.371  0.00  0.00    +0.000 A 
BRANCH  22  25
ATOM     25  C   UNL     1       0.734  16.009  19.652  0.00  0.00    +0.000 A 
ATOM     26  C   UNL     1       0.758  16.620  20.887  0.00  0.00    +0.000 A 
ATOM     27  N   UNL     1       0.500  17.963  20.764  0.00  0.00    +0.000 NA
ATOM     28  C   UNL     1       0.332  18.119  19.471  0.00  0.00    +0.000 A 
ATOM     29  O   UNL     1       0.453  16.985  18.729  0.00  0.00    +0.000 OA
ENDBRANCH  22  25
BRANCH  23  30
ATOM     30  O   UNL     1       3.230  15.003  18.843  0.00  0.00    +0.000 OA
ATOM     31  C   UNL     1       4.447  14.613  18.222  0.00  0.00    +0.000 C 
ENDBRANCH  23  30
ENDBRANCH   6  19
TORSDOF 4
ENDMDL
MODEL 9
REMARK VINA RESULT:      -7.7      3.434     10.708
REMARK  Name = 
REMARK  7 active torsions:
REMARK  status: ('A' for Active; 'I' for Inactive)
REMARK    1  A    between atoms: C_1  and  N_2
REMARK    2  A    between atoms: N_6  and  C_7
REMARK    3  A    between atoms: C_10  and  C_11
REMARK    4  A    between atoms: C_16  and  O_17
REMARK    5  A    between atoms: O_17  and  C_18
REMARK    6  A    between atoms: C_21  and  C_22
REMARK    7  A    between atoms: C_26  and  C_27
REMARK                            x       y       z     vdW  Elec       q    Type
REMARK                         _______ _______ _______ _____ _____    ______ ____
ROOT
ATOM      1  C   UNL     1      -1.907   9.966  16.837  0.00  0.00    +0.000 C 
ATOM      2  N   UNL     1      -1.735  11.202  17.573  0.00  0.00    +0.000 N 
ATOM      3  C   UNL     1      -1.229  11.021  18.856  0.00  0.00    +0.000 A 
ATOM      4  N   UNL     1      -0.417  10.008  19.093  0.00  0.00    +0.000 NA
ATOM      5  C   UNL     1      -0.020   9.829  20.342  0.00  0.00    +0.000 A 
ATOM      6  N   UNL     1       0.774   8.724  20.642  0.00  0.00    +0.000 N 
ATOM      7  N   UNL     1      -0.384  10.605  21.350  0.00  0.00    +0.000 NA
ATOM      8  C   UNL     1      -1.171  11.629  21.016  0.00  0.00    +0.000 A 
ATOM      9  N   UNL     1      -1.630  11.871  19.786  0.00  0.00    +0.000 NA
ATOM     10  H   UNL     1      -2.567  11.774  17.662  0.00  0.00    +0.000 HD
ATOM     11  H   UNL     1       0.920   8.628  21.632  0.00  0.00    +0.000 HD
ENDROOT
BRANCH   8  12
ATOM     12  C   UNL     1      -1.638  12.511  22.107  0.00  0.00    +0.000 A 
ATOM     13  C   UNL     1      -0.900  13.643  22.505  0.00  0.00    +0.000 A 
ATOM     14  C   UNL     1      -1.297  14.430  23.588  0.00  0.00    +0.000 A 
ATOM     15  C   UNL     1      -2.447  14.105  24.303  0.00  0.00    +0.000 A 
ATOM     16  C   UNL     1      -3.220  13.005  23.924  0.00  0.00    +0.000 A 
ATOM     17  C   UNL     1      -4.452  12.624  24.689  0.00  0.00    +0.000 C 
ATOM     18  C   UNL     1      -2.818  12.231  22.825  0.00  0.00    +0.000 A 
ENDBRANCH   8  12
BRANCH   6  19
ATOM     19  C   UNL     1       1.694   8.071  19.805  0.00  0.00    +0.000 A 
ATOM     20  C   UNL     1       2.037   8.568  18.545  0.00  0.00    +0.000 A 
ATOM     21  C   UNL     1       2.938   7.888  17.729  0.00  0.00    +0.000 A 
ATOM     22  C   UNL     1       3.511   6.676  18.139  0.00  0.00    +0.000 A 
ATOM     23  C   UNL     1       3.139   6.143  19.393  0.00  0.00    +0.000 A 
ATOM     24  C   UNL     1       2.246   6.851  20.214  0.00  0.00    +0.000 A 
BRANCH  22  25
ATOM     25  C   UNL     1       4.485   6.023  17.272  0.00  0.00    +0.000 A 
ATOM     26  C   UNL     1       5.753   6.309  16.814  0.00  0.00    +0.000 A 
ATOM     27  N   UNL     1       6.196   5.317  15.975  0.00  0.00    +0.000 NA
ATOM     28  C   UNL     1       5.193   4.471  15.955  0.00  0.00    +0.000 A 
ATOM     29  O   UNL     1       4.118   4.826  16.708  0.00  0.00    +0.000 OA
ENDBRANCH  22  25
BRANCH  23  30
ATOM     30  O   UNL     1       3.678   4.925  19.729  0.00  0.00    +0.000 OA
ATOM     31  C   UNL     1       2.797   3.818  19.857  0.00  0.00    +0.000 C 
ENDBRANCH  23  30
ENDBRANCH   6  19
TORSDOF 4
ENDMDL
