MODEL 1
REMARK VINA RESULT:      -8.2      0.000      0.000
REMARK  Name = 
REMARK  5 active torsions:
REMARK  status: ('A' for Active; 'I' for Inactive)
REMARK    1  A    between atoms: C_1  and  C_2
REMARK    2  A    between atoms: C_5  and  C_6
REMARK    3  A    between atoms: C_6  and  N_7
REMARK    4  A    between atoms: N_10  and  C_11
REMARK    5  A    between atoms: C_12  and  C_13
REMARK                            x       y       z     vdW  Elec       q    Type
REMARK                         _______ _______ _______ _____ _____    ______ ____
ROOT
ATOM      1  N   UNL     1       6.166   5.910  16.845  0.00  0.00    +0.000 N 
ATOM      2  C   UNL     1       7.139   6.505  17.605  0.00  0.00    +0.000 C 
ATOM      3  O   UNL     1       7.786   5.899  18.453  0.00  0.00    +0.000 OA
ATOM      4  N   UNL     1       7.311   7.846  17.320  0.00  0.00    +0.000 N 
ATOM      5  H   UNL     1       5.628   6.450  16.189  0.00  0.00    +0.000 HD
ATOM      6  H   UNL     1       6.729   8.276  16.617  0.00  0.00    +0.000 HD
ENDROOT
BRANCH   4   7
ATOM      7  C   UNL     1       8.255   8.609  17.967  0.00  0.00    +0.000 C 
ATOM      8  C   UNL     1       8.346   9.942  17.864  0.00  0.00    +0.000 C 
BRANCH   8   9
ATOM      9  C   UNL     1       9.384  10.725  18.562  0.00  0.00    +0.000 A 
ATOM     10  C   UNL     1       9.374  10.787  19.962  0.00  0.00    +0.000 A 
ATOM     11  C   UNL     1      10.339  11.528  20.653  0.00  0.00    +0.000 A 
ATOM     12  C   UNL     1      11.334  12.209  19.956  0.00  0.00    +0.000 A 
ATOM     13  C   UNL     1      11.372  12.138  18.566  0.00  0.00    +0.000 A 
ATOM     14  C   UNL     1      10.411  11.394  17.876  0.00  0.00    +0.000 A 
ENDBRANCH   8   9
ENDBRANCH   4   7
BRANCH   1  15
ATOM     15  C   UNL     1       5.815   4.518  17.037  0.00  0.00    +0.000 C 
BRANCH  15  20
ATOM     16  C   UNL     1       0.941   4.007  20.199  0.00  0.00    +0.000 C 
ATOM     17  C   UNL     1       2.186   4.112  19.369  0.00  0.00    +0.000 A 
ATOM     18  C   UNL     1       3.234   3.200  19.521  0.00  0.00    +0.000 A 
ATOM     19  C   UNL     1       4.396   3.319  18.753  0.00  0.00    +0.000 A 
ATOM     20  C   UNL     1       4.531   4.349  17.812  0.00  0.00    +0.000 A 
ATOM     21  C   UNL     1       3.480   5.264  17.665  0.00  0.00    +0.000 A 
ATOM     22  C   UNL     1       2.319   5.146  18.434  0.00  0.00    +0.000 A 
ENDBRANCH  15  20
ENDBRANCH   1  15
TORSDOF 4
ENDMDL
MODEL 2
REMARK VINA RESULT:      -8.1      0.265      1.094
REMARK  Name = 
REMARK  5 active torsions:
REMARK  status: ('A' for Active; 'I' for Inactive)
REMARK    1  A    between atoms: C_1  and  C_2
REMARK    2  A    between atoms: C_5  and  C_6
REMARK    3  A    between atoms: C_6  and  N_7
REMARK    4  A    between atoms: N_10  and  C_11
REMARK    5  A    between atoms: C_12  and  C_13
REMARK                            x       y       z     vdW  Elec       q    Type
REMARK                         _______ _______ _______ _____ _____    ______ ____
ROOT
ATOM      1  N   UNL     1       6.348   5.928  16.986  0.00  0.00    +0.000 N 
ATOM      2  C   UNL     1       7.209   6.584  17.826  0.00  0.00    +0.000 C 
ATOM      3  O   UNL     1       7.715   6.052  18.809  0.00  0.00    +0.000 OA
ATOM      4  N   UNL     1       7.441   7.894  17.455  0.00  0.00    +0.000 N 
ATOM      5  H   UNL     1       5.921   6.409  16.213  0.00  0.00    +0.000 HD
ATOM      6  H   UNL     1       6.976   8.263  16.639  0.00  0.00    +0.000 HD
ENDROOT
BRANCH   4   7
ATOM      7  C   UNL     1       8.293   8.708  18.165  0.00  0.00    +0.000 C 
ATOM      8  C   UNL     1       8.636   9.949  17.792  0.00  0.00    +0.000 C 
BRANCH   8   9
ATOM      9  C   UNL     1       9.566  10.787  18.573  0.00  0.00    +0.000 A 
ATOM     10  C   UNL     1       9.408  10.878  19.963  0.00  0.00    +0.000 A 
ATOM     11  C   UNL     1      10.267  11.671  20.731  0.00  0.00    +0.000 A 
ATOM     12  C   UNL     1      11.304  12.376  20.123  0.00  0.00    +0.000 A 
ATOM     13  C   UNL     1      11.489  12.277  18.747  0.00  0.00    +0.000 A 
ATOM     14  C   UNL     1      10.634  11.481  17.980  0.00  0.00    +0.000 A 
ENDBRANCH   8   9
ENDBRANCH   4   7
BRANCH   1  15
ATOM     15  C   UNL     1       5.951   4.558  17.243  0.00  0.00    +0.000 C 
BRANCH  15  20
ATOM     16  C   UNL     1       0.950   4.037  20.199  0.00  0.00    +0.000 C 
ATOM     17  C   UNL     1       2.240   4.200  19.451  0.00  0.00    +0.000 A 
ATOM     18  C   UNL     1       2.329   5.050  18.344  0.00  0.00    +0.000 A 
ATOM     19  C   UNL     1       3.533   5.181  17.645  0.00  0.00    +0.000 A 
ATOM     20  C   UNL     1       4.674   4.470  18.043  0.00  0.00    +0.000 A 
ATOM     21  C   UNL     1       4.580   3.617  19.150  0.00  0.00    +0.000 A 
ATOM     22  C   UNL     1       3.376   3.485  19.848  0.00  0.00    +0.000 A 
ENDBRANCH  15  20
ENDBRANCH   1  15
TORSDOF 4
ENDMDL
MODEL 3
REMARK VINA RESULT:      -8.0      0.872      1.297
REMARK  Name = 
REMARK  5 active torsions:
REMARK  status: ('A' for Active; 'I' for Inactive)
REMARK    1  A    between atoms: C_1  and  C_2
REMARK    2  A    between atoms: C_5  and  C_6
REMARK    3  A    between atoms: C_6  and  N_7
REMARK    4  A    between atoms: N_10  and  C_11
REMARK    5  A    between atoms: C_12  and  C_13
REMARK                            x       y       z     vdW  Elec       q    Type
REMARK                         _______ _______ _______ _____ _____    ______ ____
ROOT
ATOM      1  N   UNL     1       5.894   6.619  16.473  0.00  0.00    +0.000 N 
ATOM      2  C   UNL     1       7.047   7.033  17.088  0.00  0.00    +0.000 C 
ATOM      3  O   UNL     1       7.942   6.260  17.415  0.00  0.00    +0.000 OA
ATOM      4  N   UNL     1       7.093   8.397  17.301  0.00  0.00    +0.000 N 
ATOM      5  H   UNL     1       5.165   7.278  16.258  0.00  0.00    +0.000 HD
ATOM      6  H   UNL     1       6.309   8.965  17.015  0.00  0.00    +0.000 HD
ENDROOT
BRANCH   4   7
ATOM      7  C   UNL     1       8.179   9.002  17.889  0.00  0.00    +0.000 C 
ATOM      8  C   UNL     1       8.319  10.328  18.027  0.00  0.00    +0.000 C 
BRANCH   8   9
ATOM      9  C   UNL     1       9.508  10.942  18.651  0.00  0.00    +0.000 A 
ATOM     10  C   UNL     1       9.516  11.179  20.032  0.00  0.00    +0.000 A 
ATOM     11  C   UNL     1      10.624  11.767  20.652  0.00  0.00    +0.000 A 
ATOM     12  C   UNL     1      11.745  12.117  19.902  0.00  0.00    +0.000 A 
ATOM     13  C   UNL     1      11.762  11.866  18.533  0.00  0.00    +0.000 A 
ATOM     14  C   UNL     1      10.658  11.274  17.914  0.00  0.00    +0.000 A 
ENDBRANCH   8   9
ENDBRANCH   4   7
BRANCH   1  15
ATOM     15  C   UNL     1       5.649   5.215  16.211  0.00  0.00    +0.000 C 
BRANCH  15  20
ATOM     16  C   UNL     1       0.975   3.151  19.022  0.00  0.00    +0.000 C 
ATOM     17  C   UNL     1       2.190   3.690  18.327  0.00  0.00    +0.000 A 
ATOM     18  C   UNL     1       2.423   5.067  18.244  0.00  0.00    +0.000 A 
ATOM     19  C   UNL     1       3.551   5.557  17.580  0.00  0.00    +0.000 A 
ATOM     20  C   UNL     1       4.472   4.681  16.989  0.00  0.00    +0.000 A 
ATOM     21  C   UNL     1       4.234   3.303  17.070  0.00  0.00    +0.000 A 
ATOM     22  C   UNL     1       3.105   2.813  17.734  0.00  0.00    +0.000 A 
ENDBRANCH  15  20
ENDBRANCH   1  15
TORSDOF 4
ENDMDL
MODEL 4
REMARK VINA RESULT:      -7.8      0.968      1.413
REMARK  Name = 
REMARK  5 active torsions:
REMARK  status: ('A' for Active; 'I' for Inactive)
REMARK    1  A    between atoms: C_1  and  C_2
REMARK    2  A    between atoms: C_5  and  C_6
REMARK    3  A    between atoms: C_6  and  N_7
REMARK    4  A    between atoms: N_10  and  C_11
REMARK    5  A    between atoms: C_12  and  C_13
REMARK                            x       y       z     vdW  Elec       q    Type
REMARK                         _______ _______ _______ _____ _____    ______ ____
ROOT
ATOM      1  N   UNL     1       6.865   6.102  16.912  0.00  0.00    +0.000 N 
ATOM      2  C   UNL     1       7.570   6.861  17.809  0.00  0.00    +0.000 C 
ATOM      3  O   UNL     1       8.062   6.398  18.833  0.00  0.00    +0.000 OA
ATOM      4  N   UNL     1       7.666   8.190  17.443  0.00  0.00    +0.000 N 
ATOM      5  H   UNL     1       6.442   6.526  16.104  0.00  0.00    +0.000 HD
ATOM      6  H   UNL     1       7.222   8.497  16.591  0.00  0.00    +0.000 HD
ENDROOT
BRANCH   4   7
ATOM      7  C   UNL     1       8.352   9.104  18.207  0.00  0.00    +0.000 C 
ATOM      8  C   UNL     1       8.689  10.333  17.791  0.00  0.00    +0.000 C 
BRANCH   8   9
ATOM      9  C   UNL     1       9.441  11.282  18.636  0.00  0.00    +0.000 A 
ATOM     10  C   UNL     1       9.748  12.554  18.136  0.00  0.00    +0.000 A 
ATOM     11  C   UNL     1      10.467  13.473  18.909  0.00  0.00    +0.000 A 
ATOM     12  C   UNL     1      10.878  13.138  20.197  0.00  0.00    +0.000 A 
ATOM     13  C   UNL     1      10.559  11.887  20.717  0.00  0.00    +0.000 A 
ATOM     14  C   UNL     1       9.838  10.971  19.948  0.00  0.00    +0.000 A 
ENDBRANCH   8   9
ENDBRANCH   4   7
BRANCH   1  15
ATOM     15  C   UNL     1       6.622   4.694  17.153  0.00  0.00    +0.000 C 
BRANCH  15  20
ATOM     16  C   UNL     1       1.283   3.924  19.370  0.00  0.00    +0.000 C 
ATOM     17  C   UNL     1       2.667   4.096  18.815  0.00  0.00    +0.000 A 
ATOM     18  C   UNL     1       3.719   4.533  19.625  0.00  0.00    +0.000 A 
ATOM     19  C   UNL     1       5.000   4.705  19.093  0.00  0.00    +0.000 A 
ATOM     20  C   UNL     1       5.256   4.437  17.741  0.00  0.00    +0.000 A 
ATOM     21  C   UNL     1       4.198   4.003  16.931  0.00  0.00    +0.000 A 
ATOM     22  C   UNL     1       2.917   3.833  17.464  0.00  0.00    +0.000 A 
ENDBRANCH  15  20
ENDBRANCH   1  15
TORSDOF 4
ENDMDL
MODEL 5
REMARK VINA RESULT:      -7.7      1.322      1.523
REMARK  Name = 
REMARK  5 active torsions:
REMARK  status: ('A' for Active; 'I' for Inactive)
REMARK    1  A    between atoms: C_1  and  C_2
REMARK    2  A    between atoms: C_5  and  C_6
REMARK    3  A    between atoms: C_6  and  N_7
REMARK    4  A    between atoms: N_10  and  C_11
REMARK    5  A    between atoms: C_12  and  C_13
REMARK                            x       y       z     vdW  Elec       q    Type
REMARK                         _______ _______ _______ _____ _____    ______ ____
ROOT
ATOM      1  N   UNL     1       6.297   4.896  17.092  0.00  0.00    +0.000 N 
ATOM      2  C   UNL     1       6.483   6.245  16.933  0.00  0.00    +0.000 C 
ATOM      3  O   UNL     1       5.789   6.928  16.187  0.00  0.00    +0.000 OA
ATOM      4  N   UNL     1       7.522   6.746  17.692  0.00  0.00    +0.000 N 
ATOM      5  H   UNL     1       6.913   4.361  17.682  0.00  0.00    +0.000 HD
ATOM      6  H   UNL     1       8.055   6.115  18.271  0.00  0.00    +0.000 HD
ENDROOT
BRANCH   4   7
ATOM      7  C   UNL     1       7.849   8.082  17.680  0.00  0.00    +0.000 C 
ATOM      8  C   UNL     1       8.570   8.690  18.632  0.00  0.00    +0.000 C 
BRANCH   8   9
ATOM      9  C   UNL     1       8.887  10.131  18.592  0.00  0.00    +0.000 A 
ATOM     10  C   UNL     1       9.792  10.662  19.521  0.00  0.00    +0.000 A 
ATOM     11  C   UNL     1      10.107  12.026  19.516  0.00  0.00    +0.000 A 
ATOM     12  C   UNL     1       9.531  12.876  18.575  0.00  0.00    +0.000 A 
ATOM     13  C   UNL     1       8.649  12.359  17.630  0.00  0.00    +0.000 A 
ATOM     14  C   UNL     1       8.337  10.997  17.632  0.00  0.00    +0.000 A 
ENDBRANCH   8   9
ENDBRANCH   4   7
BRANCH   1  15
ATOM     15  C   UNL     1       5.281   4.187  16.341  0.00  0.00    +0.000 C 
BRANCH  15  20
ATOM     16  C   UNL     1       0.707   3.002  19.760  0.00  0.00    +0.000 C 
ATOM     17  C   UNL     1       1.869   3.292  18.856  0.00  0.00    +0.000 A 
ATOM     18  C   UNL     1       2.746   2.278  18.462  0.00  0.00    +0.000 A 
ATOM     19  C   UNL     1       3.835   2.563  17.632  0.00  0.00    +0.000 A 
ATOM     20  C   UNL     1       4.065   3.869  17.176  0.00  0.00    +0.000 A 
ATOM     21  C   UNL     1       3.186   4.884  17.576  0.00  0.00    +0.000 A 
ATOM     22  C   UNL     1       2.098   4.598  18.407  0.00  0.00    +0.000 A 
ENDBRANCH  15  20
ENDBRANCH   1  15
TORSDOF 4
ENDMDL
MODEL 6
REMARK VINA RESULT:      -7.6      0.474      1.153
REMARK  Name = 
REMARK  5 active torsions:
REMARK  status: ('A' for Active; 'I' for Inactive)
REMARK    1  A    between atoms: C_1  and  C_2
REMARK    2  A    between atoms: C_5  and  C_6
REMARK    3  A    between atoms: C_6  and  N_7
REMARK    4  A    between atoms: N_10  and  C_11
REMARK    5  A    between atoms: C_12  and  C_13
REMARK                            x       y       z     vdW  Elec       q    Type
REMARK                         _______ _______ _______ _____ _____    ______ ____
ROOT
ATOM      1  N   UNL     1       6.309   5.928  17.342  0.00  0.00    +0.000 N 
ATOM      2  C   UNL     1       7.380   6.635  17.823  0.00  0.00    +0.000 C 
ATOM      3  O   UNL     1       8.194   6.158  18.608  0.00  0.00    +0.000 OA
ATOM      4  N   UNL     1       7.443   7.926  17.339  0.00  0.00    +0.000 N 
ATOM      5  H   UNL     1       5.640   6.365  16.732  0.00  0.00    +0.000 HD
ATOM      6  H   UNL     1       6.726   8.249  16.706  0.00  0.00    +0.000 HD
ENDROOT
BRANCH   4   7
ATOM      7  C   UNL     1       8.458   8.784  17.693  0.00  0.00    +0.000 C 
ATOM      8  C   UNL     1       8.322   9.794  18.564  0.00  0.00    +0.000 C 
BRANCH   8   9
ATOM      9  C   UNL     1       9.432  10.705  18.908  0.00  0.00    +0.000 A 
ATOM     10  C   UNL     1      10.237  11.224  17.885  0.00  0.00    +0.000 A 
ATOM     11  C   UNL     1      11.302  12.083  18.179  0.00  0.00    +0.000 A 
ATOM     12  C   UNL     1      11.571  12.443  19.497  0.00  0.00    +0.000 A 
ATOM     13  C   UNL     1      10.765  11.955  20.522  0.00  0.00    +0.000 A 
ATOM     14  C   UNL     1       9.699  11.101  20.229  0.00  0.00    +0.000 A 
ENDBRANCH   8   9
ENDBRANCH   4   7
BRANCH   1  15
ATOM     15  C   UNL     1       6.055   4.568  17.776  0.00  0.00    +0.000 C 
BRANCH  15  20
ATOM     16  C   UNL     1       0.815   4.083  20.291  0.00  0.00    +0.000 C 
ATOM     17  C   UNL     1       2.157   4.182  19.627  0.00  0.00    +0.000 A 
ATOM     18  C   UNL     1       3.185   3.288  19.942  0.00  0.00    +0.000 A 
ATOM     19  C   UNL     1       4.437   3.401  19.328  0.00  0.00    +0.000 A 
ATOM     20  C   UNL     1       4.682   4.405  18.382  0.00  0.00    +0.000 A 
ATOM     21  C   UNL     1       3.651   5.301  18.071  0.00  0.00    +0.000 A 
ATOM     22  C   UNL     1       2.401   5.189  18.686  0.00  0.00    +0.000 A 
ENDBRANCH  15  20
ENDBRANCH   1  15
TORSDOF 4
ENDMDL
MODEL 7
REMARK VINA RESULT:      -7.6      1.340      1.742
REMARK  Name = 
REMARK  5 active torsions:
REMARK  status: ('A' for Active; 'I' for Inactive)
REMARK    1  A    between atoms: C_1  and  C_2
REMARK    2  A    between atoms: C_5  and  C_6
REMARK    3  A    between atoms: C_6  and  N_7
REMARK    4  A    between atoms: N_10  and  C_11
REMARK    5  A    between atoms: C_12  and  C_13
REMARK                            x       y       z     vdW  Elec       q    Type
REMARK                         _______ _______ _______ _____ _____    ______ ____
ROOT
ATOM      1  N   UNL     1       7.105   5.676  18.457  0.00  0.00    +0.000 N 
ATOM      2  C   UNL     1       7.459   6.841  17.828  0.00  0.00    +0.000 C 
ATOM      3  O   UNL     1       7.153   7.090  16.666  0.00  0.00    +0.000 OA
ATOM      4  N   UNL     1       8.191   7.694  18.631  0.00  0.00    +0.000 N 
ATOM      5  H   UNL     1       7.410   5.489  19.397  0.00  0.00    +0.000 HD
ATOM      6  H   UNL     1       8.415   7.410  19.573  0.00  0.00    +0.000 HD
ENDROOT
BRANCH   4   7
ATOM      7  C   UNL     1       8.621   8.920  18.182  0.00  0.00    +0.000 C 
ATOM      8  C   UNL     1       9.229   9.834  18.951  0.00  0.00    +0.000 C 
BRANCH   8   9
ATOM      9  C   UNL     1       9.663  11.148  18.436  0.00  0.00    +0.000 A 
ATOM     10  C   UNL     1      11.032  11.412  18.292  0.00  0.00    +0.000 A 
ATOM     11  C   UNL     1      11.475  12.651  17.814  0.00  0.00    +0.000 A 
ATOM     12  C   UNL     1      10.558  13.638  17.463  0.00  0.00    +0.000 A 
ATOM     13  C   UNL     1       9.194  13.382  17.577  0.00  0.00    +0.000 A 
ATOM     14  C   UNL     1       8.750  12.144  18.050  0.00  0.00    +0.000 A 
ENDBRANCH   8   9
ENDBRANCH   4   7
BRANCH   1  15
ATOM     15  C   UNL     1       6.373   4.640  17.756  0.00  0.00    +0.000 C 
BRANCH  15  20
ATOM     16  C   UNL     1       1.033   3.828  19.955  0.00  0.00    +0.000 C 
ATOM     17  C   UNL     1       2.394   4.049  19.363  0.00  0.00    +0.000 A 
ATOM     18  C   UNL     1       2.860   3.256  18.311  0.00  0.00    +0.000 A 
ATOM     19  C   UNL     1       4.136   3.461  17.778  0.00  0.00    +0.000 A 
ATOM     20  C   UNL     1       4.970   4.469  18.284  0.00  0.00    +0.000 A 
ATOM     21  C   UNL     1       4.501   5.259  19.341  0.00  0.00    +0.000 A 
ATOM     22  C   UNL     1       3.225   5.053  19.874  0.00  0.00    +0.000 A 
ENDBRANCH  15  20
ENDBRANCH   1  15
TORSDOF 4
ENDMDL
MODEL 8
REMARK VINA RESULT:      -7.6      1.140      1.873
REMARK  Name = 
REMARK  5 active torsions:
REMARK  status: ('A' for Active; 'I' for Inactive)
REMARK    1  A    between atoms: C_1  and  C_2
REMARK    2  A    between atoms: C_5  and  C_6
REMARK    3  A    between atoms: C_6  and  N_7
REMARK    4  A    between atoms: N_10  and  C_11
REMARK    5  A    between atoms: C_12  and  C_13
REMARK                            x       y       z     vdW  Elec       q    Type
REMARK                         _______ _______ _______ _____ _____    ______ ____
ROOT
ATOM      1  N   UNL     1       7.268   6.288  16.696  0.00  0.00    +0.000 N 
ATOM      2  C   UNL     1       7.708   7.131  17.683  0.00  0.00    +0.000 C 
ATOM      3  O   UNL     1       8.063   6.734  18.788  0.00  0.00    +0.000 OA
ATOM      4  N   UNL     1       7.707   8.460  17.307  0.00  0.00    +0.000 N 
ATOM      5  H   UNL     1       6.946   6.655  15.816  0.00  0.00    +0.000 HD
ATOM      6  H   UNL     1       7.386   8.708  16.383  0.00  0.00    +0.000 HD
ENDROOT
BRANCH   4   7
ATOM      7  C   UNL     1       8.133   9.454  18.157  0.00  0.00    +0.000 C 
ATOM      8  C   UNL     1       9.282  10.128  18.012  0.00  0.00    +0.000 C 
BRANCH   8   9
ATOM      9  C   UNL     1       9.713  11.179  18.955  0.00  0.00    +0.000 A 
ATOM     10  C   UNL     1      10.366  12.317  18.465  0.00  0.00    +0.000 A 
ATOM     11  C   UNL     1      10.796  13.327  19.334  0.00  0.00    +0.000 A 
ATOM     12  C   UNL     1      10.567  13.219  20.703  0.00  0.00    +0.000 A 
ATOM     13  C   UNL     1       9.898  12.105  21.203  0.00  0.00    +0.000 A 
ATOM     14  C   UNL     1       9.465  11.099  20.336  0.00  0.00    +0.000 A 
ENDBRANCH   8   9
ENDBRANCH   4   7
BRANCH   1  15
ATOM     15  C   UNL     1       7.157   4.862  16.925  0.00  0.00    +0.000 C 
BRANCH  15  20
ATOM     16  C   UNL     1       1.921   3.089  18.784  0.00  0.00    +0.000 C 
ATOM     17  C   UNL     1       3.255   3.573  18.298  0.00  0.00    +0.000 A 
ATOM     18  C   UNL     1       3.516   3.718  16.932  0.00  0.00    +0.000 A 
ATOM     19  C   UNL     1       4.769   4.154  16.490  0.00  0.00    +0.000 A 
ATOM     20  C   UNL     1       5.784   4.461  17.407  0.00  0.00    +0.000 A 
ATOM     21  C   UNL     1       5.521   4.312  18.774  0.00  0.00    +0.000 A 
ATOM     22  C   UNL     1       4.269   3.874  19.215  0.00  0.00    +0.000 A 
ENDBRANCH  15  20
ENDBRANCH   1  15
TORSDOF 4
ENDMDL
MODEL 9
REMARK VINA RESULT:      -7.5      1.333      2.016
REMARK  Name = 
REMARK  5 active torsions:
REMARK  status: ('A' for Active; 'I' for Inactive)
REMARK    1  A    between atoms: C_1  and  C_2
REMARK    2  A    between atoms: C_5  and  C_6
REMARK    3  A    between atoms: C_6  and  N_7
REMARK    4  A    between atoms: N_10  and  C_11
REMARK    5  A    between atoms: C_12  and  C_13
REMARK                            x       y       z     vdW  Elec       q    Type
REMARK                         _______ _______ _______ _____ _____    ______ ____
ROOT
ATOM      1  N   UNL     1       5.846   4.914  16.946  0.00  0.00    +0.000 N 
ATOM      2  C   UNL     1       6.042   6.269  17.001  0.00  0.00    +0.000 C 
ATOM      3  O   UNL     1       5.146   7.081  16.791  0.00  0.00    +0.000 OA
ATOM      4  N   UNL     1       7.341   6.620  17.313  0.00  0.00    +0.000 N 
ATOM      5  H   UNL     1       6.614   4.280  17.084  0.00  0.00    +0.000 HD
ATOM      6  H   UNL     1       8.024   5.892  17.458  0.00  0.00    +0.000 HD
ENDROOT
BRANCH   4   7
ATOM      7  C   UNL     1       7.727   7.935  17.432  0.00  0.00    +0.000 C 
ATOM      8  C   UNL     1       8.404   8.430  18.478  0.00  0.00    +0.000 C 
BRANCH   8   9
ATOM      9  C   UNL     1       8.787   9.851  18.578  0.00  0.00    +0.000 A 
ATOM     10  C   UNL     1       8.231  10.778  17.686  0.00  0.00    +0.000 A 
ATOM     11  C   UNL     1       8.582  12.132  17.749  0.00  0.00    +0.000 A 
ATOM     12  C   UNL     1       9.483  12.580  18.711  0.00  0.00    +0.000 A 
ATOM     13  C   UNL     1      10.025  11.676  19.620  0.00  0.00    +0.000 A 
ATOM     14  C   UNL     1       9.673  10.325  19.561  0.00  0.00    +0.000 A 
ENDBRANCH   8   9
ENDBRANCH   4   7
BRANCH   1  15
ATOM     15  C   UNL     1       4.556   4.359  16.588  0.00  0.00    +0.000 C 
BRANCH  15  20
ATOM     16  C   UNL     1       1.259   2.883  21.167  0.00  0.00    +0.000 C 
ATOM     17  C   UNL     1       2.105   3.294  19.998  0.00  0.00    +0.000 A 
ATOM     18  C   UNL     1       1.545   3.953  18.899  0.00  0.00    +0.000 A 
ATOM     19  C   UNL     1       2.341   4.316  17.808  0.00  0.00    +0.000 A 
ATOM     20  C   UNL     1       3.714   4.032  17.797  0.00  0.00    +0.000 A 
ATOM     21  C   UNL     1       4.271   3.367  18.898  0.00  0.00    +0.000 A 
ATOM     22  C   UNL     1       3.474   3.004  19.988  0.00  0.00    +0.000 A 
ENDBRANCH  15  20
ENDBRANCH   1  15
TORSDOF 4
ENDMDL
