MODEL 1
REMARK VINA RESULT:      -8.0      0.000      0.000
REMARK  Name = 
REMARK  4 active torsions:
REMARK  status: ('A' for Active; 'I' for Inactive)
REMARK    1  A    between atoms: C_2  and  C_3
REMARK    2  A    between atoms: C_3  and  O_4
REMARK    3  A    between atoms: O_4  and  C_5
REMARK    4  A    between atoms: C_19  and  C_21
REMARK                            x       y       z     vdW  Elec       q    Type
REMARK                         _______ _______ _______ _____ _____    ______ ____
ROOT
ATOM      1  O   UNL     1       0.050   9.688  18.211  0.00  0.00    +0.000 OA
ATOM      2  C   UNL     1       0.302  10.115  19.344  0.00  0.00    +0.000 C 
ATOM      3  N   UNL     1       0.330  11.477  19.612  0.00  0.00    +0.000 N 
ATOM      4  C   UNL     1       0.640  12.105  20.908  0.00  0.00    +0.000 C 
ATOM      5  C   UNL     1       1.798  13.114  20.790  0.00  0.00    +0.000 C 
ATOM      6  N   UNL     1       1.582  14.040  19.669  0.00  0.00    +0.000 N 
ATOM      7  C   UNL     1       1.675  15.410  19.908  0.00  0.00    +0.000 C 
ATOM      8  O   UNL     1       1.998  15.857  21.007  0.00  0.00    +0.000 OA
ATOM      9  C   UNL     1       1.368  13.346  18.388  0.00  0.00    +0.000 C 
ATOM     10  C   UNL     1       0.143  12.425  18.504  0.00  0.00    +0.000 C 
ENDROOT
BRANCH   7  11
ATOM     11  C   UNL     1       1.395  16.403  18.844  0.00  0.00    +0.000 A 
ATOM     12  C   UNL     1       0.157  17.007  18.634  0.00  0.00    +0.000 A 
ATOM     13  C   UNL     1      -0.005  17.899  17.574  0.00  0.00    +0.000 A 
ATOM     14  C   UNL     1       1.101  18.215  16.803  0.00  0.00    +0.000 A 
ATOM     15  N   UNL     1       2.333  17.713  17.026  0.00  0.00    +0.000 NA
ATOM     16  C   UNL     1       2.455  16.824  18.046  0.00  0.00    +0.000 A 
ENDBRANCH   7  11
BRANCH   2  17
ATOM     17  C   UNL     1       0.598   9.131  20.475  0.00  0.00    +0.000 C 
BRANCH  17  18
ATOM     18  O   UNL     1       1.925   8.643  20.306  0.00  0.00    +0.000 OA
BRANCH  18  19
ATOM     19  C   UNL     1       2.061   7.405  19.736  0.00  0.00    +0.000 A 
ATOM     20  C   UNL     1       2.512   7.154  18.444  0.00  0.00    +0.000 A 
ATOM     21  C   UNL     1       2.571   5.841  17.959  0.00  0.00    +0.000 A 
ATOM     22  C   UNL     1       2.182   4.758  18.761  0.00  0.00    +0.000 A 
ATOM     23  C   UNL     1       2.239   3.437  18.288  0.00  0.00    +0.000 A 
ATOM     24  C   UNL     1       1.855   2.370  19.100  0.00  0.00    +0.000 A 
ATOM     25  C   UNL     1       1.410   2.611  20.396  0.00  0.00    +0.000 A 
ATOM     26  C   UNL     1       1.347   3.916  20.882  0.00  0.00    +0.000 A 
ATOM     27  C   UNL     1       1.729   5.007  20.075  0.00  0.00    +0.000 A 
ATOM     28  C   UNL     1       1.675   6.332  20.546  0.00  0.00    +0.000 A 
ENDBRANCH  18  19
ENDBRANCH  17  18
ENDBRANCH   2  17
TORSDOF 4
ENDMDL
MODEL 2
REMARK VINA RESULT:      -7.7      0.650      1.456
REMARK  Name = 
REMARK  4 active torsions:
REMARK  status: ('A' for Active; 'I' for Inactive)
REMARK    1  A    between atoms: C_2  and  C_3
REMARK    2  A    between atoms: C_3  and  O_4
REMARK    3  A    between atoms: O_4  and  C_5
REMARK    4  A    between atoms: C_19  and  C_21
REMARK                            x       y       z     vdW  Elec       q    Type
REMARK                         _______ _______ _______ _____ _____    ______ ____
ROOT
ATOM      1  O   UNL     1       0.096   9.716  18.097  0.00  0.00    +0.000 OA
ATOM      2  C   UNL     1       0.578  10.108  19.166  0.00  0.00    +0.000 C 
ATOM      3  N   UNL     1       0.571  11.453  19.511  0.00  0.00    +0.000 N 
ATOM      4  C   UNL     1       1.135  12.042  20.738  0.00  0.00    +0.000 C 
ATOM      5  C   UNL     1       2.156  13.151  20.421  0.00  0.00    +0.000 C 
ATOM      6  N   UNL     1       1.614  14.108  19.446  0.00  0.00    +0.000 N 
ATOM      7  C   UNL     1       1.663  15.467  19.748  0.00  0.00    +0.000 C 
ATOM      8  O   UNL     1       2.204  15.887  20.769  0.00  0.00    +0.000 OA
ATOM      9  C   UNL     1       1.152  13.460  18.207  0.00  0.00    +0.000 C 
ATOM     10  C   UNL     1       0.059  12.435  18.543  0.00  0.00    +0.000 C 
ENDROOT
BRANCH   7  11
ATOM     11  C   UNL     1       1.068  16.483  18.848  0.00  0.00    +0.000 A 
ATOM     12  C   UNL     1      -0.298  16.739  18.740  0.00  0.00    +0.000 A 
ATOM     13  C   UNL     1      -0.752  17.692  17.828  0.00  0.00    +0.000 A 
ATOM     14  C   UNL     1       0.185  18.412  17.105  0.00  0.00    +0.000 A 
ATOM     15  N   UNL     1       1.517  18.249  17.242  0.00  0.00    +0.000 NA
ATOM     16  C   UNL     1       1.930  17.295  18.116  0.00  0.00    +0.000 A 
ENDBRANCH   7  11
BRANCH   2  17
ATOM     17  C   UNL     1       1.204   9.100  20.128  0.00  0.00    +0.000 C 
BRANCH  17  18
ATOM     18  O   UNL     1       2.110   8.284  19.393  0.00  0.00    +0.000 OA
BRANCH  18  19
ATOM     19  C   UNL     1       2.016   6.931  19.579  0.00  0.00    +0.000 A 
ATOM     20  C   UNL     1       1.673   6.299  20.770  0.00  0.00    +0.000 A 
ATOM     21  C   UNL     1       1.647   4.901  20.846  0.00  0.00    +0.000 A 
ATOM     22  C   UNL     1       1.961   4.111  19.731  0.00  0.00    +0.000 A 
ATOM     23  C   UNL     1       1.937   2.709  19.793  0.00  0.00    +0.000 A 
ATOM     24  C   UNL     1       2.245   1.938  18.672  0.00  0.00    +0.000 A 
ATOM     25  C   UNL     1       2.582   2.561  17.475  0.00  0.00    +0.000 A 
ATOM     26  C   UNL     1       2.611   3.952  17.394  0.00  0.00    +0.000 A 
ATOM     27  C   UNL     1       2.304   4.748  18.517  0.00  0.00    +0.000 A 
ATOM     28  C   UNL     1       2.326   6.153  18.458  0.00  0.00    +0.000 A 
ENDBRANCH  18  19
ENDBRANCH  17  18
ENDBRANCH   2  17
TORSDOF 4
ENDMDL
MODEL 3
REMARK VINA RESULT:      -7.7      3.334      4.046
REMARK  Name = 
REMARK  4 active torsions:
REMARK  status: ('A' for Active; 'I' for Inactive)
REMARK    1  A    between atoms: C_2  and  C_3
REMARK    2  A    between atoms: C_3  and  O_4
REMARK    3  A    between atoms: O_4  and  C_5
REMARK    4  A    between atoms: C_19  and  C_21
REMARK                            x       y       z     vdW  Elec       q    Type
REMARK                         _______ _______ _______ _____ _____    ______ ____
ROOT
ATOM      1  O   UNL     1       2.278  11.119  18.101  0.00  0.00    +0.000 OA
ATOM      2  C   UNL     1       1.483  10.362  18.669  0.00  0.00    +0.000 C 
ATOM      3  N   UNL     1       0.461  10.855  19.468  0.00  0.00    +0.000 N 
ATOM      4  C   UNL     1      -0.528  10.057  20.213  0.00  0.00    +0.000 C 
ATOM      5  C   UNL     1      -0.532  10.408  21.712  0.00  0.00    +0.000 C 
ATOM      6  N   UNL     1      -0.604  11.862  21.916  0.00  0.00    +0.000 N 
ATOM      7  C   UNL     1      -1.582  12.368  22.770  0.00  0.00    +0.000 C 
ATOM      8  O   UNL     1      -2.335  11.632  23.404  0.00  0.00    +0.000 OA
ATOM      9  C   UNL     1       0.468  12.590  21.217  0.00  0.00    +0.000 C 
ATOM     10  C   UNL     1       0.381  12.304  19.710  0.00  0.00    +0.000 C 
ENDROOT
BRANCH   7  11
ATOM     11  C   UNL     1      -1.763  13.826  22.964  0.00  0.00    +0.000 A 
ATOM     12  C   UNL     1      -1.176  14.565  23.990  0.00  0.00    +0.000 A 
ATOM     13  C   UNL     1      -1.449  15.929  24.102  0.00  0.00    +0.000 A 
ATOM     14  C   UNL     1      -2.243  16.524  23.137  0.00  0.00    +0.000 A 
ATOM     15  N   UNL     1      -2.763  15.858  22.084  0.00  0.00    +0.000 NA
ATOM     16  C   UNL     1      -2.505  14.526  22.017  0.00  0.00    +0.000 A 
ENDBRANCH   7  11
BRANCH   2  17
ATOM     17  C   UNL     1       1.627   8.850  18.501  0.00  0.00    +0.000 C 
BRANCH  17  18
ATOM     18  O   UNL     1       2.888   8.586  17.894  0.00  0.00    +0.000 OA
BRANCH  18  19
ATOM     19  C   UNL     1       3.245   7.271  17.755  0.00  0.00    +0.000 A 
ATOM     20  C   UNL     1       4.452   6.810  17.241  0.00  0.00    +0.000 A 
ATOM     21  C   UNL     1       4.685   5.434  17.112  0.00  0.00    +0.000 A 
ATOM     22  C   UNL     1       3.715   4.498  17.499  0.00  0.00    +0.000 A 
ATOM     23  C   UNL     1       3.937   3.118  17.378  0.00  0.00    +0.000 A 
ATOM     24  C   UNL     1       2.964   2.199  17.774  0.00  0.00    +0.000 A 
ATOM     25  C   UNL     1       1.757   2.652  18.296  0.00  0.00    +0.000 A 
ATOM     26  C   UNL     1       1.519   4.019  18.424  0.00  0.00    +0.000 A 
ATOM     27  C   UNL     1       2.490   4.962  18.028  0.00  0.00    +0.000 A 
ATOM     28  C   UNL     1       2.272   6.347  18.149  0.00  0.00    +0.000 A 
ENDBRANCH  18  19
ENDBRANCH  17  18
ENDBRANCH   2  17
TORSDOF 4
ENDMDL
MODEL 4
REMARK VINA RESULT:      -7.7      3.287      4.466
REMARK  Name = 
REMARK  4 active torsions:
REMARK  status: ('A' for Active; 'I' for Inactive)
REMARK    1  A    between atoms: C_2  and  C_3
REMARK    2  A    between atoms: C_3  and  O_4
REMARK    3  A    between atoms: O_4  and  C_5
REMARK    4  A    between atoms: C_19  and  C_21
REMARK                            x       y       z     vdW  Elec       q    Type
REMARK                         _______ _______ _______ _____ _____    ______ ____
ROOT
ATOM      1  O   UNL     1      -0.102   9.545  17.453  0.00  0.00    +0.000 OA
ATOM      2  C   UNL     1       0.673   9.828  18.373  0.00  0.00    +0.000 C 
ATOM      3  N   UNL     1       0.211  10.357  19.570  0.00  0.00    +0.000 N 
ATOM      4  C   UNL     1       1.035  10.756  20.724  0.00  0.00    +0.000 C 
ATOM      5  C   UNL     1       0.781  12.221  21.128  0.00  0.00    +0.000 C 
ATOM      6  N   UNL     1      -0.658  12.495  21.248  0.00  0.00    +0.000 N 
ATOM      7  C   UNL     1      -1.129  13.089  22.417  0.00  0.00    +0.000 C 
ATOM      8  O   UNL     1      -0.369  13.449  23.314  0.00  0.00    +0.000 OA
ATOM      9  C   UNL     1      -1.408  12.157  20.026  0.00  0.00    +0.000 C 
ATOM     10  C   UNL     1      -1.220  10.665  19.708  0.00  0.00    +0.000 C 
ENDROOT
BRANCH   7  11
ATOM     11  C   UNL     1      -2.575  13.325  22.640  0.00  0.00    +0.000 A 
ATOM     12  C   UNL     1      -3.270  14.446  22.190  0.00  0.00    +0.000 A 
ATOM     13  C   UNL     1      -4.625  14.586  22.493  0.00  0.00    +0.000 A 
ATOM     14  C   UNL     1      -5.258  13.559  23.174  0.00  0.00    +0.000 A 
ATOM     15  N   UNL     1      -4.637  12.424  23.555  0.00  0.00    +0.000 NA
ATOM     16  C   UNL     1      -3.312  12.328  23.273  0.00  0.00    +0.000 A 
ENDBRANCH   7  11
BRANCH   2  17
ATOM     17  C   UNL     1       2.174   9.604  18.193  0.00  0.00    +0.000 C 
BRANCH  17  18
ATOM     18  O   UNL     1       2.370   8.299  17.657  0.00  0.00    +0.000 OA
BRANCH  18  19
ATOM     19  C   UNL     1       2.178   7.245  18.510  0.00  0.00    +0.000 A 
ATOM     20  C   UNL     1       2.122   7.326  19.898  0.00  0.00    +0.000 A 
ATOM     21  C   UNL     1       1.959   6.166  20.667  0.00  0.00    +0.000 A 
ATOM     22  C   UNL     1       1.846   4.908  20.060  0.00  0.00    +0.000 A 
ATOM     23  C   UNL     1       1.681   3.739  20.819  0.00  0.00    +0.000 A 
ATOM     24  C   UNL     1       1.563   2.494  20.199  0.00  0.00    +0.000 A 
ATOM     25  C   UNL     1       1.611   2.405  18.811  0.00  0.00    +0.000 A 
ATOM     26  C   UNL     1       1.775   3.555  18.041  0.00  0.00    +0.000 A 
ATOM     27  C   UNL     1       1.897   4.821  18.651  0.00  0.00    +0.000 A 
ATOM     28  C   UNL     1       2.062   5.995  17.893  0.00  0.00    +0.000 A 
ENDBRANCH  18  19
ENDBRANCH  17  18
ENDBRANCH   2  17
TORSDOF 4
ENDMDL
MODEL 5
REMARK VINA RESULT:      -7.6      0.941      1.187
REMARK  Name = 
REMARK  4 active torsions:
REMARK  status: ('A' for Active; 'I' for Inactive)
REMARK    1  A    between atoms: C_2  and  C_3
REMARK    2  A    between atoms: C_3  and  O_4
REMARK    3  A    between atoms: O_4  and  C_5
REMARK    4  A    between atoms: C_19  and  C_21
REMARK                            x       y       z     vdW  Elec       q    Type
REMARK                         _______ _______ _______ _____ _____    ______ ____
ROOT
ATOM      1  O   UNL     1      -0.927   9.961  18.697  0.00  0.00    +0.000 OA
ATOM      2  C   UNL     1      -0.432  10.403  19.740  0.00  0.00    +0.000 C 
ATOM      3  N   UNL     1      -0.273  11.767  19.943  0.00  0.00    +0.000 N 
ATOM      4  C   UNL     1       0.324  12.409  21.126  0.00  0.00    +0.000 C 
ATOM      5  C   UNL     1       1.491  13.338  20.743  0.00  0.00    +0.000 C 
ATOM      6  N   UNL     1       1.110  14.245  19.651  0.00  0.00    +0.000 N 
ATOM      7  C   UNL     1       1.327  15.612  19.812  0.00  0.00    +0.000 C 
ATOM      8  O   UNL     1       1.887  16.068  20.808  0.00  0.00    +0.000 OA
ATOM      9  C   UNL     1       0.607  13.531  18.465  0.00  0.00    +0.000 C 
ATOM     10  C   UNL     1      -0.622  12.695  18.856  0.00  0.00    +0.000 C 
ENDROOT
BRANCH   7  11
ATOM     11  C   UNL     1       0.899  16.592  18.786  0.00  0.00    +0.000 A 
ATOM     12  C   UNL     1       1.755  17.201  17.870  0.00  0.00    +0.000 A 
ATOM     13  C   UNL     1       1.249  18.142  16.973  0.00  0.00    +0.000 A 
ATOM     14  C   UNL     1      -0.114  18.388  16.973  0.00  0.00    +0.000 A 
ATOM     15  N   UNL     1      -0.984  17.759  17.789  0.00  0.00    +0.000 NA
ATOM     16  C   UNL     1      -0.460  16.869  18.672  0.00  0.00    +0.000 A 
ENDBRANCH   7  11
BRANCH   2  17
ATOM     17  C   UNL     1       0.026   9.433  20.829  0.00  0.00    +0.000 C 
BRANCH  17  18
ATOM     18  O   UNL     1       1.416   9.181  20.646  0.00  0.00    +0.000 OA
BRANCH  18  19
ATOM     19  C   UNL     1       1.754   8.035  19.978  0.00  0.00    +0.000 A 
ATOM     20  C   UNL     1       2.266   7.972  18.686  0.00  0.00    +0.000 A 
ATOM     21  C   UNL     1       2.538   6.731  18.094  0.00  0.00    +0.000 A 
ATOM     22  C   UNL     1       2.305   5.534  18.786  0.00  0.00    +0.000 A 
ATOM     23  C   UNL     1       2.576   4.286  18.205  0.00  0.00    +0.000 A 
ATOM     24  C   UNL     1       2.345   3.104  18.910  0.00  0.00    +0.000 A 
ATOM     25  C   UNL     1       1.840   3.158  20.205  0.00  0.00    +0.000 A 
ATOM     26  C   UNL     1       1.566   4.389  20.799  0.00  0.00    +0.000 A 
ATOM     27  C   UNL     1       1.791   5.593  20.101  0.00  0.00    +0.000 A 
ATOM     28  C   UNL     1       1.522   6.847  20.680  0.00  0.00    +0.000 A 
ENDBRANCH  18  19
ENDBRANCH  17  18
ENDBRANCH   2  17
TORSDOF 4
ENDMDL
MODEL 6
REMARK VINA RESULT:      -7.6      3.475      4.373
REMARK  Name = 
REMARK  4 active torsions:
REMARK  status: ('A' for Active; 'I' for Inactive)
REMARK    1  A    between atoms: C_2  and  C_3
REMARK    2  A    between atoms: C_3  and  O_4
REMARK    3  A    between atoms: O_4  and  C_5
REMARK    4  A    between atoms: C_19  and  C_21
REMARK                            x       y       z     vdW  Elec       q    Type
REMARK                         _______ _______ _______ _____ _____    ______ ____
ROOT
ATOM      1  O   UNL     1      -0.520   8.842  22.389  0.00  0.00    +0.000 OA
ATOM      2  C   UNL     1       0.008   9.678  21.648  0.00  0.00    +0.000 C 
ATOM      3  N   UNL     1      -0.202  11.038  21.828  0.00  0.00    +0.000 N 
ATOM      4  C   UNL     1       0.348  12.124  20.999  0.00  0.00    +0.000 C 
ATOM      5  C   UNL     1      -0.762  13.037  20.445  0.00  0.00    +0.000 C 
ATOM      6  N   UNL     1      -1.686  13.454  21.509  0.00  0.00    +0.000 N 
ATOM      7  C   UNL     1      -1.961  14.812  21.659  0.00  0.00    +0.000 C 
ATOM      8  O   UNL     1      -1.508  15.656  20.887  0.00  0.00    +0.000 OA
ATOM      9  C   UNL     1      -2.269  12.315  22.238  0.00  0.00    +0.000 C 
ATOM     10  C   UNL     1      -1.142  11.482  22.869  0.00  0.00    +0.000 C 
ENDROOT
BRANCH   7  11
ATOM     11  C   UNL     1      -2.822  15.312  22.756  0.00  0.00    +0.000 A 
ATOM     12  C   UNL     1      -2.427  15.410  24.089  0.00  0.00    +0.000 A 
ATOM     13  C   UNL     1      -3.335  15.857  25.048  0.00  0.00    +0.000 A 
ATOM     14  C   UNL     1      -4.591  16.262  24.629  0.00  0.00    +0.000 A 
ATOM     15  N   UNL     1      -4.983  16.258  23.338  0.00  0.00    +0.000 NA
ATOM     16  C   UNL     1      -4.088  15.790  22.429  0.00  0.00    +0.000 A 
ENDBRANCH   7  11
BRANCH   2  17
ATOM     17  C   UNL     1       0.905   9.213  20.501  0.00  0.00    +0.000 C 
BRANCH  17  18
ATOM     18  O   UNL     1       1.721   8.147  20.976  0.00  0.00    +0.000 OA
BRANCH  18  19
ATOM     19  C   UNL     1       1.935   7.102  20.118  0.00  0.00    +0.000 A 
ATOM     20  C   UNL     1       2.475   7.201  18.839  0.00  0.00    +0.000 A 
ATOM     21  C   UNL     1       2.610   6.059  18.039  0.00  0.00    +0.000 A 
ATOM     22  C   UNL     1       2.209   4.799  18.506  0.00  0.00    +0.000 A 
ATOM     23  C   UNL     1       2.341   3.648  17.715  0.00  0.00    +0.000 A 
ATOM     24  C   UNL     1       1.944   2.399  18.197  0.00  0.00    +0.000 A 
ATOM     25  C   UNL     1       1.410   2.290  19.477  0.00  0.00    +0.000 A 
ATOM     26  C   UNL     1       1.272   3.423  20.276  0.00  0.00    +0.000 A 
ATOM     27  C   UNL     1       1.666   4.692  19.805  0.00  0.00    +0.000 A 
ATOM     28  C   UNL     1       1.537   5.849  20.596  0.00  0.00    +0.000 A 
ENDBRANCH  18  19
ENDBRANCH  17  18
ENDBRANCH   2  17
TORSDOF 4
ENDMDL
MODEL 7
REMARK VINA RESULT:      -7.6      3.749      4.367
REMARK  Name = 
REMARK  4 active torsions:
REMARK  status: ('A' for Active; 'I' for Inactive)
REMARK    1  A    between atoms: C_2  and  C_3
REMARK    2  A    between atoms: C_3  and  O_4
REMARK    3  A    between atoms: O_4  and  C_5
REMARK    4  A    between atoms: C_19  and  C_21
REMARK                            x       y       z     vdW  Elec       q    Type
REMARK                         _______ _______ _______ _____ _____    ______ ____
ROOT
ATOM      1  O   UNL     1       0.708   9.874  17.558  0.00  0.00    +0.000 OA
ATOM      2  C   UNL     1       0.732   9.551  18.751  0.00  0.00    +0.000 C 
ATOM      3  N   UNL     1      -0.260   9.961  19.631  0.00  0.00    +0.000 N 
ATOM      4  C   UNL     1      -0.327   9.663  21.072  0.00  0.00    +0.000 C 
ATOM      5  C   UNL     1      -0.433  10.947  21.916  0.00  0.00    +0.000 C 
ATOM      6  N   UNL     1      -1.484  11.835  21.400  0.00  0.00    +0.000 N 
ATOM      7  C   UNL     1      -2.448  12.312  22.286  0.00  0.00    +0.000 C 
ATOM      8  O   UNL     1      -2.403  12.065  23.490  0.00  0.00    +0.000 OA
ATOM      9  C   UNL     1      -1.304  12.166  19.977  0.00  0.00    +0.000 C 
ATOM     10  C   UNL     1      -1.309  10.872  19.147  0.00  0.00    +0.000 C 
ENDROOT
BRANCH   7  11
ATOM     11  C   UNL     1      -3.580  13.149  21.824  0.00  0.00    +0.000 A 
ATOM     12  C   UNL     1      -4.800  12.648  21.372  0.00  0.00    +0.000 A 
ATOM     13  C   UNL     1      -5.783  13.529  20.919  0.00  0.00    +0.000 A 
ATOM     14  C   UNL     1      -5.539  14.889  21.005  0.00  0.00    +0.000 A 
ATOM     15  N   UNL     1      -4.404  15.413  21.511  0.00  0.00    +0.000 NA
ATOM     16  C   UNL     1      -3.452  14.532  21.916  0.00  0.00    +0.000 A 
ENDBRANCH   7  11
BRANCH   2  17
ATOM     17  C   UNL     1       1.878   8.688  19.277  0.00  0.00    +0.000 C 
BRANCH  17  18
ATOM     18  O   UNL     1       2.772   8.427  18.200  0.00  0.00    +0.000 OA
BRANCH  18  19
ATOM     19  C   UNL     1       3.114   7.119  17.983  0.00  0.00    +0.000 A 
ATOM     20  C   UNL     1       4.277   6.679  17.358  0.00  0.00    +0.000 A 
ATOM     21  C   UNL     1       4.497   5.309  17.161  0.00  0.00    +0.000 A 
ATOM     22  C   UNL     1       3.559   4.358  17.588  0.00  0.00    +0.000 A 
ATOM     23  C   UNL     1       3.769   2.984  17.398  0.00  0.00    +0.000 A 
ATOM     24  C   UNL     1       2.829   2.049  17.836  0.00  0.00    +0.000 A 
ATOM     25  C   UNL     1       1.668   2.480  18.468  0.00  0.00    +0.000 A 
ATOM     26  C   UNL     1       1.442   3.842  18.666  0.00  0.00    +0.000 A 
ATOM     27  C   UNL     1       2.380   4.800  18.229  0.00  0.00    +0.000 A 
ATOM     28  C   UNL     1       2.174   6.179  18.419  0.00  0.00    +0.000 A 
ENDBRANCH  18  19
ENDBRANCH  17  18
ENDBRANCH   2  17
TORSDOF 4
ENDMDL
MODEL 8
REMARK VINA RESULT:      -7.5      2.986      3.882
REMARK  Name = 
REMARK  4 active torsions:
REMARK  status: ('A' for Active; 'I' for Inactive)
REMARK    1  A    between atoms: C_2  and  C_3
REMARK    2  A    between atoms: C_3  and  O_4
REMARK    3  A    between atoms: O_4  and  C_5
REMARK    4  A    between atoms: C_19  and  C_21
REMARK                            x       y       z     vdW  Elec       q    Type
REMARK                         _______ _______ _______ _____ _____    ______ ____
ROOT
ATOM      1  O   UNL     1       2.661  11.209  17.886  0.00  0.00    +0.000 OA
ATOM      2  C   UNL     1       1.654  10.573  18.218  0.00  0.00    +0.000 C 
ATOM      3  N   UNL     1       0.639  11.162  18.958  0.00  0.00    +0.000 N 
ATOM      4  C   UNL     1      -0.591  10.504  19.432  0.00  0.00    +0.000 C 
ATOM      5  C   UNL     1      -0.756  10.634  20.958  0.00  0.00    +0.000 C 
ATOM      6  N   UNL     1      -0.570  12.025  21.394  0.00  0.00    +0.000 N 
ATOM      7  C   UNL     1      -1.548  12.609  22.197  0.00  0.00    +0.000 C 
ATOM      8  O   UNL     1      -2.521  11.974  22.601  0.00  0.00    +0.000 OA
ATOM      9  C   UNL     1       0.720  12.591  20.964  0.00  0.00    +0.000 C 
ATOM     10  C   UNL     1       0.811  12.544  19.430  0.00  0.00    +0.000 C 
ENDROOT
BRANCH   7  11
ATOM     11  C   UNL     1      -1.465  14.029  22.611  0.00  0.00    +0.000 A 
ATOM     12  C   UNL     1      -1.859  15.107  21.821  0.00  0.00    +0.000 A 
ATOM     13  C   UNL     1      -1.697  16.409  22.296  0.00  0.00    +0.000 A 
ATOM     14  C   UNL     1      -1.213  16.585  23.582  0.00  0.00    +0.000 A 
ATOM     15  N   UNL     1      -0.898  15.565  24.406  0.00  0.00    +0.000 NA
ATOM     16  C   UNL     1      -1.038  14.310  23.906  0.00  0.00    +0.000 A 
ENDBRANCH   7  11
BRANCH   2  17
ATOM     17  C   UNL     1       1.520   9.104  17.815  0.00  0.00    +0.000 C 
BRANCH  17  18
ATOM     18  O   UNL     1       2.601   8.382  18.396  0.00  0.00    +0.000 OA
BRANCH  18  19
ATOM     19  C   UNL     1       2.309   7.156  18.931  0.00  0.00    +0.000 A 
ATOM     20  C   UNL     1       1.945   6.915  20.252  0.00  0.00    +0.000 A 
ATOM     21  C   UNL     1       1.707   5.606  20.691  0.00  0.00    +0.000 A 
ATOM     22  C   UNL     1       1.826   4.518  19.815  0.00  0.00    +0.000 A 
ATOM     23  C   UNL     1       1.588   3.202  20.242  0.00  0.00    +0.000 A 
ATOM     24  C   UNL     1       1.704   2.130  19.355  0.00  0.00    +0.000 A 
ATOM     25  C   UNL     1       2.059   2.363  18.031  0.00  0.00    +0.000 A 
ATOM     26  C   UNL     1       2.300   3.663  17.589  0.00  0.00    +0.000 A 
ATOM     27  C   UNL     1       2.189   4.758  18.471  0.00  0.00    +0.000 A 
ATOM     28  C   UNL     1       2.426   6.078  18.046  0.00  0.00    +0.000 A 
ENDBRANCH  18  19
ENDBRANCH  17  18
ENDBRANCH   2  17
TORSDOF 4
ENDMDL
MODEL 9
REMARK VINA RESULT:      -7.5      3.478      4.341
REMARK  Name = 
REMARK  4 active torsions:
REMARK  status: ('A' for Active; 'I' for Inactive)
REMARK    1  A    between atoms: C_2  and  C_3
REMARK    2  A    between atoms: C_3  and  O_4
REMARK    3  A    between atoms: O_4  and  C_5
REMARK    4  A    between atoms: C_19  and  C_21
REMARK                            x       y       z     vdW  Elec       q    Type
REMARK                         _______ _______ _______ _____ _____    ______ ____
ROOT
ATOM      1  O   UNL     1       1.630   8.532  20.757  0.00  0.00    +0.000 OA
ATOM      2  C   UNL     1       1.218   9.279  19.863  0.00  0.00    +0.000 C 
ATOM      3  N   UNL     1       0.705  10.536  20.150  0.00  0.00    +0.000 N 
ATOM      4  C   UNL     1       0.163  11.501  19.178  0.00  0.00    +0.000 C 
ATOM      5  C   UNL     1      -1.273  11.926  19.536  0.00  0.00    +0.000 C 
ATOM      6  N   UNL     1      -1.373  12.321  20.949  0.00  0.00    +0.000 N 
ATOM      7  C   UNL     1      -1.949  13.552  21.258  0.00  0.00    +0.000 C 
ATOM      8  O   UNL     1      -2.434  14.278  20.392  0.00  0.00    +0.000 OA
ATOM      9  C   UNL     1      -0.898  11.274  21.869  0.00  0.00    +0.000 C 
ATOM     10  C   UNL     1       0.570  10.946  21.556  0.00  0.00    +0.000 C 
ENDROOT
BRANCH   7  11
ATOM     11  C   UNL     1      -2.014  14.049  22.653  0.00  0.00    +0.000 A 
ATOM     12  C   UNL     1      -3.128  13.933  23.482  0.00  0.00    +0.000 A 
ATOM     13  C   UNL     1      -3.093  14.475  24.766  0.00  0.00    +0.000 A 
ATOM     14  C   UNL     1      -1.913  15.052  25.207  0.00  0.00    +0.000 A 
ATOM     15  N   UNL     1      -0.790  15.110  24.463  0.00  0.00    +0.000 NA
ATOM     16  C   UNL     1      -0.862  14.601  23.206  0.00  0.00    +0.000 A 
ENDBRANCH   7  11
BRANCH   2  17
ATOM     17  C   UNL     1       1.263   8.812  18.408  0.00  0.00    +0.000 C 
BRANCH  17  18
ATOM     18  O   UNL     1       2.627   8.644  18.035  0.00  0.00    +0.000 OA
BRANCH  18  19
ATOM     19  C   UNL     1       3.068   7.358  17.866  0.00  0.00    +0.000 A 
ATOM     20  C   UNL     1       4.326   6.987  17.402  0.00  0.00    +0.000 A 
ATOM     21  C   UNL     1       4.646   5.633  17.235  0.00  0.00    +0.000 A 
ATOM     22  C   UNL     1       3.714   4.629  17.534  0.00  0.00    +0.000 A 
ATOM     23  C   UNL     1       4.023   3.269  17.373  0.00  0.00    +0.000 A 
ATOM     24  C   UNL     1       3.087   2.281  17.681  0.00  0.00    +0.000 A 
ATOM     25  C   UNL     1       1.829   2.643  18.153  0.00  0.00    +0.000 A 
ATOM     26  C   UNL     1       1.504   3.988  18.319  0.00  0.00    +0.000 A 
ATOM     27  C   UNL     1       2.437   5.000  18.011  0.00  0.00    +0.000 A 
ATOM     28  C   UNL     1       2.131   6.364  18.172  0.00  0.00    +0.000 A 
ENDBRANCH  18  19
ENDBRANCH  17  18
ENDBRANCH   2  17
TORSDOF 4
ENDMDL
