MODEL 1
REMARK VINA RESULT:      -8.1      0.000      0.000
REMARK  Name = 
REMARK  4 active torsions:
REMARK  status: ('A' for Active; 'I' for Inactive)
REMARK    1  A    between atoms: C_1  and  C_2
REMARK    2  A    between atoms: C_6  and  C_7
REMARK    3  A    between atoms: C_7  and  S_8
REMARK    4  A    between atoms: S_8  and  C_9
REMARK                            x       y       z     vdW  Elec       q    Type
REMARK                         _______ _______ _______ _____ _____    ______ ____
ROOT
ATOM      1  C   UNL     1       2.529   7.794  18.480  0.00  0.00    +0.000 A 
ATOM      2  N   UNL     1       2.055   8.826  17.823  0.00  0.00    +0.000 NA
ATOM      3  N   UNL     1       1.225   9.704  18.461  0.00  0.00    +0.000 N 
ATOM      4  C   UNL     1       0.895   9.549  19.762  0.00  0.00    +0.000 A 
ATOM      5  C   UNL     1       0.167  10.177  20.674  0.00  0.00    +0.000 A 
ATOM      6  C   UNL     1      -0.647  11.355  20.686  0.00  0.00    +0.000 A 
ATOM      7  C   UNL     1      -1.268  11.692  21.825  0.00  0.00    +0.000 A 
ATOM      8  C   UNL     1      -1.130  10.897  23.033  0.00  0.00    +0.000 A 
ATOM      9  C   UNL     1      -0.379   9.779  23.086  0.00  0.00    +0.000 A 
ATOM     10  C   UNL     1       0.340   9.336  21.868  0.00  0.00    +0.000 A 
ATOM     11  N   UNL     1       1.096   8.300  21.714  0.00  0.00    +0.000 NA
ATOM     12  C   UNL     1       1.498   8.357  20.397  0.00  0.00    +0.000 A 
ATOM     13  N   UNL     1       2.262   7.499  19.805  0.00  0.00    +0.000 NA
ATOM     14  H   UNL     1       0.873  10.512  17.954  0.00  0.00    +0.000 HD
ENDROOT
BRANCH   1  15
ATOM     15  S   UNL     1       3.661   6.816  17.533  0.00  0.00    +0.000 S 
BRANCH  15  16
ATOM     16  C   UNL     1       4.339   5.608  18.692  0.00  0.00    +0.000 C 
BRANCH  16  22
ATOM     17  C   UNL     1       1.462   2.563  21.564  0.00  0.00    +0.000 C 
ATOM     18  C   UNL     1       2.031   2.906  20.217  0.00  0.00    +0.000 A 
ATOM     19  C   UNL     1       1.746   2.124  19.095  0.00  0.00    +0.000 A 
ATOM     20  C   UNL     1       2.295   2.456  17.857  0.00  0.00    +0.000 A 
ATOM     21  C   UNL     1       3.132   3.574  17.729  0.00  0.00    +0.000 A 
ATOM     22  C   UNL     1       3.428   4.386  18.835  0.00  0.00    +0.000 A 
ATOM     23  C   UNL     1       2.873   4.031  20.078  0.00  0.00    +0.000 A 
ENDBRANCH  16  22
ENDBRANCH  15  16
ENDBRANCH   1  15
TORSDOF 3
ENDMDL
MODEL 2
REMARK VINA RESULT:      -7.9      2.644      4.880
REMARK  Name = 
REMARK  4 active torsions:
REMARK  status: ('A' for Active; 'I' for Inactive)
REMARK    1  A    between atoms: C_1  and  C_2
REMARK    2  A    between atoms: C_6  and  C_7
REMARK    3  A    between atoms: C_7  and  S_8
REMARK    4  A    between atoms: S_8  and  C_9
REMARK                            x       y       z     vdW  Elec       q    Type
REMARK                         _______ _______ _______ _____ _____    ______ ____
ROOT
ATOM      1  C   UNL     1       3.775   5.247  17.919  0.00  0.00    +0.000 A 
ATOM      2  N   UNL     1       3.610   4.900  19.174  0.00  0.00    +0.000 NA
ATOM      3  N   UNL     1       2.967   5.752  20.027  0.00  0.00    +0.000 N 
ATOM      4  C   UNL     1       2.476   6.938  19.607  0.00  0.00    +0.000 A 
ATOM      5  C   UNL     1       1.813   7.966  20.119  0.00  0.00    +0.000 A 
ATOM      6  C   UNL     1       1.306   8.301  21.415  0.00  0.00    +0.000 A 
ATOM      7  C   UNL     1       0.677   9.473  21.573  0.00  0.00    +0.000 A 
ATOM      8  C   UNL     1       0.501  10.398  20.467  0.00  0.00    +0.000 A 
ATOM      9  C   UNL     1       0.955  10.142  19.224  0.00  0.00    +0.000 A 
ATOM     10  C   UNL     1       1.663   8.866  18.966  0.00  0.00    +0.000 A 
ATOM     11  N   UNL     1       2.174   8.441  17.858  0.00  0.00    +0.000 NA
ATOM     12  C   UNL     1       2.714   7.213  18.174  0.00  0.00    +0.000 A 
ATOM     13  N   UNL     1       3.344   6.436  17.356  0.00  0.00    +0.000 NA
ATOM     14  H   UNL     1       2.826   5.472  20.995  0.00  0.00    +0.000 HD
ENDROOT
BRANCH   1  15
ATOM     15  S   UNL     1       4.539   3.989  16.935  0.00  0.00    +0.000 S 
BRANCH  15  16
ATOM     16  C   UNL     1       5.957   4.788  16.151  0.00  0.00    +0.000 C 
BRANCH  16  22
ATOM     17  C   UNL     1       8.021   9.157  17.715  0.00  0.00    +0.000 C 
ATOM     18  C   UNL     1       7.797   7.687  17.928  0.00  0.00    +0.000 A 
ATOM     19  C   UNL     1       8.346   7.028  19.032  0.00  0.00    +0.000 A 
ATOM     20  C   UNL     1       8.133   5.661  19.203  0.00  0.00    +0.000 A 
ATOM     21  C   UNL     1       7.368   4.941  18.275  0.00  0.00    +0.000 A 
ATOM     22  C   UNL     1       6.794   5.576  17.162  0.00  0.00    +0.000 A 
ATOM     23  C   UNL     1       7.026   6.954  17.000  0.00  0.00    +0.000 A 
ENDBRANCH  16  22
ENDBRANCH  15  16
ENDBRANCH   1  15
TORSDOF 3
ENDMDL
MODEL 3
REMARK VINA RESULT:      -7.8      4.204      8.569
REMARK  Name = 
REMARK  4 active torsions:
REMARK  status: ('A' for Active; 'I' for Inactive)
REMARK    1  A    between atoms: C_1  and  C_2
REMARK    2  A    between atoms: C_6  and  C_7
REMARK    3  A    between atoms: C_7  and  S_8
REMARK    4  A    between atoms: S_8  and  C_9
REMARK                            x       y       z     vdW  Elec       q    Type
REMARK                         _______ _______ _______ _____ _____    ______ ____
ROOT
ATOM      1  C   UNL     1       5.024   5.032  17.892  0.00  0.00    +0.000 A 
ATOM      2  N   UNL     1       4.223   4.149  17.345  0.00  0.00    +0.000 NA
ATOM      3  N   UNL     1       4.428   3.769  16.049  0.00  0.00    +0.000 N 
ATOM      4  C   UNL     1       5.452   4.264  15.319  0.00  0.00    +0.000 A 
ATOM      5  C   UNL     1       5.949   4.123  14.098  0.00  0.00    +0.000 A 
ATOM      6  C   UNL     1       5.597   3.352  12.944  0.00  0.00    +0.000 A 
ATOM      7  C   UNL     1       6.346   3.476  11.840  0.00  0.00    +0.000 A 
ATOM      8  C   UNL     1       7.494   4.366  11.793  0.00  0.00    +0.000 A 
ATOM      9  C   UNL     1       7.875   5.117  12.844  0.00  0.00    +0.000 A 
ATOM     10  C   UNL     1       7.099   5.039  14.104  0.00  0.00    +0.000 A 
ATOM     11  N   UNL     1       7.296   5.676  15.211  0.00  0.00    +0.000 NA
ATOM     12  C   UNL     1       6.290   5.241  16.046  0.00  0.00    +0.000 A 
ATOM     13  N   UNL     1       6.098   5.636  17.261  0.00  0.00    +0.000 NA
ATOM     14  H   UNL     1       3.815   3.071  15.633  0.00  0.00    +0.000 HD
ENDROOT
BRANCH   1  15
ATOM     15  S   UNL     1       4.675   5.337  19.601  0.00  0.00    +0.000 S 
BRANCH  15  16
ATOM     16  C   UNL     1       2.873   5.406  19.718  0.00  0.00    +0.000 C 
BRANCH  16  22
ATOM     17  C   UNL     1       0.585   9.659  21.288  0.00  0.00    +0.000 C 
ATOM     18  C   UNL     1       1.233   8.876  20.183  0.00  0.00    +0.000 A 
ATOM     19  C   UNL     1       1.352   9.410  18.897  0.00  0.00    +0.000 A 
ATOM     20  C   UNL     1       1.949   8.660  17.884  0.00  0.00    +0.000 A 
ATOM     21  C   UNL     1       2.434   7.372  18.148  0.00  0.00    +0.000 A 
ATOM     22  C   UNL     1       2.340   6.812  19.432  0.00  0.00    +0.000 A 
ATOM     23  C   UNL     1       1.727   7.579  20.439  0.00  0.00    +0.000 A 
ENDBRANCH  16  22
ENDBRANCH  15  16
ENDBRANCH   1  15
TORSDOF 3
ENDMDL
MODEL 4
REMARK VINA RESULT:      -7.8      3.766      5.473
REMARK  Name = 
REMARK  4 active torsions:
REMARK  status: ('A' for Active; 'I' for Inactive)
REMARK    1  A    between atoms: C_1  and  C_2
REMARK    2  A    between atoms: C_6  and  C_7
REMARK    3  A    between atoms: C_7  and  S_8
REMARK    4  A    between atoms: S_8  and  C_9
REMARK                            x       y       z     vdW  Elec       q    Type
REMARK                         _______ _______ _______ _____ _____    ______ ____
ROOT
ATOM      1  C   UNL     1       4.300   5.165  17.807  0.00  0.00    +0.000 A 
ATOM      2  N   UNL     1       4.038   4.761  19.029  0.00  0.00    +0.000 NA
ATOM      3  N   UNL     1       3.268   5.542  19.843  0.00  0.00    +0.000 N 
ATOM      4  C   UNL     1       2.748   6.714  19.417  0.00  0.00    +0.000 A 
ATOM      5  C   UNL     1       1.980   7.682  19.895  0.00  0.00    +0.000 A 
ATOM      6  C   UNL     1       1.335   7.938  21.147  0.00  0.00    +0.000 A 
ATOM      7  C   UNL     1       0.625   9.066  21.282  0.00  0.00    +0.000 A 
ATOM      8  C   UNL     1       0.497  10.021  20.195  0.00  0.00    +0.000 A 
ATOM      9  C   UNL     1       1.080   9.838  18.994  0.00  0.00    +0.000 A 
ATOM     10  C   UNL     1       1.885   8.615  18.763  0.00  0.00    +0.000 A 
ATOM     11  N   UNL     1       2.522   8.262  17.696  0.00  0.00    +0.000 NA
ATOM     12  C   UNL     1       3.103   7.056  18.022  0.00  0.00    +0.000 A 
ATOM     13  N   UNL     1       3.852   6.347  17.244  0.00  0.00    +0.000 NA
ATOM     14  H   UNL     1       3.055   5.218  20.783  0.00  0.00    +0.000 HD
ENDROOT
BRANCH   1  15
ATOM     15  S   UNL     1       5.226   3.990  16.861  0.00  0.00    +0.000 S 
BRANCH  15  16
ATOM     16  C   UNL     1       6.647   4.904  16.220  0.00  0.00    +0.000 C 
BRANCH  16  22
ATOM     17  C   UNL     1       5.313   2.596  11.897  0.00  0.00    +0.000 C 
ATOM     18  C   UNL     1       6.168   3.604  12.610  0.00  0.00    +0.000 A 
ATOM     19  C   UNL     1       7.112   4.367  11.916  0.00  0.00    +0.000 A 
ATOM     20  C   UNL     1       7.901   5.289  12.602  0.00  0.00    +0.000 A 
ATOM     21  C   UNL     1       7.754   5.458  13.986  0.00  0.00    +0.000 A 
ATOM     22  C   UNL     1       6.808   4.715  14.709  0.00  0.00    +0.000 A 
ATOM     23  C   UNL     1       6.026   3.783  14.003  0.00  0.00    +0.000 A 
ENDBRANCH  16  22
ENDBRANCH  15  16
ENDBRANCH   1  15
TORSDOF 3
ENDMDL
MODEL 5
REMARK VINA RESULT:      -7.8      4.801      8.220
REMARK  Name = 
REMARK  4 active torsions:
REMARK  status: ('A' for Active; 'I' for Inactive)
REMARK    1  A    between atoms: C_1  and  C_2
REMARK    2  A    between atoms: C_6  and  C_7
REMARK    3  A    between atoms: C_7  and  S_8
REMARK    4  A    between atoms: S_8  and  C_9
REMARK                            x       y       z     vdW  Elec       q    Type
REMARK                         _______ _______ _______ _____ _____    ______ ____
ROOT
ATOM      1  C   UNL     1       6.023   5.158  17.781  0.00  0.00    +0.000 A 
ATOM      2  N   UNL     1       6.941   6.021  17.412  0.00  0.00    +0.000 NA
ATOM      3  N   UNL     1       7.386   6.017  16.121  0.00  0.00    +0.000 N 
ATOM      4  C   UNL     1       6.889   5.159  15.203  0.00  0.00    +0.000 A 
ATOM      5  C   UNL     1       7.057   4.888  13.916  0.00  0.00    +0.000 A 
ATOM      6  C   UNL     1       7.893   5.402  12.873  0.00  0.00    +0.000 A 
ATOM      7  C   UNL     1       7.800   4.857  11.653  0.00  0.00    +0.000 A 
ATOM      8  C   UNL     1       6.878   3.770  11.371  0.00  0.00    +0.000 A 
ATOM      9  C   UNL     1       6.066   3.243  12.308  0.00  0.00    +0.000 A 
ATOM     10  C   UNL     1       6.108   3.789  13.686  0.00  0.00    +0.000 A 
ATOM     11  N   UNL     1       5.423   3.420  14.717  0.00  0.00    +0.000 NA
ATOM     12  C   UNL     1       5.855   4.244  15.733  0.00  0.00    +0.000 A 
ATOM     13  N   UNL     1       5.440   4.211  16.957  0.00  0.00    +0.000 NA
ATOM     14  H   UNL     1       8.085   6.698  15.835  0.00  0.00    +0.000 HD
ENDROOT
BRANCH   1  15
ATOM     15  S   UNL     1       5.494   5.366  19.457  0.00  0.00    +0.000 S 
BRANCH  15  16
ATOM     16  C   UNL     1       3.807   6.006  19.353  0.00  0.00    +0.000 C 
BRANCH  16  22
ATOM     17  C   UNL     1       1.300   2.435  21.952  0.00  0.00    +0.000 C 
ATOM     18  C   UNL     1       1.550   3.150  20.655  0.00  0.00    +0.000 A 
ATOM     19  C   UNL     1       0.853   2.801  19.495  0.00  0.00    +0.000 A 
ATOM     20  C   UNL     1       1.109   3.472  18.301  0.00  0.00    +0.000 A 
ATOM     21  C   UNL     1       2.061   4.500  18.255  0.00  0.00    +0.000 A 
ATOM     22  C   UNL     1       2.770   4.882  19.405  0.00  0.00    +0.000 A 
ATOM     23  C   UNL     1       2.505   4.188  20.600  0.00  0.00    +0.000 A 
ENDBRANCH  16  22
ENDBRANCH  15  16
ENDBRANCH   1  15
TORSDOF 3
ENDMDL
MODEL 6
REMARK VINA RESULT:      -7.8      5.747      9.045
REMARK  Name = 
REMARK  4 active torsions:
REMARK  status: ('A' for Active; 'I' for Inactive)
REMARK    1  A    between atoms: C_1  and  C_2
REMARK    2  A    between atoms: C_6  and  C_7
REMARK    3  A    between atoms: C_7  and  S_8
REMARK    4  A    between atoms: S_8  and  C_9
REMARK                            x       y       z     vdW  Elec       q    Type
REMARK                         _______ _______ _______ _____ _____    ______ ____
ROOT
ATOM      1  C   UNL     1       6.966   7.260  17.485  0.00  0.00    +0.000 A 
ATOM      2  N   UNL     1       6.085   7.233  16.513  0.00  0.00    +0.000 NA
ATOM      3  N   UNL     1       5.143   6.245  16.487  0.00  0.00    +0.000 N 
ATOM      4  C   UNL     1       5.079   5.302  17.452  0.00  0.00    +0.000 A 
ATOM      5  C   UNL     1       4.330   4.250  17.754  0.00  0.00    +0.000 A 
ATOM      6  C   UNL     1       3.203   3.603  17.153  0.00  0.00    +0.000 A 
ATOM      7  C   UNL     1       2.696   2.517  17.750  0.00  0.00    +0.000 A 
ATOM      8  C   UNL     1       3.260   1.990  18.981  0.00  0.00    +0.000 A 
ATOM      9  C   UNL     1       4.319   2.552  19.595  0.00  0.00    +0.000 A 
ATOM     10  C   UNL     1       4.940   3.758  18.998  0.00  0.00    +0.000 A 
ATOM     11  N   UNL     1       5.956   4.434  19.424  0.00  0.00    +0.000 NA
ATOM     12  C   UNL     1       6.115   5.442  18.498  0.00  0.00    +0.000 A 
ATOM     13  N   UNL     1       7.033   6.351  18.527  0.00  0.00    +0.000 NA
ATOM     14  H   UNL     1       4.452   6.237  15.741  0.00  0.00    +0.000 HD
ENDROOT
BRANCH   1  15
ATOM     15  S   UNL     1       8.048   8.659  17.417  0.00  0.00    +0.000 S 
BRANCH  15  16
ATOM     16  C   UNL     1       8.650   8.884  19.106  0.00  0.00    +0.000 C 
BRANCH  16  22
ATOM     17  C   UNL     1      10.992  12.928  17.117  0.00  0.00    +0.000 C 
ATOM     18  C   UNL     1      10.490  12.194  18.328  0.00  0.00    +0.000 A 
ATOM     19  C   UNL     1      10.664  12.720  19.611  0.00  0.00    +0.000 A 
ATOM     20  C   UNL     1      10.199  12.015  20.720  0.00  0.00    +0.000 A 
ATOM     21  C   UNL     1       9.555  10.780  20.558  0.00  0.00    +0.000 A 
ATOM     22  C   UNL     1       9.356  10.231  19.281  0.00  0.00    +0.000 A 
ATOM     23  C   UNL     1       9.838  10.951  18.174  0.00  0.00    +0.000 A 
ENDBRANCH  16  22
ENDBRANCH  15  16
ENDBRANCH   1  15
TORSDOF 3
ENDMDL
MODEL 7
REMARK VINA RESULT:      -7.7      2.339      4.411
REMARK  Name = 
REMARK  4 active torsions:
REMARK  status: ('A' for Active; 'I' for Inactive)
REMARK    1  A    between atoms: C_1  and  C_2
REMARK    2  A    between atoms: C_6  and  C_7
REMARK    3  A    between atoms: C_7  and  S_8
REMARK    4  A    between atoms: S_8  and  C_9
REMARK                            x       y       z     vdW  Elec       q    Type
REMARK                         _______ _______ _______ _____ _____    ______ ____
ROOT
ATOM      1  C   UNL     1       2.846   6.143  18.686  0.00  0.00    +0.000 A 
ATOM      2  N   UNL     1       2.572   5.752  19.909  0.00  0.00    +0.000 NA
ATOM      3  N   UNL     1       1.935   6.609  20.761  0.00  0.00    +0.000 N 
ATOM      4  C   UNL     1       1.558   7.846  20.371  0.00  0.00    +0.000 A 
ATOM      5  C   UNL     1       0.937   8.895  20.890  0.00  0.00    +0.000 A 
ATOM      6  C   UNL     1       0.369   9.206  22.167  0.00  0.00    +0.000 A 
ATOM      7  C   UNL     1      -0.185  10.414  22.344  0.00  0.00    +0.000 A 
ATOM      8  C   UNL     1      -0.222  11.399  21.277  0.00  0.00    +0.000 A 
ATOM      9  C   UNL     1       0.295  11.167  20.054  0.00  0.00    +0.000 A 
ATOM     10  C   UNL     1       0.927   9.855  19.777  0.00  0.00    +0.000 A 
ATOM     11  N   UNL     1       1.480   9.445  18.684  0.00  0.00    +0.000 NA
ATOM     12  C   UNL     1       1.911   8.168  18.971  0.00  0.00    +0.000 A 
ATOM     13  N   UNL     1       2.537   7.384  18.157  0.00  0.00    +0.000 NA
ATOM     14  H   UNL     1       1.711   6.296  21.702  0.00  0.00    +0.000 HD
ENDROOT
BRANCH   1  15
ATOM     15  S   UNL     1       3.583   4.878  17.690  0.00  0.00    +0.000 S 
BRANCH  15  16
ATOM     16  C   UNL     1       4.771   5.733  16.630  0.00  0.00    +0.000 C 
BRANCH  16  22
ATOM     17  C   UNL     1       8.270   9.201  17.863  0.00  0.00    +0.000 C 
ATOM     18  C   UNL     1       7.730   7.807  18.005  0.00  0.00    +0.000 A 
ATOM     19  C   UNL     1       8.365   6.869  18.824  0.00  0.00    +0.000 A 
ATOM     20  C   UNL     1       7.851   5.578  18.931  0.00  0.00    +0.000 A 
ATOM     21  C   UNL     1       6.698   5.212  18.223  0.00  0.00    +0.000 A 
ATOM     22  C   UNL     1       6.031   6.134  17.400  0.00  0.00    +0.000 A 
ATOM     23  C   UNL     1       6.568   7.430  17.297  0.00  0.00    +0.000 A 
ENDBRANCH  16  22
ENDBRANCH  15  16
ENDBRANCH   1  15
TORSDOF 3
ENDMDL
MODEL 8
REMARK VINA RESULT:      -7.7      5.057      8.369
REMARK  Name = 
REMARK  4 active torsions:
REMARK  status: ('A' for Active; 'I' for Inactive)
REMARK    1  A    between atoms: C_1  and  C_2
REMARK    2  A    between atoms: C_6  and  C_7
REMARK    3  A    between atoms: C_7  and  S_8
REMARK    4  A    between atoms: S_8  and  C_9
REMARK                            x       y       z     vdW  Elec       q    Type
REMARK                         _______ _______ _______ _____ _____    ______ ____
ROOT
ATOM      1  C   UNL     1       6.684   6.224  18.294  0.00  0.00    +0.000 A 
ATOM      2  N   UNL     1       5.743   6.809  17.590  0.00  0.00    +0.000 NA
ATOM      3  N   UNL     1       4.509   6.230  17.507  0.00  0.00    +0.000 N 
ATOM      4  C   UNL     1       4.222   5.077  18.151  0.00  0.00    +0.000 A 
ATOM      5  C   UNL     1       3.183   4.270  18.308  0.00  0.00    +0.000 A 
ATOM      6  C   UNL     1       1.833   4.251  17.831  0.00  0.00    +0.000 A 
ATOM      7  C   UNL     1       1.040   3.235  18.197  0.00  0.00    +0.000 A 
ATOM      8  C   UNL     1       1.517   2.166  19.058  0.00  0.00    +0.000 A 
ATOM      9  C   UNL     1       2.775   2.127  19.539  0.00  0.00    +0.000 A 
ATOM     10  C   UNL     1       3.717   3.213  19.181  0.00  0.00    +0.000 A 
ATOM     11  N   UNL     1       4.953   3.353  19.530  0.00  0.00    +0.000 NA
ATOM     12  C   UNL     1       5.357   4.520  18.918  0.00  0.00    +0.000 A 
ATOM     13  N   UNL     1       6.540   5.035  18.988  0.00  0.00    +0.000 NA
ATOM     14  H   UNL     1       3.778   6.695  16.974  0.00  0.00    +0.000 HD
ENDROOT
BRANCH   1  15
ATOM     15  S   UNL     1       8.187   7.156  18.374  0.00  0.00    +0.000 S 
BRANCH  15  16
ATOM     16  C   UNL     1       7.808   8.745  17.600  0.00  0.00    +0.000 C 
BRANCH  16  22
ATOM     17  C   UNL     1       9.318  13.593  17.687  0.00  0.00    +0.000 C 
ATOM     18  C   UNL     1       9.259  12.249  18.354  0.00  0.00    +0.000 A 
ATOM     19  C   UNL     1       9.853  12.037  19.601  0.00  0.00    +0.000 A 
ATOM     20  C   UNL     1       9.793  10.777  20.195  0.00  0.00    +0.000 A 
ATOM     21  C   UNL     1       9.139   9.718  19.550  0.00  0.00    +0.000 A 
ATOM     22  C   UNL     1       8.524   9.902  18.301  0.00  0.00    +0.000 A 
ATOM     23  C   UNL     1       8.601  11.177  17.712  0.00  0.00    +0.000 A 
ENDBRANCH  16  22
ENDBRANCH  15  16
ENDBRANCH   1  15
TORSDOF 3
ENDMDL
MODEL 9
REMARK VINA RESULT:      -7.6      4.233      8.624
REMARK  Name = 
REMARK  4 active torsions:
REMARK  status: ('A' for Active; 'I' for Inactive)
REMARK    1  A    between atoms: C_1  and  C_2
REMARK    2  A    between atoms: C_6  and  C_7
REMARK    3  A    between atoms: C_7  and  S_8
REMARK    4  A    between atoms: S_8  and  C_9
REMARK                            x       y       z     vdW  Elec       q    Type
REMARK                         _______ _______ _______ _____ _____    ______ ____
ROOT
ATOM      1  C   UNL     1       4.992   4.910  17.938  0.00  0.00    +0.000 A 
ATOM      2  N   UNL     1       4.198   4.044  17.354  0.00  0.00    +0.000 NA
ATOM      3  N   UNL     1       4.416   3.706  16.049  0.00  0.00    +0.000 N 
ATOM      4  C   UNL     1       5.446   4.225  15.345  0.00  0.00    +0.000 A 
ATOM      5  C   UNL     1       5.956   4.125  14.126  0.00  0.00    +0.000 A 
ATOM      6  C   UNL     1       5.617   3.392  12.944  0.00  0.00    +0.000 A 
ATOM      7  C   UNL     1       6.376   3.553  11.852  0.00  0.00    +0.000 A 
ATOM      8  C   UNL     1       7.523   4.445  11.845  0.00  0.00    +0.000 A 
ATOM      9  C   UNL     1       7.893   5.162  12.924  0.00  0.00    +0.000 A 
ATOM     10  C   UNL     1       7.105   5.041  14.173  0.00  0.00    +0.000 A 
ATOM     11  N   UNL     1       7.290   5.643  15.302  0.00  0.00    +0.000 NA
ATOM     12  C   UNL     1       6.276   5.180  16.112  0.00  0.00    +0.000 A 
ATOM     13  N   UNL     1       6.071   5.535  17.337  0.00  0.00    +0.000 NA
ATOM     14  H   UNL     1       3.808   3.022  15.605  0.00  0.00    +0.000 HD
ENDROOT
BRANCH   1  15
ATOM     15  S   UNL     1       4.625   5.158  19.652  0.00  0.00    +0.000 S 
BRANCH  15  16
ATOM     16  C   UNL     1       2.823   5.102  19.771  0.00  0.00    +0.000 C 
BRANCH  16  22
ATOM     17  C   UNL     1       1.959   9.678  17.744  0.00  0.00    +0.000 C 
ATOM     18  C   UNL     1       1.793   8.724  18.892  0.00  0.00    +0.000 A 
ATOM     19  C   UNL     1       1.099   9.099  20.045  0.00  0.00    +0.000 A 
ATOM     20  C   UNL     1       0.967   8.199  21.102  0.00  0.00    +0.000 A 
ATOM     21  C   UNL     1       1.524   6.916  21.014  0.00  0.00    +0.000 A 
ATOM     22  C   UNL     1       2.218   6.505  19.865  0.00  0.00    +0.000 A 
ATOM     23  C   UNL     1       2.349   7.428  18.812  0.00  0.00    +0.000 A 
ENDBRANCH  16  22
ENDBRANCH  15  16
ENDBRANCH   1  15
TORSDOF 3
ENDMDL
