MODEL 1
REMARK VINA RESULT:      -7.4      0.000      0.000
REMARK  Name = 
REMARK  6 active torsions:
REMARK  status: ('A' for Active; 'I' for Inactive)
REMARK    1  A    between atoms: C_1  and  C_2
REMARK    2  A    between atoms: C_2  and  C_3
REMARK    3  A    between atoms: C_2  and  N_4
REMARK    4  A    between atoms: N_9  and  C_10
REMARK    5  A    between atoms: C_23  and  C_24
REMARK    6  A    between atoms: C_24  and  O_25
REMARK                            x       y       z     vdW  Elec       q    Type
REMARK                         _______ _______ _______ _____ _____    ______ ____
ROOT
ATOM      1  N   UNL     1       5.427   5.583  16.548  0.00  0.00    +0.000 N 
ATOM      2  C   UNL     1       5.183   6.699  15.794  0.00  0.00    +0.000 A 
ATOM      3  N   UNL     1       4.234   7.454  16.311  0.00  0.00    +0.000 NA
ATOM      4  C   UNL     1       3.861   6.797  17.467  0.00  0.00    +0.000 A 
ATOM      5  C   UNL     1       2.905   7.068  18.452  0.00  0.00    +0.000 A 
ATOM      6  N   UNL     1       2.035   8.165  18.359  0.00  0.00    +0.000 N 
ATOM      7  N   UNL     1       2.787   6.171  19.472  0.00  0.00    +0.000 NA
ATOM      8  C   UNL     1       3.530   5.049  19.506  0.00  0.00    +0.000 A 
ATOM      9  N   UNL     1       3.218   4.094  20.431  0.00  0.00    +0.000 N 
ATOM     10  C   UNL     1       4.092   2.972  20.697  0.00  0.00    +0.000 C 
ATOM     11  C   UNL     1       3.110   1.847  20.969  0.00  0.00    +0.000 C 
ATOM     12  C   UNL     1       1.959   2.548  21.683  0.00  0.00    +0.000 C 
ATOM     13  C   UNL     1       1.915   3.980  21.093  0.00  0.00    +0.000 C 
ATOM     14  N   UNL     1       4.507   4.761  18.632  0.00  0.00    +0.000 NA
ATOM     15  C   UNL     1       4.606   5.652  17.642  0.00  0.00    +0.000 A 
ATOM     16  H   UNL     1       2.055   8.620  17.455  0.00  0.00    +0.000 HD
ENDROOT
BRANCH   6  17
ATOM     17  C   UNL     1       1.394   8.857  19.394  0.00  0.00    +0.000 A 
ATOM     18  C   UNL     1       1.435   8.348  20.700  0.00  0.00    +0.000 A 
ATOM     19  C   UNL     1       0.854   9.046  21.763  0.00  0.00    +0.000 A 
ATOM     20  C   UNL     1       0.212  10.262  21.532  0.00  0.00    +0.000 A 
ATOM     21  C   UNL     1       0.169  10.777  20.239  0.00  0.00    +0.000 A 
ATOM     22 CL   UNL     1      -0.639  12.267  19.937  0.00  0.00    +0.000 Cl
ATOM     23  C   UNL     1       0.769  10.094  19.183  0.00  0.00    +0.000 A 
ENDBRANCH   6  17
BRANCH   1  25
ATOM     24  C   UNL     1       6.541   4.380  14.715  0.00  0.00    +0.000 C 
ATOM     25  C   UNL     1       6.291   4.458  16.220  0.00  0.00    +0.000 C 
ATOM     26  C   UNL     1       7.598   4.476  17.009  0.00  0.00    +0.000 C 
ENDBRANCH   1  25
BRANCH  13  27
ATOM     27  C   UNL     1       0.686   4.174  20.171  0.00  0.00    +0.000 C 
BRANCH  27  28
ATOM     28  O   UNL     1       0.023   2.965  19.799  0.00  0.00    +0.000 OA
ATOM     29  H   UNL     1      -0.884   3.007  20.140  0.00  0.00    +0.000 HD
ENDBRANCH  27  28
ENDBRANCH  13  27
TORSDOF 4
ENDMDL
MODEL 2
REMARK VINA RESULT:      -7.4      0.966      1.327
REMARK  Name = 
REMARK  6 active torsions:
REMARK  status: ('A' for Active; 'I' for Inactive)
REMARK    1  A    between atoms: C_1  and  C_2
REMARK    2  A    between atoms: C_2  and  C_3
REMARK    3  A    between atoms: C_2  and  N_4
REMARK    4  A    between atoms: N_9  and  C_10
REMARK    5  A    between atoms: C_23  and  C_24
REMARK    6  A    between atoms: C_24  and  O_25
REMARK                            x       y       z     vdW  Elec       q    Type
REMARK                         _______ _______ _______ _____ _____    ______ ____
ROOT
ATOM      1  N   UNL     1       5.532   5.610  16.548  0.00  0.00    +0.000 N 
ATOM      2  C   UNL     1       5.307   6.663  15.702  0.00  0.00    +0.000 A 
ATOM      3  N   UNL     1       4.312   7.426  16.108  0.00  0.00    +0.000 NA
ATOM      4  C   UNL     1       3.887   6.843  17.286  0.00  0.00    +0.000 A 
ATOM      5  C   UNL     1       2.870   7.157  18.193  0.00  0.00    +0.000 A 
ATOM      6  N   UNL     1       1.981   8.220  17.972  0.00  0.00    +0.000 N 
ATOM      7  N   UNL     1       2.713   6.332  19.268  0.00  0.00    +0.000 NA
ATOM      8  C   UNL     1       3.479   5.236  19.424  0.00  0.00    +0.000 A 
ATOM      9  N   UNL     1       3.136   4.341  20.398  0.00  0.00    +0.000 N 
ATOM     10  C   UNL     1       4.019   3.265  20.793  0.00  0.00    +0.000 C 
ATOM     11  C   UNL     1       3.050   2.136  21.090  0.00  0.00    +0.000 C 
ATOM     12  C   UNL     1       1.843   2.854  21.685  0.00  0.00    +0.000 C 
ATOM     13  C   UNL     1       1.800   4.239  20.992  0.00  0.00    +0.000 C 
ATOM     14  N   UNL     1       4.512   4.914  18.631  0.00  0.00    +0.000 NA
ATOM     15  C   UNL     1       4.648   5.734  17.586  0.00  0.00    +0.000 A 
ATOM     16  H   UNL     1       2.043   8.610  17.039  0.00  0.00    +0.000 HD
ENDROOT
BRANCH   6  17
ATOM     17  C   UNL     1       1.264   8.966  18.916  0.00  0.00    +0.000 A 
ATOM     18  C   UNL     1       0.341   9.928  18.484  0.00  0.00    +0.000 A 
ATOM     19  C   UNL     1      -0.431  10.649  19.401  0.00  0.00    +0.000 A 
ATOM     20  C   UNL     1      -0.280  10.424  20.768  0.00  0.00    +0.000 A 
ATOM     21  C   UNL     1       0.632   9.468  21.207  0.00  0.00    +0.000 A 
ATOM     22 CL   UNL     1       0.843   9.194  22.894  0.00  0.00    +0.000 Cl
ATOM     23  C   UNL     1       1.383   8.732  20.292  0.00  0.00    +0.000 A 
ENDBRANCH   6  17
BRANCH   1  25
ATOM     24  C   UNL     1       6.865   4.378  14.888  0.00  0.00    +0.000 C 
ATOM     25  C   UNL     1       6.440   4.489  16.351  0.00  0.00    +0.000 C 
ATOM     26  C   UNL     1       7.646   4.544  17.286  0.00  0.00    +0.000 C 
ENDBRANCH   1  25
BRANCH  13  27
ATOM     27  C   UNL     1       0.622   4.332  19.991  0.00  0.00    +0.000 C 
BRANCH  27  28
ATOM     28  O   UNL     1      -0.014   3.088  19.700  0.00  0.00    +0.000 OA
ATOM     29  H   UNL     1       0.672   2.462  19.419  0.00  0.00    +0.000 HD
ENDBRANCH  27  28
ENDBRANCH  13  27
TORSDOF 4
ENDMDL
MODEL 3
REMARK VINA RESULT:      -7.0      2.854      6.415
REMARK  Name = 
REMARK  6 active torsions:
REMARK  status: ('A' for Active; 'I' for Inactive)
REMARK    1  A    between atoms: C_1  and  C_2
REMARK    2  A    between atoms: C_2  and  C_3
REMARK    3  A    between atoms: C_2  and  N_4
REMARK    4  A    between atoms: N_9  and  C_10
REMARK    5  A    between atoms: C_23  and  C_24
REMARK    6  A    between atoms: C_24  and  O_25
REMARK                            x       y       z     vdW  Elec       q    Type
REMARK                         _______ _______ _______ _____ _____    ______ ____
ROOT
ATOM      1  N   UNL     1       1.422   8.880  18.939  0.00  0.00    +0.000 N 
ATOM      2  C   UNL     1       2.098   9.790  18.169  0.00  0.00    +0.000 A 
ATOM      3  N   UNL     1       3.098   9.240  17.509  0.00  0.00    +0.000 NA
ATOM      4  C   UNL     1       3.051   7.905  17.860  0.00  0.00    +0.000 A 
ATOM      5  C   UNL     1       3.838   6.800  17.515  0.00  0.00    +0.000 A 
ATOM      6  N   UNL     1       4.973   6.923  16.700  0.00  0.00    +0.000 N 
ATOM      7  N   UNL     1       3.513   5.601  18.078  0.00  0.00    +0.000 NA
ATOM      8  C   UNL     1       2.503   5.495  18.962  0.00  0.00    +0.000 A 
ATOM      9  N   UNL     1       2.362   4.321  19.646  0.00  0.00    +0.000 N 
ATOM     10  C   UNL     1       1.184   4.031  20.434  0.00  0.00    +0.000 C 
ATOM     11  C   UNL     1       1.755   3.257  21.608  0.00  0.00    +0.000 C 
ATOM     12  C   UNL     1       2.894   2.457  20.981  0.00  0.00    +0.000 C 
ATOM     13  C   UNL     1       3.434   3.338  19.827  0.00  0.00    +0.000 C 
ATOM     14  N   UNL     1       1.670   6.497  19.284  0.00  0.00    +0.000 NA
ATOM     15  C   UNL     1       2.006   7.661  18.723  0.00  0.00    +0.000 A 
ATOM     16  H   UNL     1       5.249   7.883  16.536  0.00  0.00    +0.000 HD
ENDROOT
BRANCH   6  17
ATOM     17  C   UNL     1       5.566   5.953  15.882  0.00  0.00    +0.000 A 
ATOM     18  C   UNL     1       6.830   5.445  16.213  0.00  0.00    +0.000 A 
ATOM     19  C   UNL     1       7.424   4.435  15.449  0.00  0.00    +0.000 A 
ATOM     20  C   UNL     1       6.762   3.925  14.333  0.00  0.00    +0.000 A 
ATOM     21  C   UNL     1       5.504   4.421  13.998  0.00  0.00    +0.000 A 
ATOM     22 CL   UNL     1       4.686   3.814  12.610  0.00  0.00    +0.000 Cl
ATOM     23  C   UNL     1       4.903   5.410  14.774  0.00  0.00    +0.000 A 
ENDBRANCH   6  17
BRANCH   1  25
ATOM     24  C   UNL     1       0.939   9.302  21.314  0.00  0.00    +0.000 C 
ATOM     25  C   UNL     1       0.367   9.144  19.906  0.00  0.00    +0.000 C 
ATOM     26  C   UNL     1      -0.501  10.337  19.512  0.00  0.00    +0.000 C 
ENDBRANCH   1  25
BRANCH  13  27
ATOM     27  C   UNL     1       4.823   3.930  20.172  0.00  0.00    +0.000 C 
BRANCH  27  28
ATOM     28  O   UNL     1       5.795   3.814  19.132  0.00  0.00    +0.000 OA
ATOM     29  H   UNL     1       5.810   4.652  18.645  0.00  0.00    +0.000 HD
ENDBRANCH  27  28
ENDBRANCH  13  27
TORSDOF 4
ENDMDL
MODEL 4
REMARK VINA RESULT:      -6.9      8.300     11.698
REMARK  Name = 
REMARK  6 active torsions:
REMARK  status: ('A' for Active; 'I' for Inactive)
REMARK    1  A    between atoms: C_1  and  C_2
REMARK    2  A    between atoms: C_2  and  C_3
REMARK    3  A    between atoms: C_2  and  N_4
REMARK    4  A    between atoms: N_9  and  C_10
REMARK    5  A    between atoms: C_23  and  C_24
REMARK    6  A    between atoms: C_24  and  O_25
REMARK                            x       y       z     vdW  Elec       q    Type
REMARK                         _______ _______ _______ _____ _____    ______ ____
ROOT
ATOM      1  N   UNL     1      -6.417  13.533  22.454  0.00  0.00    +0.000 N 
ATOM      2  C   UNL     1      -7.404  13.269  21.542  0.00  0.00    +0.000 A 
ATOM      3  N   UNL     1      -6.919  12.859  20.386  0.00  0.00    +0.000 NA
ATOM      4  C   UNL     1      -5.551  12.843  20.572  0.00  0.00    +0.000 A 
ATOM      5  C   UNL     1      -4.478  12.518  19.734  0.00  0.00    +0.000 A 
ATOM      6  N   UNL     1      -4.667  12.173  18.387  0.00  0.00    +0.000 N 
ATOM      7  N   UNL     1      -3.222  12.637  20.251  0.00  0.00    +0.000 NA
ATOM      8  C   UNL     1      -3.022  13.089  21.503  0.00  0.00    +0.000 A 
ATOM      9  N   UNL     1      -1.745  13.385  21.888  0.00  0.00    +0.000 N 
ATOM     10  C   UNL     1      -1.405  13.651  23.269  0.00  0.00    +0.000 C 
ATOM     11  C   UNL     1      -0.337  14.723  23.144  0.00  0.00    +0.000 C 
ATOM     12  C   UNL     1       0.411  14.329  21.874  0.00  0.00    +0.000 C 
ATOM     13  C   UNL     1      -0.647  13.664  20.959  0.00  0.00    +0.000 C 
ATOM     14  N   UNL     1      -4.004  13.354  22.379  0.00  0.00    +0.000 NA
ATOM     15  C   UNL     1      -5.225  13.232  21.853  0.00  0.00    +0.000 A 
ATOM     16  H   UNL     1      -5.609  12.345  18.055  0.00  0.00    +0.000 HD
ENDROOT
BRANCH   6  17
ATOM     17  C   UNL     1      -3.849  11.385  17.568  0.00  0.00    +0.000 A 
ATOM     18  C   UNL     1      -2.715  10.764  18.110  0.00  0.00    +0.000 A 
ATOM     19  C   UNL     1      -1.912   9.926  17.331  0.00  0.00    +0.000 A 
ATOM     20  C   UNL     1      -2.226   9.706  15.991  0.00  0.00    +0.000 A 
ATOM     21  C   UNL     1      -3.353  10.316  15.444  0.00  0.00    +0.000 A 
ATOM     22 CL   UNL     1      -3.741  10.068  13.785  0.00  0.00    +0.000 Cl
ATOM     23  C   UNL     1      -4.168  11.131  16.227  0.00  0.00    +0.000 A 
ENDBRANCH   6  17
BRANCH   1  25
ATOM     24  C   UNL     1      -6.291  15.638  23.720  0.00  0.00    +0.000 C 
ATOM     25  C   UNL     1      -6.562  14.135  23.771  0.00  0.00    +0.000 C 
ATOM     26  C   UNL     1      -7.915  13.828  24.408  0.00  0.00    +0.000 C 
ENDBRANCH   1  25
BRANCH  13  27
ATOM     27  C   UNL     1      -1.010  14.574  19.760  0.00  0.00    +0.000 C 
BRANCH  27  28
ATOM     28  O   UNL     1      -0.930  13.940  18.483  0.00  0.00    +0.000 OA
ATOM     29  H   UNL     1      -1.836  13.796  18.167  0.00  0.00    +0.000 HD
ENDBRANCH  27  28
ENDBRANCH  13  27
TORSDOF 4
ENDMDL
MODEL 5
REMARK VINA RESULT:      -6.8      2.992      6.466
REMARK  Name = 
REMARK  6 active torsions:
REMARK  status: ('A' for Active; 'I' for Inactive)
REMARK    1  A    between atoms: C_1  and  C_2
REMARK    2  A    between atoms: C_2  and  C_3
REMARK    3  A    between atoms: C_2  and  N_4
REMARK    4  A    between atoms: N_9  and  C_10
REMARK    5  A    between atoms: C_23  and  C_24
REMARK    6  A    between atoms: C_24  and  O_25
REMARK                            x       y       z     vdW  Elec       q    Type
REMARK                         _______ _______ _______ _____ _____    ______ ____
ROOT
ATOM      1  N   UNL     1       1.515   8.806  19.043  0.00  0.00    +0.000 N 
ATOM      2  C   UNL     1       2.174   9.690  18.230  0.00  0.00    +0.000 A 
ATOM      3  N   UNL     1       3.122   9.107  17.523  0.00  0.00    +0.000 NA
ATOM      4  C   UNL     1       3.057   7.777  17.889  0.00  0.00    +0.000 A 
ATOM      5  C   UNL     1       3.793   6.647  17.513  0.00  0.00    +0.000 A 
ATOM      6  N   UNL     1       4.886   6.732  16.637  0.00  0.00    +0.000 N 
ATOM      7  N   UNL     1       3.465   5.462  18.103  0.00  0.00    +0.000 NA
ATOM      8  C   UNL     1       2.500   5.391  19.039  0.00  0.00    +0.000 A 
ATOM      9  N   UNL     1       2.364   4.227  19.740  0.00  0.00    +0.000 N 
ATOM     10  C   UNL     1       1.221   3.977  20.592  0.00  0.00    +0.000 C 
ATOM     11  C   UNL     1       1.832   3.195  21.741  0.00  0.00    +0.000 C 
ATOM     12  C   UNL     1       2.913   2.359  21.063  0.00  0.00    +0.000 C 
ATOM     13  C   UNL     1       3.416   3.216  19.874  0.00  0.00    +0.000 C 
ATOM     14  N   UNL     1       1.714   6.419  19.396  0.00  0.00    +0.000 NA
ATOM     15  C   UNL     1       2.052   7.569  18.808  0.00  0.00    +0.000 A 
ATOM     16  H   UNL     1       5.180   7.683  16.451  0.00  0.00    +0.000 HD
ENDROOT
BRANCH   6  17
ATOM     17  C   UNL     1       5.408   5.740  15.799  0.00  0.00    +0.000 A 
ATOM     18  C   UNL     1       4.903   4.434  15.870  0.00  0.00    +0.000 A 
ATOM     19  C   UNL     1       5.363   3.435  15.006  0.00  0.00    +0.000 A 
ATOM     20  C   UNL     1       6.348   3.728  14.063  0.00  0.00    +0.000 A 
ATOM     21  C   UNL     1       6.854   5.023  13.983  0.00  0.00    +0.000 A 
ATOM     22 CL   UNL     1       8.085   5.392  12.837  0.00  0.00    +0.000 Cl
ATOM     23  C   UNL     1       6.377   6.024  14.827  0.00  0.00    +0.000 A 
ENDBRANCH   6  17
BRANCH   1  25
ATOM     24  C   UNL     1       1.166   9.230  21.440  0.00  0.00    +0.000 C 
ATOM     25  C   UNL     1       0.520   9.107  20.061  0.00  0.00    +0.000 C 
ATOM     26  C   UNL     1      -0.315  10.338  19.717  0.00  0.00    +0.000 C 
ENDBRANCH   1  25
BRANCH  13  27
ATOM     27  C   UNL     1       4.837   3.771  20.139  0.00  0.00    +0.000 C 
BRANCH  27  28
ATOM     28  O   UNL     1       5.750   3.616  19.053  0.00  0.00    +0.000 OA
ATOM     29  H   UNL     1       6.620   3.926  19.350  0.00  0.00    +0.000 HD
ENDBRANCH  27  28
ENDBRANCH  13  27
TORSDOF 4
ENDMDL
MODEL 6
REMARK VINA RESULT:      -6.8      7.378     10.256
REMARK  Name = 
REMARK  6 active torsions:
REMARK  status: ('A' for Active; 'I' for Inactive)
REMARK    1  A    between atoms: C_1  and  C_2
REMARK    2  A    between atoms: C_2  and  C_3
REMARK    3  A    between atoms: C_2  and  N_4
REMARK    4  A    between atoms: N_9  and  C_10
REMARK    5  A    between atoms: C_23  and  C_24
REMARK    6  A    between atoms: C_24  and  O_25
REMARK                            x       y       z     vdW  Elec       q    Type
REMARK                         _______ _______ _______ _____ _____    ______ ____
ROOT
ATOM      1  N   UNL     1      -3.159  13.542  22.990  0.00  0.00    +0.000 N 
ATOM      2  C   UNL     1      -2.274  14.191  23.808  0.00  0.00    +0.000 A 
ATOM      3  N   UNL     1      -1.113  14.403  23.220  0.00  0.00    +0.000 NA
ATOM      4  C   UNL     1      -1.267  13.877  21.953  0.00  0.00    +0.000 A 
ATOM      5  C   UNL     1      -0.408  13.774  20.852  0.00  0.00    +0.000 A 
ATOM      6  N   UNL     1       0.929  14.195  20.912  0.00  0.00    +0.000 N 
ATOM      7  N   UNL     1      -0.895  13.161  19.735  0.00  0.00    +0.000 NA
ATOM      8  C   UNL     1      -2.136  12.640  19.708  0.00  0.00    +0.000 A 
ATOM      9  N   UNL     1      -2.486  11.859  18.644  0.00  0.00    +0.000 N 
ATOM     10  C   UNL     1      -3.855  11.451  18.413  0.00  0.00    +0.000 C 
ATOM     11  C   UNL     1      -3.691  10.050  17.853  0.00  0.00    +0.000 C 
ATOM     12  C   UNL     1      -2.409  10.146  17.032  0.00  0.00    +0.000 C 
ATOM     13  C   UNL     1      -1.528  11.192  17.758  0.00  0.00    +0.000 C 
ATOM     14  N   UNL     1      -3.030  12.762  20.701  0.00  0.00    +0.000 NA
ATOM     15  C   UNL     1      -2.534  13.365  21.784  0.00  0.00    +0.000 A 
ATOM     16  H   UNL     1       1.241  14.412  21.851  0.00  0.00    +0.000 HD
ENDROOT
BRANCH   6  17
ATOM     17  C   UNL     1       1.756  14.616  19.865  0.00  0.00    +0.000 A 
ATOM     18  C   UNL     1       2.842  13.820  19.474  0.00  0.00    +0.000 A 
ATOM     19  C   UNL     1       3.652  14.185  18.394  0.00  0.00    +0.000 A 
ATOM     20  C   UNL     1       3.393  15.363  17.695  0.00  0.00    +0.000 A 
ATOM     21  C   UNL     1       2.315  16.159  18.073  0.00  0.00    +0.000 A 
ATOM     22 CL   UNL     1       1.996  17.627  17.231  0.00  0.00    +0.000 Cl
ATOM     23  C   UNL     1       1.493  15.782  19.133  0.00  0.00    +0.000 A 
ENDBRANCH   6  17
BRANCH   1  25
ATOM     24  C   UNL     1      -4.444  12.337  24.706  0.00  0.00    +0.000 C 
ATOM     25  C   UNL     1      -4.471  13.016  23.338  0.00  0.00    +0.000 C 
ATOM     26  C   UNL     1      -5.566  14.077  23.256  0.00  0.00    +0.000 C 
ENDBRANCH   1  25
BRANCH  13  27
ATOM     27  C   UNL     1      -0.326  10.523  18.468  0.00  0.00    +0.000 C 
BRANCH  27  28
ATOM     28  O   UNL     1       0.926  11.181  18.271  0.00  0.00    +0.000 OA
ATOM     29  H   UNL     1       1.546  10.846  18.938  0.00  0.00    +0.000 HD
ENDBRANCH  27  28
ENDBRANCH  13  27
TORSDOF 4
ENDMDL
MODEL 7
REMARK VINA RESULT:      -6.7      2.191      4.785
REMARK  Name = 
REMARK  6 active torsions:
REMARK  status: ('A' for Active; 'I' for Inactive)
REMARK    1  A    between atoms: C_1  and  C_2
REMARK    2  A    between atoms: C_2  and  C_3
REMARK    3  A    between atoms: C_2  and  N_4
REMARK    4  A    between atoms: N_9  and  C_10
REMARK    5  A    between atoms: C_23  and  C_24
REMARK    6  A    between atoms: C_24  and  O_25
REMARK                            x       y       z     vdW  Elec       q    Type
REMARK                         _______ _______ _______ _____ _____    ______ ____
ROOT
ATOM      1  N   UNL     1       3.161   2.644  20.358  0.00  0.00    +0.000 N 
ATOM      2  C   UNL     1       2.538   3.052  21.507  0.00  0.00    +0.000 A 
ATOM      3  N   UNL     1       2.254   4.339  21.492  0.00  0.00    +0.000 NA
ATOM      4  C   UNL     1       2.703   4.777  20.261  0.00  0.00    +0.000 A 
ATOM      5  C   UNL     1       2.709   6.031  19.640  0.00  0.00    +0.000 A 
ATOM      6  N   UNL     1       2.251   7.185  20.293  0.00  0.00    +0.000 N 
ATOM      7  N   UNL     1       3.264   6.109  18.396  0.00  0.00    +0.000 NA
ATOM      8  C   UNL     1       3.821   5.033  17.811  0.00  0.00    +0.000 A 
ATOM      9  N   UNL     1       4.544   5.221  16.667  0.00  0.00    +0.000 N 
ATOM     10  C   UNL     1       4.978   4.111  15.846  0.00  0.00    +0.000 C 
ATOM     11  C   UNL     1       6.336   4.578  15.353  0.00  0.00    +0.000 C 
ATOM     12  C   UNL     1       6.148   6.081  15.175  0.00  0.00    +0.000 C 
ATOM     13  C   UNL     1       5.123   6.503  16.257  0.00  0.00    +0.000 C 
ATOM     14  N   UNL     1       3.790   3.792  18.320  0.00  0.00    +0.000 NA
ATOM     15  C   UNL     1       3.243   3.737  19.537  0.00  0.00    +0.000 A 
ATOM     16  H   UNL     1       2.084   7.049  21.282  0.00  0.00    +0.000 HD
ENDROOT
BRANCH   6  17
ATOM     17  C   UNL     1       1.739   8.359  19.728  0.00  0.00    +0.000 A 
ATOM     18  C   UNL     1       2.053   8.686  18.401  0.00  0.00    +0.000 A 
ATOM     19  C   UNL     1       1.511   9.822  17.791  0.00  0.00    +0.000 A 
ATOM     20  C   UNL     1       0.652  10.655  18.506  0.00  0.00    +0.000 A 
ATOM     21  C   UNL     1       0.331  10.337  19.824  0.00  0.00    +0.000 A 
ATOM     22 CL   UNL     1      -0.713  11.368  20.725  0.00  0.00    +0.000 Cl
ATOM     23  C   UNL     1       0.852   9.192  20.423  0.00  0.00    +0.000 A 
ENDBRANCH   6  17
BRANCH   1  25
ATOM     24  C   UNL     1       3.740   1.046  18.580  0.00  0.00    +0.000 C 
ATOM     25  C   UNL     1       3.749   1.342  20.079  0.00  0.00    +0.000 C 
ATOM     26  C   UNL     1       5.146   1.192  20.675  0.00  0.00    +0.000 C 
ENDBRANCH   1  25
BRANCH  13  27
ATOM     27  C   UNL     1       5.798   7.315  17.389  0.00  0.00    +0.000 C 
BRANCH  27  28
ATOM     28  O   UNL     1       7.133   7.736  17.106  0.00  0.00    +0.000 OA
ATOM     29  H   UNL     1       7.084   8.496  16.505  0.00  0.00    +0.000 HD
ENDBRANCH  27  28
ENDBRANCH  13  27
TORSDOF 4
ENDMDL
MODEL 8
REMARK VINA RESULT:      -6.6      4.694      8.248
REMARK  Name = 
REMARK  6 active torsions:
REMARK  status: ('A' for Active; 'I' for Inactive)
REMARK    1  A    between atoms: C_1  and  C_2
REMARK    2  A    between atoms: C_2  and  C_3
REMARK    3  A    between atoms: C_2  and  N_4
REMARK    4  A    between atoms: N_9  and  C_10
REMARK    5  A    between atoms: C_23  and  C_24
REMARK    6  A    between atoms: C_24  and  O_25
REMARK                            x       y       z     vdW  Elec       q    Type
REMARK                         _______ _______ _______ _____ _____    ______ ____
ROOT
ATOM      1  N   UNL     1       1.186   8.803  20.172  0.00  0.00    +0.000 N 
ATOM      2  C   UNL     1       0.586   8.110  21.190  0.00  0.00    +0.000 A 
ATOM      3  N   UNL     1      -0.089   8.900  22.001  0.00  0.00    +0.000 NA
ATOM      4  C   UNL     1       0.073  10.164  21.467  0.00  0.00    +0.000 A 
ATOM      5  C   UNL     1      -0.379  11.429  21.858  0.00  0.00    +0.000 A 
ATOM      6  N   UNL     1      -1.108  11.624  23.041  0.00  0.00    +0.000 N 
ATOM      7  N   UNL     1      -0.005  12.492  21.089  0.00  0.00    +0.000 NA
ATOM      8  C   UNL     1       0.800  12.333  20.022  0.00  0.00    +0.000 A 
ATOM      9  N   UNL     1       1.307  13.450  19.422  0.00  0.00    +0.000 N 
ATOM     10  C   UNL     1       1.984  13.392  18.144  0.00  0.00    +0.000 C 
ATOM     11  C   UNL     1       3.068  14.443  18.298  0.00  0.00    +0.000 C 
ATOM     12  C   UNL     1       2.400  15.517  19.150  0.00  0.00    +0.000 C 
ATOM     13  C   UNL     1       1.409  14.761  20.070  0.00  0.00    +0.000 C 
ATOM     14  N   UNL     1       1.213  11.144  19.554  0.00  0.00    +0.000 NA
ATOM     15  C   UNL     1       0.836  10.118  20.322  0.00  0.00    +0.000 A 
ATOM     16  H   UNL     1      -1.122  10.810  23.644  0.00  0.00    +0.000 HD
ENDROOT
BRANCH   6  17
ATOM     17  C   UNL     1      -2.018  12.644  23.345  0.00  0.00    +0.000 A 
ATOM     18  C   UNL     1      -1.548  13.939  23.604  0.00  0.00    +0.000 A 
ATOM     19  C   UNL     1      -2.435  14.991  23.853  0.00  0.00    +0.000 A 
ATOM     20  C   UNL     1      -3.810  14.758  23.858  0.00  0.00    +0.000 A 
ATOM     21  C   UNL     1      -4.286  13.475  23.598  0.00  0.00    +0.000 A 
ATOM     22 CL   UNL     1      -5.981  13.169  23.621  0.00  0.00    +0.000 Cl
ATOM     23  C   UNL     1      -3.403  12.432  23.325  0.00  0.00    +0.000 A 
ENDBRANCH   6  17
BRANCH   1  25
ATOM     24  C   UNL     1       2.435   6.819  19.428  0.00  0.00    +0.000 C 
ATOM     25  C   UNL     1       2.122   8.293  19.180  0.00  0.00    +0.000 C 
ATOM     26  C   UNL     1       1.647   8.537  17.750  0.00  0.00    +0.000 C 
ENDBRANCH   1  25
BRANCH  13  27
ATOM     27  C   UNL     1       1.906  14.737  21.537  0.00  0.00    +0.000 C 
BRANCH  27  28
ATOM     28  O   UNL     1       2.987  13.839  21.786  0.00  0.00    +0.000 OA
ATOM     29  H   UNL     1       2.724  12.961  21.467  0.00  0.00    +0.000 HD
ENDBRANCH  27  28
ENDBRANCH  13  27
TORSDOF 4
ENDMDL
MODEL 9
REMARK VINA RESULT:      -6.5      5.202     10.069
REMARK  Name = 
REMARK  6 active torsions:
REMARK  status: ('A' for Active; 'I' for Inactive)
REMARK    1  A    between atoms: C_1  and  C_2
REMARK    2  A    between atoms: C_2  and  C_3
REMARK    3  A    between atoms: C_2  and  N_4
REMARK    4  A    between atoms: N_9  and  C_10
REMARK    5  A    between atoms: C_23  and  C_24
REMARK    6  A    between atoms: C_24  and  O_25
REMARK                            x       y       z     vdW  Elec       q    Type
REMARK                         _______ _______ _______ _____ _____    ______ ____
ROOT
ATOM      1  N   UNL     1      -1.377  14.070  23.000  0.00  0.00    +0.000 N 
ATOM      2  C   UNL     1      -2.369  13.132  22.887  0.00  0.00    +0.000 A 
ATOM      3  N   UNL     1      -2.040  12.154  22.066  0.00  0.00    +0.000 NA
ATOM      4  C   UNL     1      -0.764  12.472  21.644  0.00  0.00    +0.000 A 
ATOM      5  C   UNL     1       0.132  11.851  20.766  0.00  0.00    +0.000 A 
ATOM      6  N   UNL     1      -0.211  10.695  20.051  0.00  0.00    +0.000 N 
ATOM      7  N   UNL     1       1.332  12.467  20.559  0.00  0.00    +0.000 NA
ATOM      8  C   UNL     1       1.623  13.644  21.143  0.00  0.00    +0.000 A 
ATOM      9  N   UNL     1       2.743  14.309  20.733  0.00  0.00    +0.000 N 
ATOM     10  C   UNL     1       3.261  15.452  21.455  0.00  0.00    +0.000 C 
ATOM     11  C   UNL     1       3.784  16.337  20.338  0.00  0.00    +0.000 C 
ATOM     12  C   UNL     1       4.317  15.337  19.317  0.00  0.00    +0.000 C 
ATOM     13  C   UNL     1       3.413  14.086  19.450  0.00  0.00    +0.000 C 
ATOM     14  N   UNL     1       0.840  14.257  22.044  0.00  0.00    +0.000 NA
ATOM     15  C   UNL     1      -0.329  13.639  22.231  0.00  0.00    +0.000 A 
ATOM     16  H   UNL     1      -1.196  10.465  20.104  0.00  0.00    +0.000 HD
ENDROOT
BRANCH   6  17
ATOM     17  C   UNL     1       0.636   9.702  19.543  0.00  0.00    +0.000 A 
ATOM     18  C   UNL     1       1.167   9.835  18.252  0.00  0.00    +0.000 A 
ATOM     19  C   UNL     1       2.060   8.889  17.739  0.00  0.00    +0.000 A 
ATOM     20  C   UNL     1       2.428   7.787  18.510  0.00  0.00    +0.000 A 
ATOM     21  C   UNL     1       1.909   7.648  19.795  0.00  0.00    +0.000 A 
ATOM     22 CL   UNL     1       2.339   6.281  20.750  0.00  0.00    +0.000 Cl
ATOM     23  C   UNL     1       1.038   8.604  20.315  0.00  0.00    +0.000 A 
ENDBRANCH   6  17
BRANCH   1  25
ATOM     24  C   UNL     1      -2.738  16.084  23.373  0.00  0.00    +0.000 C 
ATOM     25  C   UNL     1      -1.437  15.349  23.692  0.00  0.00    +0.000 C 
ATOM     26  C   UNL     1      -1.222  15.209  25.197  0.00  0.00    +0.000 C 
ENDBRANCH   1  25
BRANCH  13  27
ATOM     27  C   UNL     1       2.472  13.938  18.229  0.00  0.00    +0.000 C 
BRANCH  27  28
ATOM     28  O   UNL     1       2.606  12.707  17.518  0.00  0.00    +0.000 OA
ATOM     29  H   UNL     1       2.580  11.985  18.166  0.00  0.00    +0.000 HD
ENDBRANCH  27  28
ENDBRANCH  13  27
TORSDOF 4
ENDMDL
