MODEL 1
REMARK VINA RESULT:      -8.3      0.000      0.000
REMARK  Name = 
REMARK  9 active torsions:
REMARK  status: ('A' for Active; 'I' for Inactive)
REMARK    1  A    between atoms: C_1  and  C_2
REMARK    2  A    between atoms: C_2  and  C_3
REMARK    3  A    between atoms: C_3  and  C_4
REMARK    4  A    between atoms: C_4  and  O_5
REMARK    5  A    between atoms: O_5  and  C_6
REMARK    6  A    between atoms: C_17  and  N_18
REMARK    7  A    between atoms: N_18  and  C_19
REMARK    8  A    between atoms: C_22  and  S_23
REMARK    9  A    between atoms: S_23  and  N_24
REMARK                            x       y       z     vdW  Elec       q    Type
REMARK                         _______ _______ _______ _____ _____    ______ ____
ROOT
ATOM      1  C   UNL     1       0.157  10.350  18.555  0.00  0.00    +0.000 C 
ATOM      2  O   UNL     1       0.132  11.486  19.437  0.00  0.00    +0.000 OA
ATOM      3  C   UNL     1      -0.286  11.182  20.705  0.00  0.00    +0.000 A 
ATOM      4  C   UNL     1      -0.941  12.179  21.421  0.00  0.00    +0.000 A 
ATOM      5  C   UNL     1      -1.351  11.937  22.734  0.00  0.00    +0.000 A 
ATOM      6  C   UNL     1      -1.094  10.702  23.333  0.00  0.00    +0.000 A 
ATOM      7  C   UNL     1      -0.429   9.705  22.620  0.00  0.00    +0.000 A 
ATOM      8  C   UNL     1      -0.030   9.948  21.302  0.00  0.00    +0.000 A 
ATOM      9  C   UNL     1       0.723   8.930  20.555  0.00  0.00    +0.000 C 
ATOM     10  O   UNL     1       1.151   7.925  21.119  0.00  0.00    +0.000 OA
ATOM     11  C   UNL     1       0.950   9.213  19.117  0.00  0.00    +0.000 C 
ATOM     12  C   UNL     1       1.831   8.476  18.417  0.00  0.00    +0.000 C 
ENDROOT
BRANCH  12  13
ATOM     13  N   UNL     1       2.609   7.451  18.893  0.00  0.00    +0.000 N 
ATOM     14  H   UNL     1       2.292   7.064  19.790  0.00  0.00    +0.000 HD
BRANCH  13  15
ATOM     15  C   UNL     1       3.666   6.772  18.277  0.00  0.00    +0.000 A 
ATOM     16  C   UNL     1       4.164   7.279  17.065  0.00  0.00    +0.000 A 
ATOM     17  C   UNL     1       5.170   6.615  16.361  0.00  0.00    +0.000 A 
ATOM     18  C   UNL     1       5.709   5.443  16.890  0.00  0.00    +0.000 A 
ATOM     19  C   UNL     1       5.212   4.902  18.077  0.00  0.00    +0.000 A 
ATOM     20  C   UNL     1       4.186   5.564  18.757  0.00  0.00    +0.000 A 
BRANCH  18  21
ATOM     21  S   UNL     1       7.066   4.654  16.073  0.00  0.00    +0.000 S 
ATOM     22  O   UNL     1       7.444   5.455  14.932  0.00  0.00    +0.000 OA
ATOM     23  O   UNL     1       8.011   4.210  17.071  0.00  0.00    +0.000 OA
BRANCH  21  24
ATOM     24  N   UNL     1       6.301   3.296  15.487  0.00  0.00    +0.000 NA
ATOM     25  H   UNL     1       6.529   3.008  14.540  0.00  0.00    +0.000 HD
ATOM     26  H   UNL     1       5.437   3.018  15.940  0.00  0.00    +0.000 HD
ENDBRANCH  21  24
ENDBRANCH  18  21
ENDBRANCH  13  15
ENDBRANCH  12  13
BRANCH   1  27
ATOM     27  O   UNL     1      -1.158   9.875  18.246  0.00  0.00    +0.000 OA
BRANCH  27  28
ATOM     28  C   UNL     1      -1.888  10.819  17.466  0.00  0.00    +0.000 C 
BRANCH  28  29
ATOM     29  C   UNL     1      -2.821  10.062  16.533  0.00  0.00    +0.000 C 
BRANCH  29  31
ATOM     30  C   UNL     1      -3.394   9.970  14.083  0.00  0.00    +0.000 C 
ATOM     31  C   UNL     1      -3.084  10.871  15.266  0.00  0.00    +0.000 C 
ENDBRANCH  29  31
ENDBRANCH  28  29
ENDBRANCH  27  28
ENDBRANCH   1  27
TORSDOF 8
ENDMDL
MODEL 2
REMARK VINA RESULT:      -8.2      3.602      8.892
REMARK  Name = 
REMARK  9 active torsions:
REMARK  status: ('A' for Active; 'I' for Inactive)
REMARK    1  A    between atoms: C_1  and  C_2
REMARK    2  A    between atoms: C_2  and  C_3
REMARK    3  A    between atoms: C_3  and  C_4
REMARK    4  A    between atoms: C_4  and  O_5
REMARK    5  A    between atoms: O_5  and  C_6
REMARK    6  A    between atoms: C_17  and  N_18
REMARK    7  A    between atoms: N_18  and  C_19
REMARK    8  A    between atoms: C_22  and  S_23
REMARK    9  A    between atoms: S_23  and  N_24
REMARK                            x       y       z     vdW  Elec       q    Type
REMARK                         _______ _______ _______ _____ _____    ______ ____
ROOT
ATOM      1  C   UNL     1       3.212   4.191  18.616  0.00  0.00    +0.000 C 
ATOM      2  O   UNL     1       4.516   3.713  18.243  0.00  0.00    +0.000 OA
ATOM      3  C   UNL     1       4.992   4.278  17.090  0.00  0.00    +0.000 A 
ATOM      4  C   UNL     1       5.854   3.512  16.310  0.00  0.00    +0.000 A 
ATOM      5  C   UNL     1       6.404   4.054  15.146  0.00  0.00    +0.000 A 
ATOM      6  C   UNL     1       6.101   5.363  14.770  0.00  0.00    +0.000 A 
ATOM      7  C   UNL     1       5.244   6.135  15.555  0.00  0.00    +0.000 A 
ATOM      8  C   UNL     1       4.688   5.585  16.714  0.00  0.00    +0.000 A 
ATOM      9  C   UNL     1       3.830   6.402  17.585  0.00  0.00    +0.000 C 
ATOM     10  O   UNL     1       3.717   7.612  17.400  0.00  0.00    +0.000 OA
ATOM     11  C   UNL     1       3.154   5.683  18.692  0.00  0.00    +0.000 C 
ATOM     12  C   UNL     1       2.558   6.376  19.679  0.00  0.00    +0.000 C 
ENDROOT
BRANCH  12  13
ATOM     13  N   UNL     1       2.510   7.741  19.814  0.00  0.00    +0.000 N 
ATOM     14  H   UNL     1       3.424   8.180  19.975  0.00  0.00    +0.000 HD
BRANCH  13  15
ATOM     15  C   UNL     1       1.437   8.619  19.626  0.00  0.00    +0.000 A 
ATOM     16  C   UNL     1       1.202   9.112  18.332  0.00  0.00    +0.000 A 
ATOM     17  C   UNL     1       0.193  10.045  18.085  0.00  0.00    +0.000 A 
ATOM     18  C   UNL     1      -0.613  10.469  19.140  0.00  0.00    +0.000 A 
ATOM     19  C   UNL     1      -0.382  10.018  20.440  0.00  0.00    +0.000 A 
ATOM     20  C   UNL     1       0.650   9.105  20.677  0.00  0.00    +0.000 A 
BRANCH  18  21
ATOM     21  S   UNL     1      -1.973  11.557  18.824  0.00  0.00    +0.000 S 
ATOM     22  O   UNL     1      -3.018  10.807  18.167  0.00  0.00    +0.000 OA
ATOM     23  O   UNL     1      -2.203  12.363  19.999  0.00  0.00    +0.000 OA
BRANCH  21  24
ATOM     24  N   UNL     1      -1.288  12.550  17.677  0.00  0.00    +0.000 NA
ATOM     25  H   UNL     1      -0.960  12.113  16.820  0.00  0.00    +0.000 HD
ATOM     26  H   UNL     1      -0.934  13.448  17.991  0.00  0.00    +0.000 HD
ENDBRANCH  21  24
ENDBRANCH  18  21
ENDBRANCH  13  15
ENDBRANCH  12  13
BRANCH   1  27
ATOM     27  O   UNL     1       2.192   3.744  17.715  0.00  0.00    +0.000 OA
BRANCH  27  28
ATOM     28  C   UNL     1       1.018   3.334  18.411  0.00  0.00    +0.000 C 
BRANCH  28  29
ATOM     29  C   UNL     1       1.424   2.405  19.546  0.00  0.00    +0.000 C 
BRANCH  29  31
ATOM     30  C   UNL     1       2.146   3.037  21.874  0.00  0.00    +0.000 C 
ATOM     31  C   UNL     1       0.990   2.978  20.891  0.00  0.00    +0.000 C 
ENDBRANCH  29  31
ENDBRANCH  28  29
ENDBRANCH  27  28
ENDBRANCH   1  27
TORSDOF 8
ENDMDL
MODEL 3
REMARK VINA RESULT:      -8.1      4.328      9.305
REMARK  Name = 
REMARK  9 active torsions:
REMARK  status: ('A' for Active; 'I' for Inactive)
REMARK    1  A    between atoms: C_1  and  C_2
REMARK    2  A    between atoms: C_2  and  C_3
REMARK    3  A    between atoms: C_3  and  C_4
REMARK    4  A    between atoms: C_4  and  O_5
REMARK    5  A    between atoms: O_5  and  C_6
REMARK    6  A    between atoms: C_17  and  N_18
REMARK    7  A    between atoms: N_18  and  C_19
REMARK    8  A    between atoms: C_22  and  S_23
REMARK    9  A    between atoms: S_23  and  N_24
REMARK                            x       y       z     vdW  Elec       q    Type
REMARK                         _______ _______ _______ _____ _____    ______ ____
ROOT
ATOM      1  C   UNL     1       2.560   5.493  20.016  0.00  0.00    +0.000 C 
ATOM      2  O   UNL     1       3.935   5.132  19.800  0.00  0.00    +0.000 OA
ATOM      3  C   UNL     1       4.387   5.438  18.544  0.00  0.00    +0.000 A 
ATOM      4  C   UNL     1       5.386   4.630  18.008  0.00  0.00    +0.000 A 
ATOM      5  C   UNL     1       5.914   4.922  16.748  0.00  0.00    +0.000 A 
ATOM      6  C   UNL     1       5.452   6.028  16.032  0.00  0.00    +0.000 A 
ATOM      7  C   UNL     1       4.457   6.843  16.573  0.00  0.00    +0.000 A 
ATOM      8  C   UNL     1       3.924   6.541  17.829  0.00  0.00    +0.000 A 
ATOM      9  C   UNL     1       2.917   7.422  18.440  0.00  0.00    +0.000 C 
ATOM     10  O   UNL     1       2.647   8.511  17.937  0.00  0.00    +0.000 OA
ATOM     11  C   UNL     1       2.292   6.928  19.690  0.00  0.00    +0.000 C 
ATOM     12  C   UNL     1       1.556   7.759  20.448  0.00  0.00    +0.000 C 
ENDROOT
BRANCH  12  13
ATOM     13  N   UNL     1       1.311   9.089  20.214  0.00  0.00    +0.000 N 
ATOM     14  H   UNL     1       1.773   9.459  19.375  0.00  0.00    +0.000 HD
BRANCH  13  15
ATOM     15  C   UNL     1       0.427   9.961  20.858  0.00  0.00    +0.000 A 
ATOM     16  C   UNL     1       0.195   9.777  22.231  0.00  0.00    +0.000 A 
ATOM     17  C   UNL     1      -0.727  10.565  22.921  0.00  0.00    +0.000 A 
ATOM     18  C   UNL     1      -1.405  11.574  22.238  0.00  0.00    +0.000 A 
ATOM     19  C   UNL     1      -1.215  11.759  20.868  0.00  0.00    +0.000 A 
ATOM     20  C   UNL     1      -0.309  10.944  20.184  0.00  0.00    +0.000 A 
BRANCH  18  21
ATOM     21  S   UNL     1      -2.486  12.661  23.123  0.00  0.00    +0.000 S 
ATOM     22  O   UNL     1      -3.455  11.863  23.838  0.00  0.00    +0.000 OA
ATOM     23  O   UNL     1      -1.693  13.688  23.756  0.00  0.00    +0.000 OA
BRANCH  21  24
ATOM     24  N   UNL     1      -3.284  13.375  21.848  0.00  0.00    +0.000 NA
ATOM     25  H   UNL     1      -4.297  13.428  21.906  0.00  0.00    +0.000 HD
ATOM     26  H   UNL     1      -2.793  13.425  20.962  0.00  0.00    +0.000 HD
ENDBRANCH  21  24
ENDBRANCH  18  21
ENDBRANCH  13  15
ENDBRANCH  12  13
BRANCH   1  27
ATOM     27  O   UNL     1       1.660   4.680  19.254  0.00  0.00    +0.000 OA
BRANCH  27  28
ATOM     28  C   UNL     1       1.052   3.673  20.059  0.00  0.00    +0.000 C 
BRANCH  28  29
ATOM     29  C   UNL     1       1.329   2.315  19.432  0.00  0.00    +0.000 C 
BRANCH  29  31
ATOM     30  C   UNL     1       3.363   1.696  18.084  0.00  0.00    +0.000 C 
ATOM     31  C   UNL     1       2.060   2.476  18.103  0.00  0.00    +0.000 C 
ENDBRANCH  29  31
ENDBRANCH  28  29
ENDBRANCH  27  28
ENDBRANCH   1  27
TORSDOF 8
ENDMDL
MODEL 4
REMARK VINA RESULT:      -8.1      4.316      9.274
REMARK  Name = 
REMARK  9 active torsions:
REMARK  status: ('A' for Active; 'I' for Inactive)
REMARK    1  A    between atoms: C_1  and  C_2
REMARK    2  A    between atoms: C_2  and  C_3
REMARK    3  A    between atoms: C_3  and  C_4
REMARK    4  A    between atoms: C_4  and  O_5
REMARK    5  A    between atoms: O_5  and  C_6
REMARK    6  A    between atoms: C_17  and  N_18
REMARK    7  A    between atoms: N_18  and  C_19
REMARK    8  A    between atoms: C_22  and  S_23
REMARK    9  A    between atoms: S_23  and  N_24
REMARK                            x       y       z     vdW  Elec       q    Type
REMARK                         _______ _______ _______ _____ _____    ______ ____
ROOT
ATOM      1  C   UNL     1       2.615   5.381  19.974  0.00  0.00    +0.000 C 
ATOM      2  O   UNL     1       3.990   5.043  19.727  0.00  0.00    +0.000 OA
ATOM      3  C   UNL     1       4.420   5.394  18.475  0.00  0.00    +0.000 A 
ATOM      4  C   UNL     1       5.420   4.617  17.899  0.00  0.00    +0.000 A 
ATOM      5  C   UNL     1       5.926   4.955  16.641  0.00  0.00    +0.000 A 
ATOM      6  C   UNL     1       5.440   6.078  15.968  0.00  0.00    +0.000 A 
ATOM      7  C   UNL     1       4.445   6.863  16.549  0.00  0.00    +0.000 A 
ATOM      8  C   UNL     1       3.934   6.515  17.803  0.00  0.00    +0.000 A 
ATOM      9  C   UNL     1       2.927   7.364  18.456  0.00  0.00    +0.000 C 
ATOM     10  O   UNL     1       2.637   8.465  17.993  0.00  0.00    +0.000 OA
ATOM     11  C   UNL     1       2.325   6.822  19.698  0.00  0.00    +0.000 C 
ATOM     12  C   UNL     1       1.591   7.620  20.494  0.00  0.00    +0.000 C 
ENDROOT
BRANCH  12  13
ATOM     13  N   UNL     1       1.329   8.954  20.306  0.00  0.00    +0.000 N 
ATOM     14  H   UNL     1       1.827   9.372  19.512  0.00  0.00    +0.000 HD
BRANCH  13  15
ATOM     15  C   UNL     1       0.389   9.776  20.937  0.00  0.00    +0.000 A 
ATOM     16  C   UNL     1      -0.195  10.812  20.190  0.00  0.00    +0.000 A 
ATOM     17  C   UNL     1      -1.087  11.712  20.775  0.00  0.00    +0.000 A 
ATOM     18  C   UNL     1      -1.425  11.558  22.119  0.00  0.00    +0.000 A 
ATOM     19  C   UNL     1      -0.836  10.556  22.891  0.00  0.00    +0.000 A 
ATOM     20  C   UNL     1       0.076   9.678  22.299  0.00  0.00    +0.000 A 
BRANCH  18  21
ATOM     21  S   UNL     1      -2.645  12.615  22.845  0.00  0.00    +0.000 S 
ATOM     22  O   UNL     1      -3.297  13.357  21.790  0.00  0.00    +0.000 OA
ATOM     23  O   UNL     1      -3.371  11.866  23.843  0.00  0.00    +0.000 OA
BRANCH  21  24
ATOM     24  N   UNL     1      -1.658  13.682  23.656  0.00  0.00    +0.000 NA
ATOM     25  H   UNL     1      -1.012  13.291  24.336  0.00  0.00    +0.000 HD
ATOM     26  H   UNL     1      -1.951  14.652  23.691  0.00  0.00    +0.000 HD
ENDBRANCH  21  24
ENDBRANCH  18  21
ENDBRANCH  13  15
ENDBRANCH  12  13
BRANCH   1  27
ATOM     27  O   UNL     1       1.713   4.582  19.199  0.00  0.00    +0.000 OA
BRANCH  27  28
ATOM     28  C   UNL     1       1.048   3.611  20.003  0.00  0.00    +0.000 C 
BRANCH  28  29
ATOM     29  C   UNL     1       1.350   2.228  19.445  0.00  0.00    +0.000 C 
BRANCH  29  31
ATOM     30  C   UNL     1       3.462   1.644  18.206  0.00  0.00    +0.000 C 
ATOM     31  C   UNL     1       2.112   2.335  18.127  0.00  0.00    +0.000 C 
ENDBRANCH  29  31
ENDBRANCH  28  29
ENDBRANCH  27  28
ENDBRANCH   1  27
TORSDOF 8
ENDMDL
MODEL 5
REMARK VINA RESULT:      -8.0      0.740      1.272
REMARK  Name = 
REMARK  9 active torsions:
REMARK  status: ('A' for Active; 'I' for Inactive)
REMARK    1  A    between atoms: C_1  and  C_2
REMARK    2  A    between atoms: C_2  and  C_3
REMARK    3  A    between atoms: C_3  and  C_4
REMARK    4  A    between atoms: C_4  and  O_5
REMARK    5  A    between atoms: O_5  and  C_6
REMARK    6  A    between atoms: C_17  and  N_18
REMARK    7  A    between atoms: N_18  and  C_19
REMARK    8  A    between atoms: C_22  and  S_23
REMARK    9  A    between atoms: S_23  and  N_24
REMARK                            x       y       z     vdW  Elec       q    Type
REMARK                         _______ _______ _______ _____ _____    ______ ____
ROOT
ATOM      1  C   UNL     1       0.132  10.511  18.388  0.00  0.00    +0.000 C 
ATOM      2  O   UNL     1       0.090  11.639  19.278  0.00  0.00    +0.000 OA
ATOM      3  C   UNL     1      -0.312  11.318  20.547  0.00  0.00    +0.000 A 
ATOM      4  C   UNL     1      -0.983  12.296  21.274  0.00  0.00    +0.000 A 
ATOM      5  C   UNL     1      -1.378  12.036  22.589  0.00  0.00    +0.000 A 
ATOM      6  C   UNL     1      -1.091  10.803  23.177  0.00  0.00    +0.000 A 
ATOM      7  C   UNL     1      -0.411   9.825  22.452  0.00  0.00    +0.000 A 
ATOM      8  C   UNL     1      -0.027  10.086  21.134  0.00  0.00    +0.000 A 
ATOM      9  C   UNL     1       0.742   9.089  20.373  0.00  0.00    +0.000 C 
ATOM     10  O   UNL     1       1.194   8.088  20.927  0.00  0.00    +0.000 OA
ATOM     11  C   UNL     1       0.952   9.387  18.936  0.00  0.00    +0.000 C 
ATOM     12  C   UNL     1       1.843   8.673  18.225  0.00  0.00    +0.000 C 
ENDROOT
BRANCH  12  13
ATOM     13  N   UNL     1       2.646   7.660  18.688  0.00  0.00    +0.000 N 
ATOM     14  H   UNL     1       2.404   7.331  19.630  0.00  0.00    +0.000 HD
BRANCH  13  15
ATOM     15  C   UNL     1       3.632   6.927  18.020  0.00  0.00    +0.000 A 
ATOM     16  C   UNL     1       4.023   5.692  18.562  0.00  0.00    +0.000 A 
ATOM     17  C   UNL     1       5.049   4.941  17.987  0.00  0.00    +0.000 A 
ATOM     18  C   UNL     1       5.676   5.415  16.836  0.00  0.00    +0.000 A 
ATOM     19  C   UNL     1       5.328   6.654  16.295  0.00  0.00    +0.000 A 
ATOM     20  C   UNL     1       4.316   7.408  16.897  0.00  0.00    +0.000 A 
BRANCH  18  21
ATOM     21  S   UNL     1       6.895   4.421  16.026  0.00  0.00    +0.000 S 
ATOM     22  O   UNL     1       7.989   4.197  16.942  0.00  0.00    +0.000 OA
ATOM     23  O   UNL     1       6.227   3.351  15.323  0.00  0.00    +0.000 OA
BRANCH  21  24
ATOM     24  N   UNL     1       7.431   5.500  14.877  0.00  0.00    +0.000 NA
ATOM     25  H   UNL     1       6.845   6.308  14.689  0.00  0.00    +0.000 HD
ATOM     26  H   UNL     1       8.111   5.162  14.204  0.00  0.00    +0.000 HD
ENDBRANCH  21  24
ENDBRANCH  18  21
ENDBRANCH  13  15
ENDBRANCH  12  13
BRANCH   1  27
ATOM     27  O   UNL     1      -1.175  10.011  18.085  0.00  0.00    +0.000 OA
BRANCH  27  28
ATOM     28  C   UNL     1      -2.060  11.057  17.693  0.00  0.00    +0.000 C 
BRANCH  28  29
ATOM     29  C   UNL     1      -3.304  10.437  17.074  0.00  0.00    +0.000 C 
BRANCH  29  31
ATOM     30  C   UNL     1      -2.996  10.063  14.603  0.00  0.00    +0.000 C 
ATOM     31  C   UNL     1      -3.541  10.993  15.672  0.00  0.00    +0.000 C 
ENDBRANCH  29  31
ENDBRANCH  28  29
ENDBRANCH  27  28
ENDBRANCH   1  27
TORSDOF 8
ENDMDL
MODEL 6
REMARK VINA RESULT:      -8.0      0.963      1.275
REMARK  Name = 
REMARK  9 active torsions:
REMARK  status: ('A' for Active; 'I' for Inactive)
REMARK    1  A    between atoms: C_1  and  C_2
REMARK    2  A    between atoms: C_2  and  C_3
REMARK    3  A    between atoms: C_3  and  C_4
REMARK    4  A    between atoms: C_4  and  O_5
REMARK    5  A    between atoms: O_5  and  C_6
REMARK    6  A    between atoms: C_17  and  N_18
REMARK    7  A    between atoms: N_18  and  C_19
REMARK    8  A    between atoms: C_22  and  S_23
REMARK    9  A    between atoms: S_23  and  N_24
REMARK                            x       y       z     vdW  Elec       q    Type
REMARK                         _______ _______ _______ _____ _____    ______ ____
ROOT
ATOM      1  C   UNL     1       0.158  10.444  18.528  0.00  0.00    +0.000 C 
ATOM      2  O   UNL     1       0.124  11.552  19.443  0.00  0.00    +0.000 OA
ATOM      3  C   UNL     1      -0.294  11.208  20.701  0.00  0.00    +0.000 A 
ATOM      4  C   UNL     1      -0.957  12.179  21.445  0.00  0.00    +0.000 A 
ATOM      5  C   UNL     1      -1.367  11.894  22.750  0.00  0.00    +0.000 A 
ATOM      6  C   UNL     1      -1.103  10.644  23.312  0.00  0.00    +0.000 A 
ATOM      7  C   UNL     1      -0.431   9.673  22.570  0.00  0.00    +0.000 A 
ATOM      8  C   UNL     1      -0.031   9.958  21.261  0.00  0.00    +0.000 A 
ATOM      9  C   UNL     1       0.730   8.968  20.485  0.00  0.00    +0.000 C 
ATOM     10  O   UNL     1       1.163   7.949  21.019  0.00  0.00    +0.000 OA
ATOM     11  C   UNL     1       0.957   9.296  19.057  0.00  0.00    +0.000 C 
ATOM     12  C   UNL     1       1.844   8.586  18.337  0.00  0.00    +0.000 C 
ENDROOT
BRANCH  12  13
ATOM     13  N   UNL     1       2.628   7.551  18.783  0.00  0.00    +0.000 N 
ATOM     14  H   UNL     1       2.354   7.184  19.702  0.00  0.00    +0.000 HD
BRANCH  13  15
ATOM     15  C   UNL     1       3.634   6.843  18.118  0.00  0.00    +0.000 A 
ATOM     16  C   UNL     1       4.112   7.354  16.900  0.00  0.00    +0.000 A 
ATOM     17  C   UNL     1       5.065   6.663  16.150  0.00  0.00    +0.000 A 
ATOM     18  C   UNL     1       5.572   5.459  16.637  0.00  0.00    +0.000 A 
ATOM     19  C   UNL     1       5.092   4.915  17.829  0.00  0.00    +0.000 A 
ATOM     20  C   UNL     1       4.118   5.604  18.556  0.00  0.00    +0.000 A 
BRANCH  18  21
ATOM     21  S   UNL     1       6.867   4.632  15.759  0.00  0.00    +0.000 S 
ATOM     22  O   UNL     1       6.331   3.421  15.183  0.00  0.00    +0.000 OA
ATOM     23  O   UNL     1       7.603   5.609  14.991  0.00  0.00    +0.000 OA
BRANCH  21  24
ATOM     24  N   UNL     1       7.838   4.181  17.034  0.00  0.00    +0.000 NA
ATOM     25  H   UNL     1       8.793   4.527  17.036  0.00  0.00    +0.000 HD
ATOM     26  H   UNL     1       7.566   3.354  17.555  0.00  0.00    +0.000 HD
ENDBRANCH  21  24
ENDBRANCH  18  21
ENDBRANCH  13  15
ENDBRANCH  12  13
BRANCH   1  27
ATOM     27  O   UNL     1      -1.153   9.970  18.202  0.00  0.00    +0.000 OA
BRANCH  27  28
ATOM     28  C   UNL     1      -1.884  10.929  17.442  0.00  0.00    +0.000 C 
BRANCH  28  29
ATOM     29  C   UNL     1      -3.203  10.305  17.009  0.00  0.00    +0.000 C 
BRANCH  29  31
ATOM     30  C   UNL     1      -4.834  11.763  18.255  0.00  0.00    +0.000 C 
ATOM     31  C   UNL     1      -4.289  11.370  16.893  0.00  0.00    +0.000 C 
ENDBRANCH  29  31
ENDBRANCH  28  29
ENDBRANCH  27  28
ENDBRANCH   1  27
TORSDOF 8
ENDMDL
MODEL 7
REMARK VINA RESULT:      -7.9      3.848      8.732
REMARK  Name = 
REMARK  9 active torsions:
REMARK  status: ('A' for Active; 'I' for Inactive)
REMARK    1  A    between atoms: C_1  and  C_2
REMARK    2  A    between atoms: C_2  and  C_3
REMARK    3  A    between atoms: C_3  and  C_4
REMARK    4  A    between atoms: C_4  and  O_5
REMARK    5  A    between atoms: O_5  and  C_6
REMARK    6  A    between atoms: C_17  and  N_18
REMARK    7  A    between atoms: N_18  and  C_19
REMARK    8  A    between atoms: C_22  and  S_23
REMARK    9  A    between atoms: S_23  and  N_24
REMARK                            x       y       z     vdW  Elec       q    Type
REMARK                         _______ _______ _______ _____ _____    ______ ____
ROOT
ATOM      1  C   UNL     1       3.346   6.451  17.635  0.00  0.00    +0.000 C 
ATOM      2  O   UNL     1       2.783   5.127  17.614  0.00  0.00    +0.000 OA
ATOM      3  C   UNL     1       2.582   4.601  18.862  0.00  0.00    +0.000 A 
ATOM      4  C   UNL     1       2.664   3.219  18.996  0.00  0.00    +0.000 A 
ATOM      5  C   UNL     1       2.425   2.625  20.238  0.00  0.00    +0.000 A 
ATOM      6  C   UNL     1       2.092   3.414  21.341  0.00  0.00    +0.000 A 
ATOM      7  C   UNL     1       2.001   4.800  21.206  0.00  0.00    +0.000 A 
ATOM      8  C   UNL     1       2.251   5.390  19.963  0.00  0.00    +0.000 A 
ATOM      9  C   UNL     1       2.102   6.842  19.788  0.00  0.00    +0.000 C 
ATOM     10  O   UNL     1       1.605   7.535  20.675  0.00  0.00    +0.000 OA
ATOM     11  C   UNL     1       2.553   7.391  18.486  0.00  0.00    +0.000 C 
ATOM     12  C   UNL     1       2.230   8.649  18.138  0.00  0.00    +0.000 C 
ENDROOT
BRANCH  12  13
ATOM     13  N   UNL     1       1.475   9.537  18.864  0.00  0.00    +0.000 N 
ATOM     14  H   UNL     1       2.000  10.040  19.589  0.00  0.00    +0.000 HD
BRANCH  13  15
ATOM     15  C   UNL     1       0.154   9.952  18.669  0.00  0.00    +0.000 A 
ATOM     16  C   UNL     1      -0.512   9.524  17.509  0.00  0.00    +0.000 A 
ATOM     17  C   UNL     1      -1.807   9.957  17.216  0.00  0.00    +0.000 A 
ATOM     18  C   UNL     1      -2.458  10.805  18.110  0.00  0.00    +0.000 A 
ATOM     19  C   UNL     1      -1.808  11.269  19.255  0.00  0.00    +0.000 A 
ATOM     20  C   UNL     1      -0.502  10.849  19.521  0.00  0.00    +0.000 A 
BRANCH  18  21
ATOM     21  S   UNL     1      -4.142  11.266  17.816  0.00  0.00    +0.000 S 
ATOM     22  O   UNL     1      -4.262  11.718  16.449  0.00  0.00    +0.000 OA
ATOM     23  O   UNL     1      -5.004  10.261  18.391  0.00  0.00    +0.000 OA
BRANCH  21  24
ATOM     24  N   UNL     1      -4.246  12.614  18.788  0.00  0.00    +0.000 NA
ATOM     25  H   UNL     1      -4.194  12.467  19.792  0.00  0.00    +0.000 HD
ATOM     26  H   UNL     1      -4.673  13.443  18.389  0.00  0.00    +0.000 HD
ENDBRANCH  21  24
ENDBRANCH  18  21
ENDBRANCH  13  15
ENDBRANCH  12  13
BRANCH   1  27
ATOM     27  O   UNL     1       4.701   6.456  18.098  0.00  0.00    +0.000 OA
BRANCH  27  28
ATOM     28  C   UNL     1       5.522   5.580  17.329  0.00  0.00    +0.000 C 
BRANCH  28  29
ATOM     29  C   UNL     1       6.681   6.380  16.753  0.00  0.00    +0.000 C 
BRANCH  29  31
ATOM     30  C   UNL     1       7.889   5.964  18.922  0.00  0.00    +0.000 C 
ATOM     31  C   UNL     1       7.518   6.994  17.871  0.00  0.00    +0.000 C 
ENDBRANCH  29  31
ENDBRANCH  28  29
ENDBRANCH  27  28
ENDBRANCH   1  27
TORSDOF 8
ENDMDL
MODEL 8
REMARK VINA RESULT:      -7.8      4.200      9.263
REMARK  Name = 
REMARK  9 active torsions:
REMARK  status: ('A' for Active; 'I' for Inactive)
REMARK    1  A    between atoms: C_1  and  C_2
REMARK    2  A    between atoms: C_2  and  C_3
REMARK    3  A    between atoms: C_3  and  C_4
REMARK    4  A    between atoms: C_4  and  O_5
REMARK    5  A    between atoms: O_5  and  C_6
REMARK    6  A    between atoms: C_17  and  N_18
REMARK    7  A    between atoms: N_18  and  C_19
REMARK    8  A    between atoms: C_22  and  S_23
REMARK    9  A    between atoms: S_23  and  N_24
REMARK                            x       y       z     vdW  Elec       q    Type
REMARK                         _______ _______ _______ _____ _____    ______ ____
ROOT
ATOM      1  C   UNL     1       3.521   6.398  18.110  0.00  0.00    +0.000 C 
ATOM      2  O   UNL     1       3.171   5.244  17.327  0.00  0.00    +0.000 OA
ATOM      3  C   UNL     1       3.219   4.072  18.033  0.00  0.00    +0.000 A 
ATOM      4  C   UNL     1       3.529   2.912  17.330  0.00  0.00    +0.000 A 
ATOM      5  C   UNL     1       3.550   1.682  17.993  0.00  0.00    +0.000 A 
ATOM      6  C   UNL     1       3.248   1.612  19.354  0.00  0.00    +0.000 A 
ATOM      7  C   UNL     1       2.928   2.773  20.058  0.00  0.00    +0.000 A 
ATOM      8  C   UNL     1       2.918   4.003  19.393  0.00  0.00    +0.000 A 
ATOM      9  C   UNL     1       2.526   5.229  20.105  0.00  0.00    +0.000 C 
ATOM     10  O   UNL     1       2.050   5.173  21.237  0.00  0.00    +0.000 OA
ATOM     11  C   UNL     1       2.712   6.500  19.364  0.00  0.00    +0.000 C 
ATOM     12  C   UNL     1       2.157   7.634  19.825  0.00  0.00    +0.000 C 
ENDROOT
BRANCH  12  13
ATOM     13  N   UNL     1       1.377   7.774  20.946  0.00  0.00    +0.000 N 
ATOM     14  H   UNL     1       1.475   7.009  21.624  0.00  0.00    +0.000 HD
BRANCH  13  15
ATOM     15  C   UNL     1       0.592   8.855  21.358  0.00  0.00    +0.000 A 
ATOM     16  C   UNL     1       0.184   9.787  20.389  0.00  0.00    +0.000 A 
ATOM     17  C   UNL     1      -0.542  10.927  20.740  0.00  0.00    +0.000 A 
ATOM     18  C   UNL     1      -0.893  11.124  22.074  0.00  0.00    +0.000 A 
ATOM     19  C   UNL     1      -0.475  10.230  23.061  0.00  0.00    +0.000 A 
ATOM     20  C   UNL     1       0.274   9.107  22.698  0.00  0.00    +0.000 A 
BRANCH  18  21
ATOM     21  S   UNL     1      -1.915  12.498  22.520  0.00  0.00    +0.000 S 
ATOM     22  O   UNL     1      -1.137  13.406  23.332  0.00  0.00    +0.000 OA
ATOM     23  O   UNL     1      -2.653  12.923  21.354  0.00  0.00    +0.000 OA
BRANCH  21  24
ATOM     24  N   UNL     1      -2.996  11.739  23.533  0.00  0.00    +0.000 NA
ATOM     25  H   UNL     1      -2.962  11.986  24.517  0.00  0.00    +0.000 HD
ATOM     26  H   UNL     1      -3.396  10.863  23.213  0.00  0.00    +0.000 HD
ENDBRANCH  21  24
ENDBRANCH  18  21
ENDBRANCH  13  15
ENDBRANCH  12  13
BRANCH   1  27
ATOM     27  O   UNL     1       4.909   6.411  18.465  0.00  0.00    +0.000 OA
BRANCH  27  28
ATOM     28  C   UNL     1       5.738   6.659  17.333  0.00  0.00    +0.000 C 
BRANCH  28  29
ATOM     29  C   UNL     1       7.128   6.109  17.617  0.00  0.00    +0.000 C 
BRANCH  29  31
ATOM     30  C   UNL     1       6.579   4.389  15.863  0.00  0.00    +0.000 C 
ATOM     31  C   UNL     1       7.217   4.639  17.218  0.00  0.00    +0.000 C 
ENDBRANCH  29  31
ENDBRANCH  28  29
ENDBRANCH  27  28
ENDBRANCH   1  27
TORSDOF 8
ENDMDL
MODEL 9
REMARK VINA RESULT:      -7.8      3.597      8.909
REMARK  Name = 
REMARK  9 active torsions:
REMARK  status: ('A' for Active; 'I' for Inactive)
REMARK    1  A    between atoms: C_1  and  C_2
REMARK    2  A    between atoms: C_2  and  C_3
REMARK    3  A    between atoms: C_3  and  C_4
REMARK    4  A    between atoms: C_4  and  O_5
REMARK    5  A    between atoms: O_5  and  C_6
REMARK    6  A    between atoms: C_17  and  N_18
REMARK    7  A    between atoms: N_18  and  C_19
REMARK    8  A    between atoms: C_22  and  S_23
REMARK    9  A    between atoms: S_23  and  N_24
REMARK                            x       y       z     vdW  Elec       q    Type
REMARK                         _______ _______ _______ _____ _____    ______ ____
ROOT
ATOM      1  C   UNL     1       3.182   4.079  18.512  0.00  0.00    +0.000 C 
ATOM      2  O   UNL     1       4.466   3.570  18.112  0.00  0.00    +0.000 OA
ATOM      3  C   UNL     1       4.963   4.170  16.987  0.00  0.00    +0.000 A 
ATOM      4  C   UNL     1       5.793   3.411  16.169  0.00  0.00    +0.000 A 
ATOM      5  C   UNL     1       6.363   3.987  15.030  0.00  0.00    +0.000 A 
ATOM      6  C   UNL     1       6.111   5.324  14.719  0.00  0.00    +0.000 A 
ATOM      7  C   UNL     1       5.286   6.089  15.544  0.00  0.00    +0.000 A 
ATOM      8  C   UNL     1       4.710   5.506  16.676  0.00  0.00    +0.000 A 
ATOM      9  C   UNL     1       3.885   6.312  17.589  0.00  0.00    +0.000 C 
ATOM     10  O   UNL     1       3.820   7.533  17.464  0.00  0.00    +0.000 OA
ATOM     11  C   UNL     1       3.183   5.567  18.661  0.00  0.00    +0.000 C 
ATOM     12  C   UNL     1       2.615   6.233  19.682  0.00  0.00    +0.000 C 
ENDROOT
BRANCH  12  13
ATOM     13  N   UNL     1       2.621   7.591  19.885  0.00  0.00    +0.000 N 
ATOM     14  H   UNL     1       3.525   7.966  20.193  0.00  0.00    +0.000 HD
BRANCH  13  15
ATOM     15  C   UNL     1       1.634   8.540  19.598  0.00  0.00    +0.000 A 
ATOM     16  C   UNL     1       0.806   8.974  20.647  0.00  0.00    +0.000 A 
ATOM     17  C   UNL     1      -0.243   9.866  20.419  0.00  0.00    +0.000 A 
ATOM     18  C   UNL     1      -0.451  10.356  19.131  0.00  0.00    +0.000 A 
ATOM     19  C   UNL     1       0.337   9.918  18.066  0.00  0.00    +0.000 A 
ATOM     20  C   UNL     1       1.368   9.003  18.304  0.00  0.00    +0.000 A 
BRANCH  18  21
ATOM     21  S   UNL     1      -1.699  11.579  18.846  0.00  0.00    +0.000 S 
ATOM     22  O   UNL     1      -1.098  12.695  18.153  0.00  0.00    +0.000 OA
ATOM     23  O   UNL     1      -2.897  10.918  18.384  0.00  0.00    +0.000 OA
BRANCH  21  24
ATOM     24  N   UNL     1      -1.984  12.070  20.411  0.00  0.00    +0.000 NA
ATOM     25  H   UNL     1      -1.210  12.007  21.066  0.00  0.00    +0.000 HD
ATOM     26  H   UNL     1      -2.949  12.094  20.722  0.00  0.00    +0.000 HD
ENDBRANCH  21  24
ENDBRANCH  18  21
ENDBRANCH  13  15
ENDBRANCH  12  13
BRANCH   1  27
ATOM     27  O   UNL     1       2.145   3.717  17.593  0.00  0.00    +0.000 OA
BRANCH  27  28
ATOM     28  C   UNL     1       0.992   3.221  18.270  0.00  0.00    +0.000 C 
BRANCH  28  29
ATOM     29  C   UNL     1       1.447   2.378  19.452  0.00  0.00    +0.000 C 
BRANCH  29  31
ATOM     30  C   UNL     1       2.067   3.002  21.811  0.00  0.00    +0.000 C 
ATOM     31  C   UNL     1       0.966   2.989  20.765  0.00  0.00    +0.000 C 
ENDBRANCH  29  31
ENDBRANCH  28  29
ENDBRANCH  27  28
ENDBRANCH   1  27
TORSDOF 8
ENDMDL
