MODEL 1
REMARK VINA RESULT:      -7.5      0.000      0.000
REMARK  Name = 
REMARK  6 active torsions:
REMARK  status: ('A' for Active; 'I' for Inactive)
REMARK    1  A    between atoms: N_1  and  S_2
REMARK    2  A    between atoms: S_2  and  C_5
REMARK    3  A    between atoms: C_8  and  N_9
REMARK    4  A    between atoms: N_9  and  C_10
REMARK    5  A    between atoms: C_10  and  N_12
REMARK    6  A    between atoms: N_15  and  C_16
REMARK                            x       y       z     vdW  Elec       q    Type
REMARK                         _______ _______ _______ _____ _____    ______ ____
ROOT
ATOM      1  C   UNL     1       2.651   5.058  20.006  0.00  0.00    +0.000 C 
ATOM      2  S   UNL     1       1.309   4.200  20.518  0.00  0.00    +0.000 S 
ENDROOT
BRANCH   1   3
ATOM      3  N   UNL     1       3.610   4.369  19.286  0.00  0.00    +0.000 N 
ATOM      4  C   UNL     1       4.088   4.699  18.033  0.00  0.00    +0.000 C 
ATOM      5  O   UNL     1       3.597   5.594  17.348  0.00  0.00    +0.000 OA
ATOM      6  N   UNL     1       5.119   3.882  17.616  0.00  0.00    +0.000 N 
ATOM      7  H   UNL     1       4.131   3.695  19.827  0.00  0.00    +0.000 HD
ATOM      8  H   UNL     1       5.012   2.906  17.853  0.00  0.00    +0.000 HD
BRANCH   6   9
ATOM      9  C   UNL     1       5.801   4.170  16.414  0.00  0.00    +0.000 A 
ATOM     10  C   UNL     1       6.977   4.933  16.419  0.00  0.00    +0.000 A 
ATOM     11  C   UNL     1       7.622   5.240  15.221  0.00  0.00    +0.000 A 
ATOM     12  C   UNL     1       7.082   4.798  14.017  0.00  0.00    +0.000 A 
ATOM     13 CL   UNL     1       7.857   5.198  12.535  0.00  0.00    +0.000 Cl
ATOM     14  C   UNL     1       5.914   4.034  14.005  0.00  0.00    +0.000 A 
ATOM     15  C   UNL     1       5.285   3.696  15.208  0.00  0.00    +0.000 A 
ENDBRANCH   6   9
ENDBRANCH   1   3
BRANCH   1  16
ATOM     16  N   UNL     1       2.899   6.399  20.175  0.00  0.00    +0.000 N 
ATOM     17  H   UNL     1       3.818   6.616  20.563  0.00  0.00    +0.000 HD
BRANCH  16  21
ATOM     18  C   UNL     1       0.607   9.815  19.379  0.00  0.00    +0.000 A 
ATOM     19  C   UNL     1       0.581   9.278  20.666  0.00  0.00    +0.000 A 
ATOM     20  C   UNL     1       1.321   8.124  20.942  0.00  0.00    +0.000 A 
ATOM     21  C   UNL     1       2.085   7.516  19.941  0.00  0.00    +0.000 A 
ATOM     22  C   UNL     1       2.139   8.092  18.668  0.00  0.00    +0.000 A 
ATOM     23  C   UNL     1       1.377   9.223  18.374  0.00  0.00    +0.000 A 
BRANCH  18  24
ATOM     24  S   UNL     1      -0.347  11.245  18.971  0.00  0.00    +0.000 S 
ATOM     25  O   UNL     1       0.542  12.352  18.680  0.00  0.00    +0.000 OA
ATOM     26  O   UNL     1      -1.451  11.354  19.892  0.00  0.00    +0.000 OA
BRANCH  24  27
ATOM     27  N   UNL     1      -1.014  10.787  17.501  0.00  0.00    +0.000 NA
ATOM     28  H   UNL     1      -1.495  11.585  17.083  0.00  0.00    +0.000 HD
ATOM     29  H   UNL     1      -1.604   9.964  17.621  0.00  0.00    +0.000 HD
ENDBRANCH  24  27
ENDBRANCH  18  24
ENDBRANCH  16  21
ENDBRANCH   1  16
TORSDOF 6
ENDMDL
MODEL 2
REMARK VINA RESULT:      -7.4      0.152      1.000
REMARK  Name = 
REMARK  6 active torsions:
REMARK  status: ('A' for Active; 'I' for Inactive)
REMARK    1  A    between atoms: N_1  and  S_2
REMARK    2  A    between atoms: S_2  and  C_5
REMARK    3  A    between atoms: C_8  and  N_9
REMARK    4  A    between atoms: N_9  and  C_10
REMARK    5  A    between atoms: C_10  and  N_12
REMARK    6  A    between atoms: N_15  and  C_16
REMARK                            x       y       z     vdW  Elec       q    Type
REMARK                         _______ _______ _______ _____ _____    ______ ____
ROOT
ATOM      1  C   UNL     1       2.562   4.922  19.934  0.00  0.00    +0.000 C 
ATOM      2  S   UNL     1       1.153   4.085  20.273  0.00  0.00    +0.000 S 
ENDROOT
BRANCH   1   3
ATOM      3  N   UNL     1       3.542   4.254  19.221  0.00  0.00    +0.000 N 
ATOM      4  C   UNL     1       4.038   4.608  17.982  0.00  0.00    +0.000 C 
ATOM      5  O   UNL     1       3.550   5.507  17.301  0.00  0.00    +0.000 OA
ATOM      6  N   UNL     1       5.087   3.810  17.572  0.00  0.00    +0.000 N 
ATOM      7  H   UNL     1       4.061   3.579  19.762  0.00  0.00    +0.000 HD
ATOM      8  H   UNL     1       4.987   2.829  17.793  0.00  0.00    +0.000 HD
BRANCH   6   9
ATOM      9  C   UNL     1       5.787   4.124  16.388  0.00  0.00    +0.000 A 
ATOM     10  C   UNL     1       6.970   4.875  16.428  0.00  0.00    +0.000 A 
ATOM     11  C   UNL     1       7.633   5.208  15.247  0.00  0.00    +0.000 A 
ATOM     12  C   UNL     1       7.105   4.803  14.025  0.00  0.00    +0.000 A 
ATOM     13 CL   UNL     1       7.903   5.236  12.565  0.00  0.00    +0.000 Cl
ATOM     14  C   UNL     1       5.930   4.050  13.978  0.00  0.00    +0.000 A 
ATOM     15  C   UNL     1       5.283   3.686  15.163  0.00  0.00    +0.000 A 
ENDBRANCH   6   9
ENDBRANCH   1   3
BRANCH   1  16
ATOM     16  N   UNL     1       2.850   6.230  20.239  0.00  0.00    +0.000 N 
ATOM     17  H   UNL     1       3.662   6.355  20.847  0.00  0.00    +0.000 HD
BRANCH  16  21
ATOM     18  C   UNL     1       0.733   9.717  19.285  0.00  0.00    +0.000 A 
ATOM     19  C   UNL     1       1.495   9.105  18.290  0.00  0.00    +0.000 A 
ATOM     20  C   UNL     1       2.227   7.954  18.599  0.00  0.00    +0.000 A 
ATOM     21  C   UNL     1       2.192   7.418  19.889  0.00  0.00    +0.000 A 
ATOM     22  C   UNL     1       1.387   8.014  20.864  0.00  0.00    +0.000 A 
ATOM     23  C   UNL     1       0.681   9.181  20.575  0.00  0.00    +0.000 A 
BRANCH  18  24
ATOM     24  S   UNL     1      -0.172  11.198  18.955  0.00  0.00    +0.000 S 
ATOM     25  O   UNL     1       0.754  12.275  18.665  0.00  0.00    +0.000 OA
ATOM     26  O   UNL     1      -1.237  11.325  19.918  0.00  0.00    +0.000 OA
BRANCH  24  27
ATOM     27  N   UNL     1      -0.910  10.815  17.498  0.00  0.00    +0.000 NA
ATOM     28  H   UNL     1      -1.682  11.462  17.328  0.00  0.00    +0.000 HD
ATOM     29  H   UNL     1      -1.182   9.833  17.485  0.00  0.00    +0.000 HD
ENDBRANCH  24  27
ENDBRANCH  18  24
ENDBRANCH  16  21
ENDBRANCH   1  16
TORSDOF 6
ENDMDL
MODEL 3
REMARK VINA RESULT:      -7.4      4.167      7.565
REMARK  Name = 
REMARK  6 active torsions:
REMARK  status: ('A' for Active; 'I' for Inactive)
REMARK    1  A    between atoms: N_1  and  S_2
REMARK    2  A    between atoms: S_2  and  C_5
REMARK    3  A    between atoms: C_8  and  N_9
REMARK    4  A    between atoms: N_9  and  C_10
REMARK    5  A    between atoms: C_10  and  N_12
REMARK    6  A    between atoms: N_15  and  C_16
REMARK                            x       y       z     vdW  Elec       q    Type
REMARK                         _______ _______ _______ _____ _____    ______ ____
ROOT
ATOM      1  C   UNL     1       2.671   3.586  20.892  0.00  0.00    +0.000 C 
ATOM      2  S   UNL     1       1.407   2.710  21.550  0.00  0.00    +0.000 S 
ENDROOT
BRANCH   1   3
ATOM      3  N   UNL     1       2.668   4.955  21.090  0.00  0.00    +0.000 N 
ATOM      4  C   UNL     1       2.029   5.895  20.306  0.00  0.00    +0.000 C 
ATOM      5  O   UNL     1       1.488   5.616  19.239  0.00  0.00    +0.000 OA
ATOM      6  N   UNL     1       2.119   7.175  20.816  0.00  0.00    +0.000 N 
ATOM      7  H   UNL     1       2.996   5.243  22.000  0.00  0.00    +0.000 HD
ATOM      8  H   UNL     1       3.014   7.409  21.222  0.00  0.00    +0.000 HD
BRANCH   6   9
ATOM      9  C   UNL     1       1.408   8.227  20.201  0.00  0.00    +0.000 A 
ATOM     10  C   UNL     1       1.756   8.679  18.920  0.00  0.00    +0.000 A 
ATOM     11  C   UNL     1       1.068   9.744  18.338  0.00  0.00    +0.000 A 
ATOM     12  C   UNL     1       0.042  10.366  19.044  0.00  0.00    +0.000 A 
ATOM     13 CL   UNL     1      -0.790  11.698  18.343  0.00  0.00    +0.000 Cl
ATOM     14  C   UNL     1      -0.312   9.918  20.317  0.00  0.00    +0.000 A 
ATOM     15  C   UNL     1       0.354   8.829  20.887  0.00  0.00    +0.000 A 
ENDBRANCH   6   9
ENDBRANCH   1   3
BRANCH   1  16
ATOM     16  N   UNL     1       3.758   3.098  20.207  0.00  0.00    +0.000 N 
ATOM     17  H   UNL     1       4.249   2.335  20.676  0.00  0.00    +0.000 HD
BRANCH  16  21
ATOM     18  C   UNL     1       5.502   4.463  16.651  0.00  0.00    +0.000 A 
ATOM     19  C   UNL     1       4.294   3.770  16.578  0.00  0.00    +0.000 A 
ATOM     20  C   UNL     1       3.711   3.286  17.754  0.00  0.00    +0.000 A 
ATOM     21  C   UNL     1       4.328   3.499  18.990  0.00  0.00    +0.000 A 
ATOM     22  C   UNL     1       5.514   4.236  19.052  0.00  0.00    +0.000 A 
ATOM     23  C   UNL     1       6.121   4.692  17.882  0.00  0.00    +0.000 A 
BRANCH  18  24
ATOM     24  S   UNL     1       6.300   5.053  15.188  0.00  0.00    +0.000 S 
ATOM     25  O   UNL     1       7.690   5.344  15.480  0.00  0.00    +0.000 OA
ATOM     26  O   UNL     1       5.432   5.992  14.523  0.00  0.00    +0.000 OA
BRANCH  24  27
ATOM     27  N   UNL     1       6.305   3.672  14.236  0.00  0.00    +0.000 NA
ATOM     28  H   UNL     1       6.978   3.002  14.613  0.00  0.00    +0.000 HD
ATOM     29  H   UNL     1       6.465   3.915  13.260  0.00  0.00    +0.000 HD
ENDBRANCH  24  27
ENDBRANCH  18  24
ENDBRANCH  16  21
ENDBRANCH   1  16
TORSDOF 6
ENDMDL
MODEL 4
REMARK VINA RESULT:      -7.4      4.150      7.506
REMARK  Name = 
REMARK  6 active torsions:
REMARK  status: ('A' for Active; 'I' for Inactive)
REMARK    1  A    between atoms: N_1  and  S_2
REMARK    2  A    between atoms: S_2  and  C_5
REMARK    3  A    between atoms: C_8  and  N_9
REMARK    4  A    between atoms: N_9  and  C_10
REMARK    5  A    between atoms: C_10  and  N_12
REMARK    6  A    between atoms: N_15  and  C_16
REMARK                            x       y       z     vdW  Elec       q    Type
REMARK                         _______ _______ _______ _____ _____    ______ ____
ROOT
ATOM      1  C   UNL     1       2.655   3.556  20.872  0.00  0.00    +0.000 C 
ATOM      2  S   UNL     1       1.446   2.687  21.634  0.00  0.00    +0.000 S 
ENDROOT
BRANCH   1   3
ATOM      3  N   UNL     1       2.674   4.926  21.065  0.00  0.00    +0.000 N 
ATOM      4  C   UNL     1       2.037   5.872  20.287  0.00  0.00    +0.000 C 
ATOM      5  O   UNL     1       1.476   5.596  19.229  0.00  0.00    +0.000 OA
ATOM      6  N   UNL     1       2.152   7.152  20.791  0.00  0.00    +0.000 N 
ATOM      7  H   UNL     1       3.019   5.213  21.970  0.00  0.00    +0.000 HD
ATOM      8  H   UNL     1       3.055   7.375  21.183  0.00  0.00    +0.000 HD
BRANCH   6   9
ATOM      9  C   UNL     1       1.446   8.212  20.182  0.00  0.00    +0.000 A 
ATOM     10  C   UNL     1       0.408   8.868  20.859  0.00  0.00    +0.000 A 
ATOM     11  C   UNL     1      -0.304   9.891  20.233  0.00  0.00    +0.000 A 
ATOM     12  C   UNL     1       0.012  10.247  18.925  0.00  0.00    +0.000 A 
ATOM     13 CL   UNL     1      -0.882  11.488  18.138  0.00  0.00    +0.000 Cl
ATOM     14  C   UNL     1       1.048   9.602  18.248  0.00  0.00    +0.000 A 
ATOM     15  C   UNL     1       1.786   8.600  18.886  0.00  0.00    +0.000 A 
ENDBRANCH   6   9
ENDBRANCH   1   3
BRANCH   1  16
ATOM     16  N   UNL     1       3.681   3.062  20.102  0.00  0.00    +0.000 N 
ATOM     17  H   UNL     1       4.058   2.168  20.421  0.00  0.00    +0.000 HD
BRANCH  16  21
ATOM     18  C   UNL     1       5.571   4.503  16.652  0.00  0.00    +0.000 A 
ATOM     19  C   UNL     1       6.136   4.794  17.894  0.00  0.00    +0.000 A 
ATOM     20  C   UNL     1       5.504   4.341  19.056  0.00  0.00    +0.000 A 
ATOM     21  C   UNL     1       4.321   3.599  18.976  0.00  0.00    +0.000 A 
ATOM     22  C   UNL     1       3.792   3.276  17.724  0.00  0.00    +0.000 A 
ATOM     23  C   UNL     1       4.396   3.752  16.561  0.00  0.00    +0.000 A 
BRANCH  18  24
ATOM     24  S   UNL     1       6.308   5.093  15.158  0.00  0.00    +0.000 S 
ATOM     25  O   UNL     1       7.709   5.385  15.393  0.00  0.00    +0.000 OA
ATOM     26  O   UNL     1       5.413   6.031  14.529  0.00  0.00    +0.000 OA
BRANCH  24  27
ATOM     27  N   UNL     1       6.275   3.712  14.207  0.00  0.00    +0.000 NA
ATOM     28  H   UNL     1       6.963   3.042  14.557  0.00  0.00    +0.000 HD
ATOM     29  H   UNL     1       6.397   3.954  13.225  0.00  0.00    +0.000 HD
ENDBRANCH  24  27
ENDBRANCH  18  24
ENDBRANCH  16  21
ENDBRANCH   1  16
TORSDOF 6
ENDMDL
MODEL 5
REMARK VINA RESULT:      -7.3      0.705      1.254
REMARK  Name = 
REMARK  6 active torsions:
REMARK  status: ('A' for Active; 'I' for Inactive)
REMARK    1  A    between atoms: N_1  and  S_2
REMARK    2  A    between atoms: S_2  and  C_5
REMARK    3  A    between atoms: C_8  and  N_9
REMARK    4  A    between atoms: N_9  and  C_10
REMARK    5  A    between atoms: C_10  and  N_12
REMARK    6  A    between atoms: N_15  and  C_16
REMARK                            x       y       z     vdW  Elec       q    Type
REMARK                         _______ _______ _______ _____ _____    ______ ____
ROOT
ATOM      1  C   UNL     1       2.555   4.935  20.065  0.00  0.00    +0.000 C 
ATOM      2  S   UNL     1       1.188   4.043  20.428  0.00  0.00    +0.000 S 
ENDROOT
BRANCH   1   3
ATOM      3  N   UNL     1       3.553   4.306  19.341  0.00  0.00    +0.000 N 
ATOM      4  C   UNL     1       3.994   4.654  18.080  0.00  0.00    +0.000 C 
ATOM      5  O   UNL     1       3.437   5.507  17.391  0.00  0.00    +0.000 OA
ATOM      6  N   UNL     1       5.075   3.906  17.660  0.00  0.00    +0.000 N 
ATOM      7  H   UNL     1       4.124   3.675  19.883  0.00  0.00    +0.000 HD
ATOM      8  H   UNL     1       5.037   2.928  17.908  0.00  0.00    +0.000 HD
BRANCH   6   9
ATOM      9  C   UNL     1       5.724   4.228  16.449  0.00  0.00    +0.000 A 
ATOM     10  C   UNL     1       5.218   3.781  15.220  0.00  0.00    +0.000 A 
ATOM     11  C   UNL     1       5.888   4.076  14.033  0.00  0.00    +0.000 A 
ATOM     12  C   UNL     1       7.073   4.806  14.077  0.00  0.00    +0.000 A 
ATOM     13 CL   UNL     1       7.918   5.147  12.619  0.00  0.00    +0.000 Cl
ATOM     14  C   UNL     1       7.579   5.258  15.296  0.00  0.00    +0.000 A 
ATOM     15  C   UNL     1       6.890   4.992  16.483  0.00  0.00    +0.000 A 
ENDBRANCH   6   9
ENDBRANCH   1   3
BRANCH   1  16
ATOM     16  N   UNL     1       2.793   6.256  20.360  0.00  0.00    +0.000 N 
ATOM     17  H   UNL     1       3.652   6.426  20.887  0.00  0.00    +0.000 HD
BRANCH  16  21
ATOM     18  C   UNL     1       0.672   9.760  19.481  0.00  0.00    +0.000 A 
ATOM     19  C   UNL     1       0.546   9.205  20.754  0.00  0.00    +0.000 A 
ATOM     20  C   UNL     1       1.228   8.022  21.056  0.00  0.00    +0.000 A 
ATOM     21  C   UNL     1       2.033   7.404  20.094  0.00  0.00    +0.000 A 
ATOM     22  C   UNL     1       2.187   7.997  18.838  0.00  0.00    +0.000 A 
ATOM     23  C   UNL     1       1.484   9.157  18.517  0.00  0.00    +0.000 A 
BRANCH  18  24
ATOM     24  S   UNL     1      -0.206  11.228  19.038  0.00  0.00    +0.000 S 
ATOM     25  O   UNL     1      -0.539  11.972  20.238  0.00  0.00    +0.000 OA
ATOM     26  O   UNL     1      -1.181  10.908  18.026  0.00  0.00    +0.000 OA
BRANCH  24  27
ATOM     27  N   UNL     1       0.994  12.109  18.265  0.00  0.00    +0.000 NA
ATOM     28  H   UNL     1       1.899  11.891  18.684  0.00  0.00    +0.000 HD
ATOM     29  H   UNL     1       0.764  13.102  18.270  0.00  0.00    +0.000 HD
ENDBRANCH  24  27
ENDBRANCH  18  24
ENDBRANCH  16  21
ENDBRANCH   1  16
TORSDOF 6
ENDMDL
MODEL 6
REMARK VINA RESULT:      -7.3      0.313      1.430
REMARK  Name = 
REMARK  6 active torsions:
REMARK  status: ('A' for Active; 'I' for Inactive)
REMARK    1  A    between atoms: N_1  and  S_2
REMARK    2  A    between atoms: S_2  and  C_5
REMARK    3  A    between atoms: C_8  and  N_9
REMARK    4  A    between atoms: N_9  and  C_10
REMARK    5  A    between atoms: C_10  and  N_12
REMARK    6  A    between atoms: N_15  and  C_16
REMARK                            x       y       z     vdW  Elec       q    Type
REMARK                         _______ _______ _______ _____ _____    ______ ____
ROOT
ATOM      1  C   UNL     1       2.472   4.732  19.972  0.00  0.00    +0.000 C 
ATOM      2  S   UNL     1       1.060   3.848  20.122  0.00  0.00    +0.000 S 
ENDROOT
BRANCH   1   3
ATOM      3  N   UNL     1       3.513   4.154  19.267  0.00  0.00    +0.000 N 
ATOM      4  C   UNL     1       3.957   4.523  18.012  0.00  0.00    +0.000 C 
ATOM      5  O   UNL     1       3.369   5.344  17.312  0.00  0.00    +0.000 OA
ATOM      6  N   UNL     1       5.082   3.832  17.613  0.00  0.00    +0.000 N 
ATOM      7  H   UNL     1       4.107   3.554  19.820  0.00  0.00    +0.000 HD
ATOM      8  H   UNL     1       5.091   2.853  17.862  0.00  0.00    +0.000 HD
BRANCH   6   9
ATOM      9  C   UNL     1       5.734   4.184  16.412  0.00  0.00    +0.000 A 
ATOM     10  C   UNL     1       5.277   3.705  15.177  0.00  0.00    +0.000 A 
ATOM     11  C   UNL     1       5.951   4.033  14.000  0.00  0.00    +0.000 A 
ATOM     12  C   UNL     1       7.092   4.828  14.062  0.00  0.00    +0.000 A 
ATOM     13 CL   UNL     1       7.944   5.211  12.618  0.00  0.00    +0.000 Cl
ATOM     14  C   UNL     1       7.550   5.313  15.288  0.00  0.00    +0.000 A 
ATOM     15  C   UNL     1       6.855   5.014  16.463  0.00  0.00    +0.000 A 
ENDBRANCH   6   9
ENDBRANCH   1   3
BRANCH   1  16
ATOM     16  N   UNL     1       2.713   6.005  20.429  0.00  0.00    +0.000 N 
ATOM     17  H   UNL     1       3.408   6.064  21.176  0.00  0.00    +0.000 HD
BRANCH  16  21
ATOM     18  C   UNL     1       0.824   9.610  19.433  0.00  0.00    +0.000 A 
ATOM     19  C   UNL     1       1.639   8.998  18.481  0.00  0.00    +0.000 A 
ATOM     20  C   UNL     1       2.297   7.807  18.806  0.00  0.00    +0.000 A 
ATOM     21  C   UNL     1       2.135   7.231  20.070  0.00  0.00    +0.000 A 
ATOM     22  C   UNL     1       1.278   7.830  20.998  0.00  0.00    +0.000 A 
ATOM     23  C   UNL     1       0.646   9.036  20.694  0.00  0.00    +0.000 A 
BRANCH  18  24
ATOM     24  S   UNL     1       0.010  11.139  19.084  0.00  0.00    +0.000 S 
ATOM     25  O   UNL     1       0.994  12.134  18.707  0.00  0.00    +0.000 OA
ATOM     26  O   UNL     1      -0.994  11.379  20.089  0.00  0.00    +0.000 OA
BRANCH  24  27
ATOM     27  N   UNL     1      -0.823  10.755  17.679  0.00  0.00    +0.000 NA
ATOM     28  H   UNL     1      -0.199  10.854  16.876  0.00  0.00    +0.000 HD
ATOM     29  H   UNL     1      -1.676  11.308  17.611  0.00  0.00    +0.000 HD
ENDBRANCH  24  27
ENDBRANCH  18  24
ENDBRANCH  16  21
ENDBRANCH   1  16
TORSDOF 6
ENDMDL
MODEL 7
REMARK VINA RESULT:      -7.2      4.203      7.483
REMARK  Name = 
REMARK  6 active torsions:
REMARK  status: ('A' for Active; 'I' for Inactive)
REMARK    1  A    between atoms: N_1  and  S_2
REMARK    2  A    between atoms: S_2  and  C_5
REMARK    3  A    between atoms: C_8  and  N_9
REMARK    4  A    between atoms: N_9  and  C_10
REMARK    5  A    between atoms: C_10  and  N_12
REMARK    6  A    between atoms: N_15  and  C_16
REMARK                            x       y       z     vdW  Elec       q    Type
REMARK                         _______ _______ _______ _____ _____    ______ ____
ROOT
ATOM      1  C   UNL     1       2.478   3.434  20.840  0.00  0.00    +0.000 C 
ATOM      2  S   UNL     1       1.490   2.581  21.885  0.00  0.00    +0.000 S 
ENDROOT
BRANCH   1   3
ATOM      3  N   UNL     1       2.580   4.801  21.032  0.00  0.00    +0.000 N 
ATOM      4  C   UNL     1       1.940   5.781  20.300  0.00  0.00    +0.000 C 
ATOM      5  O   UNL     1       1.295   5.538  19.283  0.00  0.00    +0.000 OA
ATOM      6  N   UNL     1       2.154   7.051  20.795  0.00  0.00    +0.000 N 
ATOM      7  H   UNL     1       3.000   5.066  21.911  0.00  0.00    +0.000 HD
ATOM      8  H   UNL     1       3.093   7.226  21.126  0.00  0.00    +0.000 HD
BRANCH   6   9
ATOM      9  C   UNL     1       1.464   8.148  20.237  0.00  0.00    +0.000 A 
ATOM     10  C   UNL     1       0.451   8.801  20.953  0.00  0.00    +0.000 A 
ATOM     11  C   UNL     1      -0.248   9.862  20.376  0.00  0.00    +0.000 A 
ATOM     12  C   UNL     1       0.057  10.259  19.077  0.00  0.00    +0.000 A 
ATOM     13 CL   UNL     1      -0.820  11.547  18.351  0.00  0.00    +0.000 Cl
ATOM     14  C   UNL     1       1.068   9.617  18.361  0.00  0.00    +0.000 A 
ATOM     15  C   UNL     1       1.792   8.576  18.951  0.00  0.00    +0.000 A 
ENDBRANCH   6   9
ENDBRANCH   1   3
BRANCH   1  16
ATOM     16  N   UNL     1       3.255   2.929  19.825  0.00  0.00    +0.000 N 
ATOM     17  H   UNL     1       3.230   1.911  19.737  0.00  0.00    +0.000 HD
BRANCH  16  21
ATOM     18  C   UNL     1       5.770   4.713  16.989  0.00  0.00    +0.000 A 
ATOM     19  C   UNL     1       6.171   4.705  18.325  0.00  0.00    +0.000 A 
ATOM     20  C   UNL     1       5.331   4.135  19.288  0.00  0.00    +0.000 A 
ATOM     21  C   UNL     1       4.106   3.573  18.916  0.00  0.00    +0.000 A 
ATOM     22  C   UNL     1       3.739   3.547  17.567  0.00  0.00    +0.000 A 
ATOM     23  C   UNL     1       4.553   4.144  16.605  0.00  0.00    +0.000 A 
BRANCH  18  24
ATOM     24  S   UNL     1       6.776   5.463  15.744  0.00  0.00    +0.000 S 
ATOM     25  O   UNL     1       5.927   6.077  14.743  0.00  0.00    +0.000 OA
ATOM     26  O   UNL     1       7.855   4.568  15.407  0.00  0.00    +0.000 OA
BRANCH  24  27
ATOM     27  N   UNL     1       7.472   6.726  16.601  0.00  0.00    +0.000 NA
ATOM     28  H   UNL     1       7.713   6.407  17.541  0.00  0.00    +0.000 HD
ATOM     29  H   UNL     1       6.864   7.543  16.585  0.00  0.00    +0.000 HD
ENDBRANCH  24  27
ENDBRANCH  18  24
ENDBRANCH  16  21
ENDBRANCH   1  16
TORSDOF 6
ENDMDL
MODEL 8
REMARK VINA RESULT:      -7.1      4.157      7.498
REMARK  Name = 
REMARK  6 active torsions:
REMARK  status: ('A' for Active; 'I' for Inactive)
REMARK    1  A    between atoms: N_1  and  S_2
REMARK    2  A    between atoms: S_2  and  C_5
REMARK    3  A    between atoms: C_8  and  N_9
REMARK    4  A    between atoms: N_9  and  C_10
REMARK    5  A    between atoms: C_10  and  N_12
REMARK    6  A    between atoms: N_15  and  C_16
REMARK                            x       y       z     vdW  Elec       q    Type
REMARK                         _______ _______ _______ _____ _____    ______ ____
ROOT
ATOM      1  C   UNL     1       2.526   3.546  20.837  0.00  0.00    +0.000 C 
ATOM      2  S   UNL     1       1.225   2.555  21.188  0.00  0.00    +0.000 S 
ENDROOT
BRANCH   1   3
ATOM      3  N   UNL     1       2.428   4.878  21.199  0.00  0.00    +0.000 N 
ATOM      4  C   UNL     1       1.970   5.912  20.406  0.00  0.00    +0.000 C 
ATOM      5  O   UNL     1       1.718   5.773  19.211  0.00  0.00    +0.000 OA
ATOM      6  N   UNL     1       1.889   7.114  21.079  0.00  0.00    +0.000 N 
ATOM      7  H   UNL     1       2.511   5.045  22.191  0.00  0.00    +0.000 HD
ATOM      8  H   UNL     1       2.648   7.294  21.721  0.00  0.00    +0.000 HD
BRANCH   6   9
ATOM      9  C   UNL     1       1.317   8.237  20.444  0.00  0.00    +0.000 A 
ATOM     10  C   UNL     1       0.284   8.960  21.056  0.00  0.00    +0.000 A 
ATOM     11  C   UNL     1      -0.297  10.047  20.402  0.00  0.00    +0.000 A 
ATOM     12  C   UNL     1       0.145  10.400  19.131  0.00  0.00    +0.000 A 
ATOM     13 CL   UNL     1      -0.588  11.721  18.309  0.00  0.00    +0.000 Cl
ATOM     14  C   UNL     1       1.177   9.687  18.519  0.00  0.00    +0.000 A 
ATOM     15  C   UNL     1       1.783   8.619  19.187  0.00  0.00    +0.000 A 
ENDBRANCH   6   9
ENDBRANCH   1   3
BRANCH   1  16
ATOM     16  N   UNL     1       3.722   3.183  20.266  0.00  0.00    +0.000 N 
ATOM     17  H   UNL     1       4.220   2.441  20.759  0.00  0.00    +0.000 HD
BRANCH  16  21
ATOM     18  C   UNL     1       5.722   4.865  16.991  0.00  0.00    +0.000 A 
ATOM     19  C   UNL     1       4.650   4.006  16.749  0.00  0.00    +0.000 A 
ATOM     20  C   UNL     1       3.987   3.417  17.831  0.00  0.00    +0.000 A 
ATOM     21  C   UNL     1       4.390   3.690  19.142  0.00  0.00    +0.000 A 
ATOM     22  C   UNL     1       5.436   4.589  19.371  0.00  0.00    +0.000 A 
ATOM     23  C   UNL     1       6.125   5.153  18.298  0.00  0.00    +0.000 A 
BRANCH  18  24
ATOM     24  S   UNL     1       6.620   5.596  15.656  0.00  0.00    +0.000 S 
ATOM     25  O   UNL     1       5.708   6.347  14.815  0.00  0.00    +0.000 OA
ATOM     26  O   UNL     1       7.550   4.629  15.127  0.00  0.00    +0.000 OA
BRANCH  24  27
ATOM     27  N   UNL     1       7.547   6.734  16.468  0.00  0.00    +0.000 NA
ATOM     28  H   UNL     1       8.433   6.311  16.750  0.00  0.00    +0.000 HD
ATOM     29  H   UNL     1       7.017   7.139  17.239  0.00  0.00    +0.000 HD
ENDBRANCH  24  27
ENDBRANCH  18  24
ENDBRANCH  16  21
ENDBRANCH   1  16
TORSDOF 6
ENDMDL
MODEL 9
REMARK VINA RESULT:      -7.0      5.555      7.469
REMARK  Name = 
REMARK  6 active torsions:
REMARK  status: ('A' for Active; 'I' for Inactive)
REMARK    1  A    between atoms: N_1  and  S_2
REMARK    2  A    between atoms: S_2  and  C_5
REMARK    3  A    between atoms: C_8  and  N_9
REMARK    4  A    between atoms: N_9  and  C_10
REMARK    5  A    between atoms: C_10  and  N_12
REMARK    6  A    between atoms: N_15  and  C_16
REMARK                            x       y       z     vdW  Elec       q    Type
REMARK                         _______ _______ _______ _____ _____    ______ ____
ROOT
ATOM      1  C   UNL     1       6.773   6.321  17.473  0.00  0.00    +0.000 C 
ATOM      2  S   UNL     1       7.208   5.342  16.188  0.00  0.00    +0.000 S 
ENDROOT
BRANCH   1   3
ATOM      3  N   UNL     1       7.785   7.001  18.127  0.00  0.00    +0.000 N 
ATOM      4  C   UNL     1       8.008   8.364  18.098  0.00  0.00    +0.000 C 
ATOM      5  O   UNL     1       7.389   9.124  17.357  0.00  0.00    +0.000 OA
ATOM      6  N   UNL     1       9.031   8.761  18.934  0.00  0.00    +0.000 N 
ATOM      7  H   UNL     1       8.259   6.460  18.835  0.00  0.00    +0.000 HD
ATOM      8  H   UNL     1       9.827   8.139  18.958  0.00  0.00    +0.000 HD
BRANCH   6   9
ATOM      9  C   UNL     1       9.296  10.136  19.116  0.00  0.00    +0.000 A 
ATOM     10  C   UNL     1       9.178  10.730  20.380  0.00  0.00    +0.000 A 
ATOM     11  C   UNL     1       9.408  12.097  20.540  0.00  0.00    +0.000 A 
ATOM     12  C   UNL     1       9.741  12.871  19.432  0.00  0.00    +0.000 A 
ATOM     13 CL   UNL     1       9.997  14.561  19.618  0.00  0.00    +0.000 Cl
ATOM     14  C   UNL     1       9.865  12.284  18.172  0.00  0.00    +0.000 A 
ATOM     15  C   UNL     1       9.668  10.909  18.017  0.00  0.00    +0.000 A 
ENDBRANCH   6   9
ENDBRANCH   1   3
BRANCH   1  16
ATOM     16  N   UNL     1       5.505   6.576  17.937  0.00  0.00    +0.000 N 
ATOM     17  H   UNL     1       5.298   7.565  18.088  0.00  0.00    +0.000 HD
BRANCH  16  21
ATOM     18  C   UNL     1       2.506   3.820  18.921  0.00  0.00    +0.000 A 
ATOM     19  C   UNL     1       2.179   4.897  18.098  0.00  0.00    +0.000 A 
ATOM     20  C   UNL     1       3.162   5.839  17.779  0.00  0.00    +0.000 A 
ATOM     21  C   UNL     1       4.462   5.702  18.276  0.00  0.00    +0.000 A 
ATOM     22  C   UNL     1       4.787   4.592  19.062  0.00  0.00    +0.000 A 
ATOM     23  C   UNL     1       3.805   3.666  19.413  0.00  0.00    +0.000 A 
BRANCH  18  24
ATOM     24  S   UNL     1       1.286   2.630  19.388  0.00  0.00    +0.000 S 
ATOM     25  O   UNL     1       0.177   2.685  18.456  0.00  0.00    +0.000 OA
ATOM     26  O   UNL     1       1.105   2.675  20.817  0.00  0.00    +0.000 OA
BRANCH  24  27
ATOM     27  N   UNL     1       2.090   1.192  19.068  0.00  0.00    +0.000 NA
ATOM     28  H   UNL     1       1.737   0.461  19.688  0.00  0.00    +0.000 HD
ATOM     29  H   UNL     1       3.098   1.330  19.124  0.00  0.00    +0.000 HD
ENDBRANCH  24  27
ENDBRANCH  18  24
ENDBRANCH  16  21
ENDBRANCH   1  16
TORSDOF 6
ENDMDL
