MODEL 1
REMARK VINA RESULT:      -7.7      0.000      0.000
REMARK  Name = 
REMARK  6 active torsions:
REMARK  status: ('A' for Active; 'I' for Inactive)
REMARK    1  A    between atoms: C_1  and  C_2
REMARK    2  A    between atoms: C_2  and  C_3
REMARK    3  A    between atoms: C_2  and  N_4
REMARK    4  A    between atoms: N_9  and  C_10
REMARK    5  A    between atoms: C_10  and  C_11
REMARK    6  A    between atoms: C_21  and  C_22
REMARK                            x       y       z     vdW  Elec       q    Type
REMARK                         _______ _______ _______ _____ _____    ______ ____
ROOT
ATOM      1  C   UNL     1       2.535   7.250  18.656  0.00  0.00    +0.000 C 
ENDROOT
BRANCH   1   2
ATOM      2  C   UNL     1       1.740   7.730  19.871  0.00  0.00    +0.000 C 
ATOM      3  O   UNL     1       1.696   6.978  20.850  0.00  0.00    +0.000 OA
ATOM      4  N   UNL     1       1.127   8.976  19.837  0.00  0.00    +0.000 N 
ATOM      5  C   UNL     1       0.470   9.540  20.964  0.00  0.00    +0.000 A 
ATOM      6  C   UNL     1       0.471   9.113  22.285  0.00  0.00    +0.000 A 
ATOM      7  C   UNL     1      -0.254   9.840  23.236  0.00  0.00    +0.000 A 
ATOM      8  C   UNL     1      -0.964  10.988  22.865  0.00  0.00    +0.000 A 
ATOM      9  C   UNL     1      -0.967  11.412  21.538  0.00  0.00    +0.000 A 
ATOM     10  C   UNL     1      -0.253  10.672  20.603  0.00  0.00    +0.000 A 
ATOM     11  C   UNL     1      -0.170  10.933  19.136  0.00  0.00    +0.000 C 
ATOM     12  C   UNL     1       0.777   9.809  18.645  0.00  0.00    +0.000 C 
ATOM     13  C   UNL     1       1.973  10.439  17.935  0.00  0.00    +0.000 C 
ENDBRANCH   1   2
BRANCH   1  19
ATOM     14  N   UNL     1       3.742   3.823  19.006  0.00  0.00    +0.000 N 
ATOM     15  C   UNL     1       4.916   4.406  18.671  0.00  0.00    +0.000 C 
ATOM     16  O   UNL     1       6.022   3.930  18.535  0.00  0.00    +0.000 OA
ATOM     17  C   UNL     1       4.578   5.892  18.488  0.00  0.00    +0.000 C 
ATOM     18  O   UNL     1       5.325   6.722  18.011  0.00  0.00    +0.000 OA
ATOM     19  N   UNL     1       3.286   6.024  18.879  0.00  0.00    +0.000 N 
ATOM     20  C   UNL     1       2.746   4.769  19.005  0.00  0.00    +0.000 C 
ATOM     21  O   UNL     1       1.553   4.508  19.060  0.00  0.00    +0.000 OA
BRANCH  14  23
ATOM     22  C   UNL     1       3.626   1.504  18.105  0.00  0.00    +0.000 C 
ATOM     23  C   UNL     1       3.543   2.410  19.332  0.00  0.00    +0.000 C 
ATOM     24  C   UNL     1       4.536   1.963  20.406  0.00  0.00    +0.000 C 
ENDBRANCH  14  23
ENDBRANCH   1  19
TORSDOF 3
ENDMDL
MODEL 2
REMARK VINA RESULT:      -7.7      4.228      6.305
REMARK  Name = 
REMARK  6 active torsions:
REMARK  status: ('A' for Active; 'I' for Inactive)
REMARK    1  A    between atoms: C_1  and  C_2
REMARK    2  A    between atoms: C_2  and  C_3
REMARK    3  A    between atoms: C_2  and  N_4
REMARK    4  A    between atoms: N_9  and  C_10
REMARK    5  A    between atoms: C_10  and  C_11
REMARK    6  A    between atoms: C_21  and  C_22
REMARK                            x       y       z     vdW  Elec       q    Type
REMARK                         _______ _______ _______ _____ _____    ______ ____
ROOT
ATOM      1  C   UNL     1       6.876   4.876  16.293  0.00  0.00    +0.000 C 
ENDROOT
BRANCH   1   2
ATOM      2  C   UNL     1       5.871   5.972  16.649  0.00  0.00    +0.000 C 
ATOM      3  O   UNL     1       5.918   7.017  15.993  0.00  0.00    +0.000 OA
ATOM      4  N   UNL     1       4.948   5.748  17.663  0.00  0.00    +0.000 N 
ATOM      5  C   UNL     1       3.910   6.668  17.974  0.00  0.00    +0.000 A 
ATOM      6  C   UNL     1       3.492   7.790  17.272  0.00  0.00    +0.000 A 
ATOM      7  C   UNL     1       2.432   8.553  17.775  0.00  0.00    +0.000 A 
ATOM      8  C   UNL     1       1.793   8.187  18.965  0.00  0.00    +0.000 A 
ATOM      9  C   UNL     1       2.218   7.063  19.671  0.00  0.00    +0.000 A 
ATOM     10  C   UNL     1       3.280   6.323  19.165  0.00  0.00    +0.000 A 
ATOM     11  C   UNL     1       3.907   5.122  19.792  0.00  0.00    +0.000 C 
ATOM     12  C   UNL     1       4.999   4.735  18.762  0.00  0.00    +0.000 C 
ATOM     13  C   UNL     1       4.772   3.295  18.313  0.00  0.00    +0.000 C 
ENDBRANCH   1   2
BRANCH   1  19
ATOM     14  N   UNL     1       5.852   3.643  13.014  0.00  0.00    +0.000 N 
ATOM     15  C   UNL     1       6.949   4.332  12.625  0.00  0.00    +0.000 C 
ATOM     16  O   UNL     1       7.435   4.485  11.525  0.00  0.00    +0.000 OA
ATOM     17  C   UNL     1       7.519   4.927  13.920  0.00  0.00    +0.000 C 
ATOM     18  O   UNL     1       8.400   5.760  13.975  0.00  0.00    +0.000 OA
ATOM     19  N   UNL     1       6.777   4.396  14.924  0.00  0.00    +0.000 N 
ATOM     20  C   UNL     1       5.679   3.787  14.369  0.00  0.00    +0.000 C 
ATOM     21  O   UNL     1       4.666   3.459  14.970  0.00  0.00    +0.000 OA
BRANCH  14  23
ATOM     22  C   UNL     1       4.172   3.714  11.177  0.00  0.00    +0.000 C 
ATOM     23  C   UNL     1       4.978   2.851  12.147  0.00  0.00    +0.000 C 
ATOM     24  C   UNL     1       5.786   1.795  11.391  0.00  0.00    +0.000 C 
ENDBRANCH  14  23
ENDBRANCH   1  19
TORSDOF 3
ENDMDL
MODEL 3
REMARK VINA RESULT:      -7.7      2.402      7.894
REMARK  Name = 
REMARK  6 active torsions:
REMARK  status: ('A' for Active; 'I' for Inactive)
REMARK    1  A    between atoms: C_1  and  C_2
REMARK    2  A    between atoms: C_2  and  C_3
REMARK    3  A    between atoms: C_2  and  N_4
REMARK    4  A    between atoms: N_9  and  C_10
REMARK    5  A    between atoms: C_10  and  C_11
REMARK    6  A    between atoms: C_21  and  C_22
REMARK                            x       y       z     vdW  Elec       q    Type
REMARK                         _______ _______ _______ _____ _____    ______ ____
ROOT
ATOM      1  C   UNL     1       1.331   8.083  20.072  0.00  0.00    +0.000 C 
ENDROOT
BRANCH   1   2
ATOM      2  C   UNL     1       2.270   7.746  18.913  0.00  0.00    +0.000 C 
ATOM      3  O   UNL     1       2.670   8.687  18.220  0.00  0.00    +0.000 OA
ATOM      4  N   UNL     1       2.647   6.427  18.701  0.00  0.00    +0.000 N 
ATOM      5  C   UNL     1       3.605   6.049  17.720  0.00  0.00    +0.000 A 
ATOM      6  C   UNL     1       4.454   6.850  16.969  0.00  0.00    +0.000 A 
ATOM      7  C   UNL     1       5.327   6.248  16.056  0.00  0.00    +0.000 A 
ATOM      8  C   UNL     1       5.353   4.857  15.906  0.00  0.00    +0.000 A 
ATOM      9  C   UNL     1       4.496   4.055  16.658  0.00  0.00    +0.000 A 
ATOM     10  C   UNL     1       3.626   4.669  17.551  0.00  0.00    +0.000 A 
ATOM     11  C   UNL     1       2.607   3.994  18.408  0.00  0.00    +0.000 C 
ATOM     12  C   UNL     1       1.983   5.178  19.188  0.00  0.00    +0.000 C 
ATOM     13  C   UNL     1       2.130   4.921  20.685  0.00  0.00    +0.000 C 
ENDBRANCH   1   2
BRANCH   1  19
ATOM     14  N   UNL     1      -0.155  11.408  19.844  0.00  0.00    +0.000 N 
ATOM     15  C   UNL     1       0.390  11.527  21.078  0.00  0.00    +0.000 C 
ATOM     16  O   UNL     1       0.383  12.455  21.857  0.00  0.00    +0.000 OA
ATOM     17  C   UNL     1       1.077  10.178  21.333  0.00  0.00    +0.000 C 
ATOM     18  O   UNL     1       1.528   9.818  22.402  0.00  0.00    +0.000 OA
ATOM     19  N   UNL     1       0.979   9.490  20.168  0.00  0.00    +0.000 N 
ATOM     20  C   UNL     1       0.090  10.148  19.356  0.00  0.00    +0.000 C 
ATOM     21  O   UNL     1      -0.454   9.679  18.366  0.00  0.00    +0.000 OA
BRANCH  14  23
ATOM     22  C   UNL     1      -2.062  13.008  19.919  0.00  0.00    +0.000 C 
ATOM     23  C   UNL     1      -0.885  12.450  19.121  0.00  0.00    +0.000 C 
ATOM     24  C   UNL     1       0.064  13.573  18.697  0.00  0.00    +0.000 C 
ENDBRANCH  14  23
ENDBRANCH   1  19
TORSDOF 3
ENDMDL
MODEL 4
REMARK VINA RESULT:      -7.6      0.896      1.035
REMARK  Name = 
REMARK  6 active torsions:
REMARK  status: ('A' for Active; 'I' for Inactive)
REMARK    1  A    between atoms: C_1  and  C_2
REMARK    2  A    between atoms: C_2  and  C_3
REMARK    3  A    between atoms: C_2  and  N_4
REMARK    4  A    between atoms: N_9  and  C_10
REMARK    5  A    between atoms: C_10  and  C_11
REMARK    6  A    between atoms: C_21  and  C_22
REMARK                            x       y       z     vdW  Elec       q    Type
REMARK                         _______ _______ _______ _____ _____    ______ ____
ROOT
ATOM      1  C   UNL     1       2.635   7.151  18.864  0.00  0.00    +0.000 C 
ENDROOT
BRANCH   1   2
ATOM      2  C   UNL     1       1.771   7.687  20.006  0.00  0.00    +0.000 C 
ATOM      3  O   UNL     1       1.661   6.978  21.011  0.00  0.00    +0.000 OA
ATOM      4  N   UNL     1       1.173   8.934  19.881  0.00  0.00    +0.000 N 
ATOM      5  C   UNL     1       0.453   9.551  20.941  0.00  0.00    +0.000 A 
ATOM      6  C   UNL     1       0.370   9.181  22.276  0.00  0.00    +0.000 A 
ATOM      7  C   UNL     1      -0.406   9.952  23.149  0.00  0.00    +0.000 A 
ATOM      8  C   UNL     1      -1.082  11.088  22.687  0.00  0.00    +0.000 A 
ATOM      9  C   UNL     1      -1.000  11.454  21.345  0.00  0.00    +0.000 A 
ATOM     10  C   UNL     1      -0.237  10.670  20.488  0.00  0.00    +0.000 A 
ATOM     11  C   UNL     1      -0.062  10.868  19.019  0.00  0.00    +0.000 C 
ATOM     12  C   UNL     1       0.904   9.718  18.635  0.00  0.00    +0.000 C 
ATOM     13  C   UNL     1       2.146  10.310  17.975  0.00  0.00    +0.000 C 
ENDBRANCH   1   2
BRANCH   1  19
ATOM     14  N   UNL     1       3.073   3.543  18.530  0.00  0.00    +0.000 N 
ATOM     15  C   UNL     1       4.260   3.826  19.114  0.00  0.00    +0.000 C 
ATOM     16  O   UNL     1       5.178   3.099  19.428  0.00  0.00    +0.000 OA
ATOM     17  C   UNL     1       4.236   5.345  19.334  0.00  0.00    +0.000 C 
ATOM     18  O   UNL     1       5.192   6.014  19.671  0.00  0.00    +0.000 OA
ATOM     19  N   UNL     1       2.987   5.745  18.989  0.00  0.00    +0.000 N 
ATOM     20  C   UNL     1       2.368   4.706  18.340  0.00  0.00    +0.000 C 
ATOM     21  O   UNL     1       1.363   4.794  17.650  0.00  0.00    +0.000 OA
BRANCH  14  23
ATOM     22  C   UNL     1       3.691   1.153  18.200  0.00  0.00    +0.000 C 
ATOM     23  C   UNL     1       2.590   2.212  18.159  0.00  0.00    +0.000 C 
ATOM     24  C   UNL     1       1.411   1.803  19.043  0.00  0.00    +0.000 C 
ENDBRANCH  14  23
ENDBRANCH   1  19
TORSDOF 3
ENDMDL
MODEL 5
REMARK VINA RESULT:      -7.3      2.126      7.416
REMARK  Name = 
REMARK  6 active torsions:
REMARK  status: ('A' for Active; 'I' for Inactive)
REMARK    1  A    between atoms: C_1  and  C_2
REMARK    2  A    between atoms: C_2  and  C_3
REMARK    3  A    between atoms: C_2  and  N_4
REMARK    4  A    between atoms: N_9  and  C_10
REMARK    5  A    between atoms: C_10  and  C_11
REMARK    6  A    between atoms: C_21  and  C_22
REMARK                            x       y       z     vdW  Elec       q    Type
REMARK                         _______ _______ _______ _____ _____    ______ ____
ROOT
ATOM      1  C   UNL     1       2.246   8.303  20.110  0.00  0.00    +0.000 C 
ENDROOT
BRANCH   1   2
ATOM      2  C   UNL     1       1.927   6.808  20.089  0.00  0.00    +0.000 C 
ATOM      3  O   UNL     1       1.131   6.389  20.936  0.00  0.00    +0.000 OA
ATOM      4  N   UNL     1       2.516   5.997  19.127  0.00  0.00    +0.000 N 
ATOM      5  C   UNL     1       2.182   4.624  18.971  0.00  0.00    +0.000 A 
ATOM      6  C   UNL     1       1.144   3.903  19.545  0.00  0.00    +0.000 A 
ATOM      7  C   UNL     1       1.007   2.545  19.236  0.00  0.00    +0.000 A 
ATOM      8  C   UNL     1       1.896   1.922  18.353  0.00  0.00    +0.000 A 
ATOM      9  C   UNL     1       2.940   2.647  17.782  0.00  0.00    +0.000 A 
ATOM     10  C   UNL     1       3.071   3.992  18.108  0.00  0.00    +0.000 A 
ATOM     11  C   UNL     1       4.141   4.922  17.641  0.00  0.00    +0.000 C 
ATOM     12  C   UNL     1       3.739   6.262  18.308  0.00  0.00    +0.000 C 
ATOM     13  C   UNL     1       3.563   7.324  17.226  0.00  0.00    +0.000 C 
ENDBRANCH   1   2
BRANCH   1  19
ATOM     14  N   UNL     1      -0.319  10.780  20.887  0.00  0.00    +0.000 N 
ATOM     15  C   UNL     1      -0.523  10.706  19.551  0.00  0.00    +0.000 C 
ATOM     16  O   UNL     1      -1.317  11.286  18.842  0.00  0.00    +0.000 OA
ATOM     17  C   UNL     1       0.500   9.675  19.055  0.00  0.00    +0.000 C 
ATOM     18  O   UNL     1       0.759   9.458  17.889  0.00  0.00    +0.000 OA
ATOM     19  N   UNL     1       1.076   9.164  20.172  0.00  0.00    +0.000 N 
ATOM     20  C   UNL     1       0.721   9.954  21.236  0.00  0.00    +0.000 C 
ATOM     21  O   UNL     1       1.271   9.968  22.328  0.00  0.00    +0.000 OA
BRANCH  14  23
ATOM     22  C   UNL     1      -1.335  10.884  23.159  0.00  0.00    +0.000 C 
ATOM     23  C   UNL     1      -1.081  11.598  21.832  0.00  0.00    +0.000 C 
ATOM     24  C   UNL     1      -0.385  12.940  22.063  0.00  0.00    +0.000 C 
ENDBRANCH  14  23
ENDBRANCH   1  19
TORSDOF 3
ENDMDL
MODEL 6
REMARK VINA RESULT:      -7.1      1.820      3.406
REMARK  Name = 
REMARK  6 active torsions:
REMARK  status: ('A' for Active; 'I' for Inactive)
REMARK    1  A    between atoms: C_1  and  C_2
REMARK    2  A    between atoms: C_2  and  C_3
REMARK    3  A    between atoms: C_2  and  N_4
REMARK    4  A    between atoms: N_9  and  C_10
REMARK    5  A    between atoms: C_10  and  C_11
REMARK    6  A    between atoms: C_21  and  C_22
REMARK                            x       y       z     vdW  Elec       q    Type
REMARK                         _______ _______ _______ _____ _____    ______ ____
ROOT
ATOM      1  C   UNL     1       2.647   7.538  19.257  0.00  0.00    +0.000 C 
ENDROOT
BRANCH   1   2
ATOM      2  C   UNL     1       1.604   8.488  18.668  0.00  0.00    +0.000 C 
ATOM      3  O   UNL     1       1.469   8.487  17.440  0.00  0.00    +0.000 OA
ATOM      4  N   UNL     1       0.850   9.286  19.519  0.00  0.00    +0.000 N 
ATOM      5  C   UNL     1      -0.216  10.107  19.059  0.00  0.00    +0.000 A 
ATOM      6  C   UNL     1      -0.823  10.139  17.811  0.00  0.00    +0.000 A 
ATOM      7  C   UNL     1      -1.870  11.040  17.587  0.00  0.00    +0.000 A 
ATOM      8  C   UNL     1      -2.308  11.892  18.607  0.00  0.00    +0.000 A 
ATOM      9  C   UNL     1      -1.693  11.862  19.858  0.00  0.00    +0.000 A 
ATOM     10  C   UNL     1      -0.646  10.971  20.061  0.00  0.00    +0.000 A 
ATOM     11  C   UNL     1       0.165  10.819  21.304  0.00  0.00    +0.000 C 
ATOM     12  C   UNL     1       1.140   9.672  20.935  0.00  0.00    +0.000 C 
ATOM     13  C   UNL     1       0.984   8.541  21.948  0.00  0.00    +0.000 C 
ENDBRANCH   1   2
BRANCH   1  19
ATOM     14  N   UNL     1       4.256   5.041  17.137  0.00  0.00    +0.000 N 
ATOM     15  C   UNL     1       3.265   4.262  17.630  0.00  0.00    +0.000 C 
ATOM     16  O   UNL     1       3.000   3.098  17.424  0.00  0.00    +0.000 OA
ATOM     17  C   UNL     1       2.469   5.186  18.563  0.00  0.00    +0.000 C 
ATOM     18  O   UNL     1       1.607   4.819  19.335  0.00  0.00    +0.000 OA
ATOM     19  N   UNL     1       2.997   6.423  18.391  0.00  0.00    +0.000 N 
ATOM     20  C   UNL     1       4.170   6.295  17.690  0.00  0.00    +0.000 C 
ATOM     21  O   UNL     1       5.045   7.144  17.602  0.00  0.00    +0.000 OA
BRANCH  14  23
ATOM     22  C   UNL     1       5.390   5.616  14.996  0.00  0.00    +0.000 C 
ATOM     23  C   UNL     1       5.266   4.634  16.159  0.00  0.00    +0.000 C 
ATOM     24  C   UNL     1       6.620   4.426  16.841  0.00  0.00    +0.000 C 
ENDBRANCH  14  23
ENDBRANCH   1  19
TORSDOF 3
ENDMDL
MODEL 7
REMARK VINA RESULT:      -7.1      2.543      4.366
REMARK  Name = 
REMARK  6 active torsions:
REMARK  status: ('A' for Active; 'I' for Inactive)
REMARK    1  A    between atoms: C_1  and  C_2
REMARK    2  A    between atoms: C_2  and  C_3
REMARK    3  A    between atoms: C_2  and  N_4
REMARK    4  A    between atoms: N_9  and  C_10
REMARK    5  A    between atoms: C_10  and  C_11
REMARK    6  A    between atoms: C_21  and  C_22
REMARK                            x       y       z     vdW  Elec       q    Type
REMARK                         _______ _______ _______ _____ _____    ______ ____
ROOT
ATOM      1  C   UNL     1       1.120  10.184  19.180  0.00  0.00    +0.000 C 
ENDROOT
BRANCH   1   2
ATOM      2  C   UNL     1      -0.296  10.484  18.688  0.00  0.00    +0.000 C 
ATOM      3  O   UNL     1      -0.630  10.003  17.600  0.00  0.00    +0.000 OA
ATOM      4  N   UNL     1      -1.144  11.252  19.476  0.00  0.00    +0.000 N 
ATOM      5  C   UNL     1      -2.508  11.477  19.144  0.00  0.00    +0.000 A 
ATOM      6  C   UNL     1      -3.285  10.870  18.166  0.00  0.00    +0.000 A 
ATOM      7  C   UNL     1      -4.623  11.254  18.024  0.00  0.00    +0.000 A 
ATOM      8  C   UNL     1      -5.176  12.230  18.860  0.00  0.00    +0.000 A 
ATOM      9  C   UNL     1      -4.393  12.842  19.837  0.00  0.00    +0.000 A 
ATOM     10  C   UNL     1      -3.063  12.459  19.958  0.00  0.00    +0.000 A 
ATOM     11  C   UNL     1      -2.056  13.023  20.904  0.00  0.00    +0.000 C 
ATOM     12  C   UNL     1      -0.789  12.187  20.588  0.00  0.00    +0.000 C 
ATOM     13  C   UNL     1      -0.312  11.504  21.867  0.00  0.00    +0.000 C 
ENDBRANCH   1   2
BRANCH   1  19
ATOM     14  N   UNL     1       2.490   6.828  18.759  0.00  0.00    +0.000 N 
ATOM     15  C   UNL     1       2.104   6.716  20.051  0.00  0.00    +0.000 C 
ATOM     16  O   UNL     1       2.190   5.784  20.822  0.00  0.00    +0.000 OA
ATOM     17  C   UNL     1       1.486   8.078  20.395  0.00  0.00    +0.000 C 
ATOM     18  O   UNL     1       1.183   8.442  21.513  0.00  0.00    +0.000 OA
ATOM     19  N   UNL     1       1.450   8.768  19.228  0.00  0.00    +0.000 N 
ATOM     20  C   UNL     1       2.214   8.095  18.308  0.00  0.00    +0.000 C 
ATOM     21  O   UNL     1       2.637   8.556  17.258  0.00  0.00    +0.000 OA
BRANCH  14  23
ATOM     22  C   UNL     1       4.446   5.308  18.497  0.00  0.00    +0.000 C 
ATOM     23  C   UNL     1       3.099   5.773  17.947  0.00  0.00    +0.000 C 
ATOM     24  C   UNL     1       2.138   4.592  17.794  0.00  0.00    +0.000 C 
ENDBRANCH  14  23
ENDBRANCH   1  19
TORSDOF 3
ENDMDL
MODEL 8
REMARK VINA RESULT:      -7.1      2.347      7.600
REMARK  Name = 
REMARK  6 active torsions:
REMARK  status: ('A' for Active; 'I' for Inactive)
REMARK    1  A    between atoms: C_1  and  C_2
REMARK    2  A    between atoms: C_2  and  C_3
REMARK    3  A    between atoms: C_2  and  N_4
REMARK    4  A    between atoms: N_9  and  C_10
REMARK    5  A    between atoms: C_10  and  C_11
REMARK    6  A    between atoms: C_21  and  C_22
REMARK                            x       y       z     vdW  Elec       q    Type
REMARK                         _______ _______ _______ _____ _____    ______ ____
ROOT
ATOM      1  C   UNL     1       1.649   8.879  19.567  0.00  0.00    +0.000 C 
ENDROOT
BRANCH   1   2
ATOM      2  C   UNL     1       1.655   7.477  20.175  0.00  0.00    +0.000 C 
ATOM      3  O   UNL     1       0.885   7.268  21.119  0.00  0.00    +0.000 OA
ATOM      4  N   UNL     1       2.491   6.505  19.642  0.00  0.00    +0.000 N 
ATOM      5  C   UNL     1       2.470   5.151  20.075  0.00  0.00    +0.000 A 
ATOM      6  C   UNL     1       1.556   4.507  20.898  0.00  0.00    +0.000 A 
ATOM      7  C   UNL     1       1.739   3.150  21.187  0.00  0.00    +0.000 A 
ATOM      8  C   UNL     1       2.821   2.446  20.647  0.00  0.00    +0.000 A 
ATOM      9  C   UNL     1       3.740   3.096  19.825  0.00  0.00    +0.000 A 
ATOM     10  C   UNL     1       3.553   4.447  19.558  0.00  0.00    +0.000 A 
ATOM     11  C   UNL     1       4.444   5.325  18.745  0.00  0.00    +0.000 C 
ATOM     12  C   UNL     1       3.706   6.688  18.788  0.00  0.00    +0.000 C 
ATOM     13  C   UNL     1       3.418   7.144  17.360  0.00  0.00    +0.000 C 
ENDBRANCH   1   2
BRANCH   1  19
ATOM     14  N   UNL     1      -0.404  11.333  21.323  0.00  0.00    +0.000 N 
ATOM     15  C   UNL     1      -1.058  11.349  20.139  0.00  0.00    +0.000 C 
ATOM     16  O   UNL     1      -2.027  11.984  19.782  0.00  0.00    +0.000 OA
ATOM     17  C   UNL     1      -0.305  10.340  19.261  0.00  0.00    +0.000 C 
ATOM     18  O   UNL     1      -0.471  10.197  18.067  0.00  0.00    +0.000 OA
ATOM     19  N   UNL     1       0.602   9.749  20.079  0.00  0.00    +0.000 N 
ATOM     20  C   UNL     1       0.663  10.472  21.244  0.00  0.00    +0.000 C 
ATOM     21  O   UNL     1       1.555  10.407  22.077  0.00  0.00    +0.000 OA
BRANCH  14  23
ATOM     22  C   UNL     1      -0.631  13.605  22.318  0.00  0.00    +0.000 C 
ATOM     23  C   UNL     1      -0.766  12.096  22.519  0.00  0.00    +0.000 C 
ATOM     24  C   UNL     1      -2.179  11.734  22.979  0.00  0.00    +0.000 C 
ENDBRANCH  14  23
ENDBRANCH   1  19
TORSDOF 3
ENDMDL
MODEL 9
REMARK VINA RESULT:      -7.0      2.086      3.615
REMARK  Name = 
REMARK  6 active torsions:
REMARK  status: ('A' for Active; 'I' for Inactive)
REMARK    1  A    between atoms: C_1  and  C_2
REMARK    2  A    between atoms: C_2  and  C_3
REMARK    3  A    between atoms: C_2  and  N_4
REMARK    4  A    between atoms: N_9  and  C_10
REMARK    5  A    between atoms: C_10  and  C_11
REMARK    6  A    between atoms: C_21  and  C_22
REMARK                            x       y       z     vdW  Elec       q    Type
REMARK                         _______ _______ _______ _____ _____    ______ ____
ROOT
ATOM      1  C   UNL     1       2.074   9.109  18.861  0.00  0.00    +0.000 C 
ENDROOT
BRANCH   1   2
ATOM      2  C   UNL     1       0.717   9.487  18.267  0.00  0.00    +0.000 C 
ATOM      3  O   UNL     1       0.435   9.018  17.159  0.00  0.00    +0.000 OA
ATOM      4  N   UNL     1      -0.140  10.309  18.988  0.00  0.00    +0.000 N 
ATOM      5  C   UNL     1      -1.461  10.610  18.557  0.00  0.00    +0.000 A 
ATOM      6  C   UNL     1      -2.198  10.041  17.528  0.00  0.00    +0.000 A 
ATOM      7  C   UNL     1      -3.498  10.502  17.287  0.00  0.00    +0.000 A 
ATOM      8  C   UNL     1      -4.052  11.514  18.078  0.00  0.00    +0.000 A 
ATOM      9  C   UNL     1      -3.308  12.087  19.107  0.00  0.00    +0.000 A 
ATOM     10  C   UNL     1      -2.014  11.628  19.325  0.00  0.00    +0.000 A 
ATOM     11  C   UNL     1      -1.047  12.140  20.340  0.00  0.00    +0.000 C 
ATOM     12  C   UNL     1       0.188  11.230  20.120  0.00  0.00    +0.000 C 
ATOM     13  C   UNL     1       0.531  10.530  21.432  0.00  0.00    +0.000 C 
ENDBRANCH   1   2
BRANCH   1  19
ATOM     14  N   UNL     1       3.357   5.700  18.640  0.00  0.00    +0.000 N 
ATOM     15  C   UNL     1       2.669   5.570  19.798  0.00  0.00    +0.000 C 
ATOM     16  O   UNL     1       2.526   4.613  20.528  0.00  0.00    +0.000 OA
ATOM     17  C   UNL     1       2.046   6.952  20.041  0.00  0.00    +0.000 C 
ATOM     18  O   UNL     1       1.500   7.298  21.068  0.00  0.00    +0.000 OA
ATOM     19  N   UNL     1       2.320   7.677  18.928  0.00  0.00    +0.000 N 
ATOM     20  C   UNL     1       3.252   6.992  18.189  0.00  0.00    +0.000 C 
ATOM     21  O   UNL     1       3.934   7.462  17.289  0.00  0.00    +0.000 OA
BRANCH  14  23
ATOM     22  C   UNL     1       5.130   3.963  18.851  0.00  0.00    +0.000 C 
ATOM     23  C   UNL     1       4.095   4.639  17.953  0.00  0.00    +0.000 C 
ATOM     24  C   UNL     1       3.131   3.608  17.366  0.00  0.00    +0.000 C 
ENDBRANCH  14  23
ENDBRANCH   1  19
TORSDOF 3
ENDMDL
