MODEL 1
REMARK VINA RESULT:      -8.5      0.000      0.000
REMARK  Name = 
REMARK  9 active torsions:
REMARK  status: ('A' for Active; 'I' for Inactive)
REMARK    1  A    between atoms: C_1  and  N_2
REMARK    2  A    between atoms: N_2  and  C_3
REMARK    3  A    between atoms: N_2  and  C_4
REMARK    4  A    between atoms: C_4  and  C_5
REMARK    5  A    between atoms: C_4  and  C_12
REMARK    6  A    between atoms: C_5  and  C_6
REMARK    7  A    between atoms: C_15  and  C_16
REMARK    8  A    between atoms: C_19  and  C_20
REMARK    9  A    between atoms: C_20  and  N_21
REMARK                            x       y       z     vdW  Elec       q    Type
REMARK                         _______ _______ _______ _____ _____    ______ ____
ROOT
ATOM      1  C   UNL     1       2.648   6.338  19.153  0.00  0.00    +0.000 A 
ATOM      2  C   UNL     1       2.059   6.408  20.421  0.00  0.00    +0.000 A 
ATOM      3  C   UNL     1       1.432   7.496  20.896  0.00  0.00    +0.000 A 
ATOM      4  C   UNL     1       1.233   8.575  20.051  0.00  0.00    +0.000 A 
ATOM      5  C   UNL     1       1.765   8.549  18.763  0.00  0.00    +0.000 A 
ATOM      6  C   UNL     1       2.511   7.476  18.328  0.00  0.00    +0.000 A 
ENDROOT
BRANCH   4   7
ATOM      7  C   UNL     1       0.404   9.708  20.474  0.00  0.00    +0.000 A 
ATOM      8  C   UNL     1      -0.261  10.522  19.545  0.00  0.00    +0.000 A 
ATOM      9  C   UNL     1      -1.068  11.562  19.986  0.00  0.00    +0.000 A 
ATOM     10  C   UNL     1      -1.242  11.814  21.337  0.00  0.00    +0.000 A 
ATOM     11  C   UNL     1      -0.545  11.016  22.271  0.00  0.00    +0.000 A 
ATOM     12  C   UNL     1       0.268   9.982  21.829  0.00  0.00    +0.000 A 
BRANCH  10  13
ATOM     13  C   UNL     1      -2.156  12.932  21.802  0.00  0.00    +0.000 C 
BRANCH  13  14
ATOM     14  N   UNL     1      -3.418  12.487  22.432  0.00  0.00    +0.000 NA
ATOM     15  C   UNL     1      -3.388  12.679  23.890  0.00  0.00    +0.000 C 
ATOM     16  C   UNL     1      -4.734  12.449  24.576  0.00  0.00    +0.000 C 
ATOM     17  C   UNL     1      -5.849  13.219  23.884  0.00  0.00    +0.000 C 
ATOM     18  C   UNL     1      -5.919  12.814  22.421  0.00  0.00    +0.000 C 
ATOM     19  C   UNL     1      -4.579  13.036  21.715  0.00  0.00    +0.000 C 
ENDBRANCH  13  14
ENDBRANCH  10  13
ENDBRANCH   4   7
BRANCH   1  20
ATOM     20  C   UNL     1       3.341   5.078  18.642  0.00  0.00    +0.000 C 
BRANCH  20  22
ATOM     21  C   UNL     1       2.593   3.203  17.165  0.00  0.00    +0.000 C 
ATOM     22  N   UNL     1       2.378   3.942  18.412  0.00  0.00    +0.000 NA
ATOM     23  C   UNL     1       2.421   2.916  19.465  0.00  0.00    +0.000 C 
ENDBRANCH  20  22
BRANCH  20  24
ATOM     24  C   UNL     1       4.232   5.548  17.425  0.00  0.00    +0.000 C 
BRANCH  24  25
ATOM     25  C   UNL     1       5.655   5.945  17.730  0.00  0.00    +0.000 A 
ATOM     26  C   UNL     1       6.273   7.048  17.122  0.00  0.00    +0.000 A 
ATOM     27  C   UNL     1       7.517   7.488  17.565  0.00  0.00    +0.000 A 
ATOM     28  C   UNL     1       8.154   6.843  18.629  0.00  0.00    +0.000 A 
ATOM     29  C   UNL     1       7.564   5.720  19.210  0.00  0.00    +0.000 A 
ATOM     30  C   UNL     1       6.347   5.269  18.746  0.00  0.00    +0.000 A 
ENDBRANCH  24  25
ENDBRANCH  20  24
ENDBRANCH   1  20
TORSDOF 7
ENDMDL
MODEL 2
REMARK VINA RESULT:      -8.5      3.007     10.983
REMARK  Name = 
REMARK  9 active torsions:
REMARK  status: ('A' for Active; 'I' for Inactive)
REMARK    1  A    between atoms: C_1  and  N_2
REMARK    2  A    between atoms: N_2  and  C_3
REMARK    3  A    between atoms: N_2  and  C_4
REMARK    4  A    between atoms: C_4  and  C_5
REMARK    5  A    between atoms: C_4  and  C_12
REMARK    6  A    between atoms: C_5  and  C_6
REMARK    7  A    between atoms: C_15  and  C_16
REMARK    8  A    between atoms: C_19  and  C_20
REMARK    9  A    between atoms: C_20  and  N_21
REMARK                            x       y       z     vdW  Elec       q    Type
REMARK                         _______ _______ _______ _____ _____    ______ ____
ROOT
ATOM      1  C   UNL     1       0.571   9.644  19.925  0.00  0.00    +0.000 A 
ATOM      2  C   UNL     1       1.033   9.832  18.617  0.00  0.00    +0.000 A 
ATOM      3  C   UNL     1       1.944   9.045  18.024  0.00  0.00    +0.000 A 
ATOM      4  C   UNL     1       2.369   7.902  18.680  0.00  0.00    +0.000 A 
ATOM      5  C   UNL     1       1.916   7.641  19.973  0.00  0.00    +0.000 A 
ATOM      6  C   UNL     1       1.073   8.520  20.617  0.00  0.00    +0.000 A 
ENDROOT
BRANCH   4   7
ATOM      7  C   UNL     1       3.227   6.928  17.998  0.00  0.00    +0.000 A 
ATOM      8  C   UNL     1       2.955   5.552  18.036  0.00  0.00    +0.000 A 
ATOM      9  C   UNL     1       3.769   4.664  17.346  0.00  0.00    +0.000 A 
ATOM     10  C   UNL     1       4.853   5.109  16.606  0.00  0.00    +0.000 A 
ATOM     11  C   UNL     1       5.146   6.491  16.596  0.00  0.00    +0.000 A 
ATOM     12  C   UNL     1       4.336   7.377  17.294  0.00  0.00    +0.000 A 
BRANCH  10  13
ATOM     13  C   UNL     1       5.711   4.129  15.829  0.00  0.00    +0.000 C 
BRANCH  13  14
ATOM     14  N   UNL     1       5.884   4.449  14.395  0.00  0.00    +0.000 NA
ATOM     15  C   UNL     1       7.275   4.816  14.090  0.00  0.00    +0.000 C 
ATOM     16  C   UNL     1       7.573   4.943  12.596  0.00  0.00    +0.000 C 
ATOM     17  C   UNL     1       7.082   3.725  11.827  0.00  0.00    +0.000 C 
ATOM     18  C   UNL     1       5.593   3.538  12.062  0.00  0.00    +0.000 C 
ATOM     19  C   UNL     1       5.273   3.409  13.553  0.00  0.00    +0.000 C 
ENDBRANCH  13  14
ENDBRANCH  10  13
ENDBRANCH   4   7
BRANCH   1  20
ATOM     20  C   UNL     1      -0.477  10.552  20.561  0.00  0.00    +0.000 C 
BRANCH  20  22
ATOM     21  C   UNL     1      -0.285  12.569  22.027  0.00  0.00    +0.000 C 
ATOM     22  N   UNL     1      -0.017  11.137  21.871  0.00  0.00    +0.000 NA
ATOM     23  C   UNL     1      -0.646  10.510  23.044  0.00  0.00    +0.000 C 
ENDBRANCH  20  22
BRANCH  20  24
ATOM     24  C   UNL     1      -0.919  11.553  19.421  0.00  0.00    +0.000 C 
BRANCH  24  25
ATOM     25  C   UNL     1      -2.239  11.281  18.744  0.00  0.00    +0.000 A 
ATOM     26  C   UNL     1      -3.418  11.953  19.098  0.00  0.00    +0.000 A 
ATOM     27  C   UNL     1      -4.569  11.806  18.329  0.00  0.00    +0.000 A 
ATOM     28  C   UNL     1      -4.555  10.999  17.189  0.00  0.00    +0.000 A 
ATOM     29  C   UNL     1      -3.399  10.293  16.855  0.00  0.00    +0.000 A 
ATOM     30  C   UNL     1      -2.272  10.417  17.638  0.00  0.00    +0.000 A 
ENDBRANCH  24  25
ENDBRANCH  20  24
ENDBRANCH   1  20
TORSDOF 7
ENDMDL
MODEL 3
REMARK VINA RESULT:      -8.3      1.185      1.573
REMARK  Name = 
REMARK  9 active torsions:
REMARK  status: ('A' for Active; 'I' for Inactive)
REMARK    1  A    between atoms: C_1  and  N_2
REMARK    2  A    between atoms: N_2  and  C_3
REMARK    3  A    between atoms: N_2  and  C_4
REMARK    4  A    between atoms: C_4  and  C_5
REMARK    5  A    between atoms: C_4  and  C_12
REMARK    6  A    between atoms: C_5  and  C_6
REMARK    7  A    between atoms: C_15  and  C_16
REMARK    8  A    between atoms: C_19  and  C_20
REMARK    9  A    between atoms: C_20  and  N_21
REMARK                            x       y       z     vdW  Elec       q    Type
REMARK                         _______ _______ _______ _____ _____    ______ ____
ROOT
ATOM      1  C   UNL     1       2.481   5.997  19.576  0.00  0.00    +0.000 A 
ATOM      2  C   UNL     1       1.755   5.920  20.770  0.00  0.00    +0.000 A 
ATOM      3  C   UNL     1       1.177   6.977  21.364  0.00  0.00    +0.000 A 
ATOM      4  C   UNL     1       1.180   8.196  20.709  0.00  0.00    +0.000 A 
ATOM      5  C   UNL     1       1.857   8.326  19.497  0.00  0.00    +0.000 A 
ATOM      6  C   UNL     1       2.548   7.264  18.956  0.00  0.00    +0.000 A 
ENDROOT
BRANCH   4   7
ATOM      7  C   UNL     1       0.413   9.328  21.239  0.00  0.00    +0.000 A 
ATOM      8  C   UNL     1       0.098  10.441  20.446  0.00  0.00    +0.000 A 
ATOM      9  C   UNL     1      -0.663  11.476  20.974  0.00  0.00    +0.000 A 
ATOM     10  C   UNL     1      -1.132  11.432  22.277  0.00  0.00    +0.000 A 
ATOM     11  C   UNL     1      -0.786  10.326  23.085  0.00  0.00    +0.000 A 
ATOM     12  C   UNL     1      -0.018   9.296  22.559  0.00  0.00    +0.000 A 
BRANCH  10  13
ATOM     13  C   UNL     1      -1.992  12.554  22.826  0.00  0.00    +0.000 C 
BRANCH  13  14
ATOM     14  N   UNL     1      -3.434  12.243  22.930  0.00  0.00    +0.000 NA
ATOM     15  C   UNL     1      -3.958  12.558  24.267  0.00  0.00    +0.000 C 
ATOM     16  C   UNL     1      -5.480  12.470  24.377  0.00  0.00    +0.000 C 
ATOM     17  C   UNL     1      -6.163  13.244  23.259  0.00  0.00    +0.000 C 
ATOM     18  C   UNL     1      -5.693  12.719  21.913  0.00  0.00    +0.000 C 
ATOM     19  C   UNL     1      -4.169  12.797  21.782  0.00  0.00    +0.000 C 
ENDBRANCH  13  14
ENDBRANCH  10  13
ENDBRANCH   4   7
BRANCH   1  20
ATOM     20  C   UNL     1       3.112   4.770  18.922  0.00  0.00    +0.000 C 
BRANCH  20  22
ATOM     21  C   UNL     1       1.937   2.740  18.056  0.00  0.00    +0.000 C 
ATOM     22  N   UNL     1       2.363   3.500  19.234  0.00  0.00    +0.000 NA
ATOM     23  C   UNL     1       3.142   2.543  20.033  0.00  0.00    +0.000 C 
ENDBRANCH  20  22
BRANCH  20  24
ATOM     24  C   UNL     1       3.313   5.155  17.403  0.00  0.00    +0.000 C 
BRANCH  24  25
ATOM     25  C   UNL     1       4.697   4.985  16.830  0.00  0.00    +0.000 A 
ATOM     26  C   UNL     1       4.968   4.109  15.768  0.00  0.00    +0.000 A 
ATOM     27  C   UNL     1       6.216   4.117  15.152  0.00  0.00    +0.000 A 
ATOM     28  C   UNL     1       7.204   5.009  15.576  0.00  0.00    +0.000 A 
ATOM     29  C   UNL     1       6.956   5.853  16.659  0.00  0.00    +0.000 A 
ATOM     30  C   UNL     1       5.730   5.818  17.286  0.00  0.00    +0.000 A 
ENDBRANCH  24  25
ENDBRANCH  20  24
ENDBRANCH   1  20
TORSDOF 7
ENDMDL
MODEL 4
REMARK VINA RESULT:      -8.3      1.515      3.618
REMARK  Name = 
REMARK  9 active torsions:
REMARK  status: ('A' for Active; 'I' for Inactive)
REMARK    1  A    between atoms: C_1  and  N_2
REMARK    2  A    between atoms: N_2  and  C_3
REMARK    3  A    between atoms: N_2  and  C_4
REMARK    4  A    between atoms: C_4  and  C_5
REMARK    5  A    between atoms: C_4  and  C_12
REMARK    6  A    between atoms: C_5  and  C_6
REMARK    7  A    between atoms: C_15  and  C_16
REMARK    8  A    between atoms: C_19  and  C_20
REMARK    9  A    between atoms: C_20  and  N_21
REMARK                            x       y       z     vdW  Elec       q    Type
REMARK                         _______ _______ _______ _____ _____    ______ ____
ROOT
ATOM      1  C   UNL     1       2.772   7.516  18.488  0.00  0.00    +0.000 A 
ATOM      2  C   UNL     1       2.189   7.570  19.759  0.00  0.00    +0.000 A 
ATOM      3  C   UNL     1       1.374   8.556  20.168  0.00  0.00    +0.000 A 
ATOM      4  C   UNL     1       0.973   9.515  19.253  0.00  0.00    +0.000 A 
ATOM      5  C   UNL     1       1.492   9.492  17.959  0.00  0.00    +0.000 A 
ATOM      6  C   UNL     1       2.420   8.545  17.587  0.00  0.00    +0.000 A 
ENDROOT
BRANCH   4   7
ATOM      7  C   UNL     1      -0.049  10.503  19.610  0.00  0.00    +0.000 A 
ATOM      8  C   UNL     1      -0.789  11.184  18.633  0.00  0.00    +0.000 A 
ATOM      9  C   UNL     1      -1.775  12.085  19.012  0.00  0.00    +0.000 A 
ATOM     10  C   UNL     1      -2.055  12.326  20.348  0.00  0.00    +0.000 A 
ATOM     11  C   UNL     1      -1.285  11.666  21.331  0.00  0.00    +0.000 A 
ATOM     12  C   UNL     1      -0.293  10.771  20.951  0.00  0.00    +0.000 A 
BRANCH  10  13
ATOM     13  C   UNL     1      -3.159  13.287  20.744  0.00  0.00    +0.000 C 
BRANCH  13  14
ATOM     14  N   UNL     1      -4.375  12.649  21.295  0.00  0.00    +0.000 NA
ATOM     15  C   UNL     1      -4.925  13.419  22.420  0.00  0.00    +0.000 C 
ATOM     16  C   UNL     1      -6.298  12.941  22.891  0.00  0.00    +0.000 C 
ATOM     17  C   UNL     1      -7.265  12.794  21.725  0.00  0.00    +0.000 C 
ATOM     18  C   UNL     1      -6.686  11.833  20.699  0.00  0.00    +0.000 C 
ATOM     19  C   UNL     1      -5.309  12.294  20.215  0.00  0.00    +0.000 C 
ENDBRANCH  13  14
ENDBRANCH  10  13
ENDBRANCH   4   7
BRANCH   1  20
ATOM     20  C   UNL     1       3.682   6.370  18.054  0.00  0.00    +0.000 C 
BRANCH  20  22
ATOM     21  C   UNL     1       6.181   6.333  17.949  0.00  0.00    +0.000 C 
ATOM     22  N   UNL     1       4.937   6.855  17.375  0.00  0.00    +0.000 NA
ATOM     23  C   UNL     1       5.007   6.500  15.950  0.00  0.00    +0.000 C 
ENDBRANCH  20  22
BRANCH  20  24
ATOM     24  C   UNL     1       3.840   5.448  19.327  0.00  0.00    +0.000 C 
BRANCH  24  25
ATOM     25  C   UNL     1       2.824   4.348  19.507  0.00  0.00    +0.000 A 
ATOM     26  C   UNL     1       2.330   3.981  20.768  0.00  0.00    +0.000 A 
ATOM     27  C   UNL     1       1.264   3.092  20.873  0.00  0.00    +0.000 A 
ATOM     28  C   UNL     1       0.668   2.569  19.722  0.00  0.00    +0.000 A 
ATOM     29  C   UNL     1       1.182   2.896  18.467  0.00  0.00    +0.000 A 
ATOM     30  C   UNL     1       2.258   3.752  18.370  0.00  0.00    +0.000 A 
ENDBRANCH  24  25
ENDBRANCH  20  24
ENDBRANCH   1  20
TORSDOF 7
ENDMDL
MODEL 5
REMARK VINA RESULT:      -8.3      1.255      3.496
REMARK  Name = 
REMARK  9 active torsions:
REMARK  status: ('A' for Active; 'I' for Inactive)
REMARK    1  A    between atoms: C_1  and  N_2
REMARK    2  A    between atoms: N_2  and  C_3
REMARK    3  A    between atoms: N_2  and  C_4
REMARK    4  A    between atoms: C_4  and  C_5
REMARK    5  A    between atoms: C_4  and  C_12
REMARK    6  A    between atoms: C_5  and  C_6
REMARK    7  A    between atoms: C_15  and  C_16
REMARK    8  A    between atoms: C_19  and  C_20
REMARK    9  A    between atoms: C_20  and  N_21
REMARK                            x       y       z     vdW  Elec       q    Type
REMARK                         _______ _______ _______ _____ _____    ______ ____
ROOT
ATOM      1  C   UNL     1       2.870   7.130  18.258  0.00  0.00    +0.000 A 
ATOM      2  C   UNL     1       2.433   7.038  19.585  0.00  0.00    +0.000 A 
ATOM      3  C   UNL     1       1.724   7.993  20.208  0.00  0.00    +0.000 A 
ATOM      4  C   UNL     1       1.279   9.081  19.475  0.00  0.00    +0.000 A 
ATOM      5  C   UNL     1       1.652   9.210  18.138  0.00  0.00    +0.000 A 
ATOM      6  C   UNL     1       2.480   8.283  17.543  0.00  0.00    +0.000 A 
ENDROOT
BRANCH   4   7
ATOM      7  C   UNL     1       0.358  10.053  20.071  0.00  0.00    +0.000 A 
ATOM      8  C   UNL     1      -0.009   9.987  21.423  0.00  0.00    +0.000 A 
ATOM      9  C   UNL     1      -0.854  10.950  21.960  0.00  0.00    +0.000 A 
ATOM     10  C   UNL     1      -1.342  11.991  21.187  0.00  0.00    +0.000 A 
ATOM     11  C   UNL     1      -1.000  12.036  19.817  0.00  0.00    +0.000 A 
ATOM     12  C   UNL     1      -0.162  11.069  19.279  0.00  0.00    +0.000 A 
BRANCH  10  13
ATOM     13  C   UNL     1      -2.236  13.053  21.799  0.00  0.00    +0.000 C 
BRANCH  13  14
ATOM     14  N   UNL     1      -3.479  12.543  22.416  0.00  0.00    +0.000 NA
ATOM     15  C   UNL     1      -3.455  12.692  23.879  0.00  0.00    +0.000 C 
ATOM     16  C   UNL     1      -4.790  12.393  24.559  0.00  0.00    +0.000 C 
ATOM     17  C   UNL     1      -5.934  13.142  23.891  0.00  0.00    +0.000 C 
ATOM     18  C   UNL     1      -5.991  12.779  22.417  0.00  0.00    +0.000 C 
ATOM     19  C   UNL     1      -4.661  13.071  21.716  0.00  0.00    +0.000 C 
ENDBRANCH  13  14
ENDBRANCH  10  13
ENDBRANCH   4   7
BRANCH   1  20
ATOM     20  C   UNL     1       3.663   6.017  17.579  0.00  0.00    +0.000 C 
BRANCH  20  22
ATOM     21  C   UNL     1       5.992   6.916  17.426  0.00  0.00    +0.000 C 
ATOM     22  N   UNL     1       4.771   6.547  16.705  0.00  0.00    +0.000 NA
ATOM     23  C   UNL     1       5.217   5.590  15.682  0.00  0.00    +0.000 C 
ENDBRANCH  20  22
BRANCH  20  24
ATOM     24  C   UNL     1       4.050   5.008  18.732  0.00  0.00    +0.000 C 
BRANCH  24  25
ATOM     25  C   UNL     1       3.000   4.010  19.152  0.00  0.00    +0.000 A 
ATOM     26  C   UNL     1       2.804   3.645  20.492  0.00  0.00    +0.000 A 
ATOM     27  C   UNL     1       1.710   2.864  20.854  0.00  0.00    +0.000 A 
ATOM     28  C   UNL     1       0.789   2.451  19.887  0.00  0.00    +0.000 A 
ATOM     29  C   UNL     1       1.002   2.775  18.546  0.00  0.00    +0.000 A 
ATOM     30  C   UNL     1       2.104   3.521  18.189  0.00  0.00    +0.000 A 
ENDBRANCH  24  25
ENDBRANCH  20  24
ENDBRANCH   1  20
TORSDOF 7
ENDMDL
MODEL 6
REMARK VINA RESULT:      -8.3      1.215      1.704
REMARK  Name = 
REMARK  9 active torsions:
REMARK  status: ('A' for Active; 'I' for Inactive)
REMARK    1  A    between atoms: C_1  and  N_2
REMARK    2  A    between atoms: N_2  and  C_3
REMARK    3  A    between atoms: N_2  and  C_4
REMARK    4  A    between atoms: C_4  and  C_5
REMARK    5  A    between atoms: C_4  and  C_12
REMARK    6  A    between atoms: C_5  and  C_6
REMARK    7  A    between atoms: C_15  and  C_16
REMARK    8  A    between atoms: C_19  and  C_20
REMARK    9  A    between atoms: C_20  and  N_21
REMARK                            x       y       z     vdW  Elec       q    Type
REMARK                         _______ _______ _______ _____ _____    ______ ____
ROOT
ATOM      1  C   UNL     1       2.285   7.308  19.543  0.00  0.00    +0.000 A 
ATOM      2  C   UNL     1       1.730   7.279  20.828  0.00  0.00    +0.000 A 
ATOM      3  C   UNL     1       0.990   8.272  21.346  0.00  0.00    +0.000 A 
ATOM      4  C   UNL     1       0.636   9.337  20.534  0.00  0.00    +0.000 A 
ATOM      5  C   UNL     1       1.129   9.403  19.231  0.00  0.00    +0.000 A 
ATOM      6  C   UNL     1       1.986   8.438  18.750  0.00  0.00    +0.000 A 
ENDROOT
BRANCH   4   7
ATOM      7  C   UNL     1      -0.312  10.350  21.006  0.00  0.00    +0.000 A 
ATOM      8  C   UNL     1      -0.974  11.211  20.118  0.00  0.00    +0.000 A 
ATOM      9  C   UNL     1      -1.893  12.133  20.600  0.00  0.00    +0.000 A 
ATOM     10  C   UNL     1      -2.184  12.219  21.953  0.00  0.00    +0.000 A 
ATOM     11  C   UNL     1      -1.492  11.375  22.850  0.00  0.00    +0.000 A 
ATOM     12  C   UNL     1      -0.566  10.460  22.367  0.00  0.00    +0.000 A 
BRANCH  10  13
ATOM     13  C   UNL     1      -3.217  13.207  22.458  0.00  0.00    +0.000 C 
BRANCH  13  14
ATOM     14  N   UNL     1      -4.572  12.648  22.657  0.00  0.00    +0.000 NA
ATOM     15  C   UNL     1      -5.101  12.977  23.988  0.00  0.00    +0.000 C 
ATOM     16  C   UNL     1      -6.576  12.623  24.178  0.00  0.00    +0.000 C 
ATOM     17  C   UNL     1      -7.427  13.159  23.037  0.00  0.00    +0.000 C 
ATOM     18  C   UNL     1      -6.912  12.613  21.715  0.00  0.00    +0.000 C 
ATOM     19  C   UNL     1      -5.435  12.957  21.506  0.00  0.00    +0.000 C 
ENDBRANCH  13  14
ENDBRANCH  10  13
ENDBRANCH   4   7
BRANCH   1  20
ATOM     20  C   UNL     1       3.110   6.153  18.983  0.00  0.00    +0.000 C 
BRANCH  20  22
ATOM     21  C   UNL     1       2.215   4.220  17.673  0.00  0.00    +0.000 C 
ATOM     22  N   UNL     1       2.356   4.848  18.989  0.00  0.00    +0.000 NA
ATOM     23  C   UNL     1       2.982   3.816  19.829  0.00  0.00    +0.000 C 
ENDBRANCH  20  22
BRANCH  20  24
ATOM     24  C   UNL     1       3.681   6.670  17.603  0.00  0.00    +0.000 C 
BRANCH  24  25
ATOM     25  C   UNL     1       4.986   6.076  17.135  0.00  0.00    +0.000 A 
ATOM     26  C   UNL     1       5.974   5.636  18.029  0.00  0.00    +0.000 A 
ATOM     27  C   UNL     1       7.079   4.930  17.561  0.00  0.00    +0.000 A 
ATOM     28  C   UNL     1       7.205   4.640  16.200  0.00  0.00    +0.000 A 
ATOM     29  C   UNL     1       6.248   5.112  15.301  0.00  0.00    +0.000 A 
ATOM     30  C   UNL     1       5.172   5.838  15.765  0.00  0.00    +0.000 A 
ENDBRANCH  24  25
ENDBRANCH  20  24
ENDBRANCH   1  20
TORSDOF 7
ENDMDL
MODEL 7
REMARK VINA RESULT:      -8.2      0.423      1.103
REMARK  Name = 
REMARK  9 active torsions:
REMARK  status: ('A' for Active; 'I' for Inactive)
REMARK    1  A    between atoms: C_1  and  N_2
REMARK    2  A    between atoms: N_2  and  C_3
REMARK    3  A    between atoms: N_2  and  C_4
REMARK    4  A    between atoms: C_4  and  C_5
REMARK    5  A    between atoms: C_4  and  C_12
REMARK    6  A    between atoms: C_5  and  C_6
REMARK    7  A    between atoms: C_15  and  C_16
REMARK    8  A    between atoms: C_19  and  C_20
REMARK    9  A    between atoms: C_20  and  N_21
REMARK                            x       y       z     vdW  Elec       q    Type
REMARK                         _______ _______ _______ _____ _____    ______ ____
ROOT
ATOM      1  C   UNL     1       2.854   6.136  19.017  0.00  0.00    +0.000 A 
ATOM      2  C   UNL     1       2.230   6.121  20.270  0.00  0.00    +0.000 A 
ATOM      3  C   UNL     1       1.577   7.170  20.795  0.00  0.00    +0.000 A 
ATOM      4  C   UNL     1       1.387   8.298  20.014  0.00  0.00    +0.000 A 
ATOM      5  C   UNL     1       1.954   8.358  18.741  0.00  0.00    +0.000 A 
ATOM      6  C   UNL     1       2.724   7.322  18.261  0.00  0.00    +0.000 A 
ENDROOT
BRANCH   4   7
ATOM      7  C   UNL     1       0.532   9.392  20.483  0.00  0.00    +0.000 A 
ATOM      8  C   UNL     1       0.389   9.683  21.847  0.00  0.00    +0.000 A 
ATOM      9  C   UNL     1      -0.400  10.752  22.251  0.00  0.00    +0.000 A 
ATOM     10  C   UNL     1      -1.051  11.554  21.326  0.00  0.00    +0.000 A 
ATOM     11  C   UNL     1      -0.934  11.239  19.954  0.00  0.00    +0.000 A 
ATOM     12  C   UNL     1      -0.152  10.165  19.553  0.00  0.00    +0.000 A 
BRANCH  10  13
ATOM     13  C   UNL     1      -1.880  12.739  21.783  0.00  0.00    +0.000 C 
BRANCH  13  14
ATOM     14  N   UNL     1      -3.188  12.393  22.381  0.00  0.00    +0.000 NA
ATOM     15  C   UNL     1      -3.197  12.630  23.832  0.00  0.00    +0.000 C 
ATOM     16  C   UNL     1      -4.577  12.506  24.476  0.00  0.00    +0.000 C 
ATOM     17  C   UNL     1      -5.617  13.321  23.721  0.00  0.00    +0.000 C 
ATOM     18  C   UNL     1      -5.662  12.873  22.269  0.00  0.00    +0.000 C 
ATOM     19  C   UNL     1      -4.288  12.989  21.605  0.00  0.00    +0.000 C 
ENDBRANCH  13  14
ENDBRANCH  10  13
ENDBRANCH   4   7
BRANCH   1  20
ATOM     20  C   UNL     1       3.576   4.918  18.448  0.00  0.00    +0.000 C 
BRANCH  20  22
ATOM     21  C   UNL     1       2.322   2.919  19.275  0.00  0.00    +0.000 C 
ATOM     22  N   UNL     1       2.635   3.783  18.134  0.00  0.00    +0.000 NA
ATOM     23  C   UNL     1       1.326   4.230  17.634  0.00  0.00    +0.000 C 
ENDBRANCH  20  22
BRANCH  20  24
ATOM     24  C   UNL     1       4.482   5.471  17.278  0.00  0.00    +0.000 C 
BRANCH  24  25
ATOM     25  C   UNL     1       5.860   5.959  17.650  0.00  0.00    +0.000 A 
ATOM     26  C   UNL     1       6.424   7.115  17.091  0.00  0.00    +0.000 A 
ATOM     27  C   UNL     1       7.616   7.629  17.594  0.00  0.00    +0.000 A 
ATOM     28  C   UNL     1       8.253   7.005  18.670  0.00  0.00    +0.000 A 
ATOM     29  C   UNL     1       7.720   5.830  19.202  0.00  0.00    +0.000 A 
ATOM     30  C   UNL     1       6.557   5.308  18.679  0.00  0.00    +0.000 A 
ENDBRANCH  24  25
ENDBRANCH  20  24
ENDBRANCH   1  20
TORSDOF 7
ENDMDL
MODEL 8
REMARK VINA RESULT:      -8.2      1.540      2.055
REMARK  Name = 
REMARK  9 active torsions:
REMARK  status: ('A' for Active; 'I' for Inactive)
REMARK    1  A    between atoms: C_1  and  N_2
REMARK    2  A    between atoms: N_2  and  C_3
REMARK    3  A    between atoms: N_2  and  C_4
REMARK    4  A    between atoms: C_4  and  C_5
REMARK    5  A    between atoms: C_4  and  C_12
REMARK    6  A    between atoms: C_5  and  C_6
REMARK    7  A    between atoms: C_15  and  C_16
REMARK    8  A    between atoms: C_19  and  C_20
REMARK    9  A    between atoms: C_20  and  N_21
REMARK                            x       y       z     vdW  Elec       q    Type
REMARK                         _______ _______ _______ _____ _____    ______ ____
ROOT
ATOM      1  C   UNL     1       3.092   5.387  19.179  0.00  0.00    +0.000 A 
ATOM      2  C   UNL     1       2.340   5.442  20.359  0.00  0.00    +0.000 A 
ATOM      3  C   UNL     1       1.736   6.553  20.811  0.00  0.00    +0.000 A 
ATOM      4  C   UNL     1       1.737   7.685  20.014  0.00  0.00    +0.000 A 
ATOM      5  C   UNL     1       2.438   7.680  18.809  0.00  0.00    +0.000 A 
ATOM      6  C   UNL     1       3.154   6.572  18.413  0.00  0.00    +0.000 A 
ENDROOT
BRANCH   4   7
ATOM      7  C   UNL     1       0.944   8.860  20.389  0.00  0.00    +0.000 A 
ATOM      8  C   UNL     1       0.293   8.944  21.629  0.00  0.00    +0.000 A 
ATOM      9  C   UNL     1      -0.418  10.089  21.964  0.00  0.00    +0.000 A 
ATOM     10  C   UNL     1      -0.494  11.167  21.096  0.00  0.00    +0.000 A 
ATOM     11  C   UNL     1       0.132  11.068  19.834  0.00  0.00    +0.000 A 
ATOM     12  C   UNL     1       0.835   9.919  19.497  0.00  0.00    +0.000 A 
BRANCH  10  13
ATOM     13  C   UNL     1      -1.245  12.424  21.492  0.00  0.00    +0.000 C 
BRANCH  13  14
ATOM     14  N   UNL     1      -2.575  12.192  22.098  0.00  0.00    +0.000 NA
ATOM     15  C   UNL     1      -2.575  12.505  23.534  0.00  0.00    +0.000 C 
ATOM     16  C   UNL     1      -3.963  12.501  24.174  0.00  0.00    +0.000 C 
ATOM     17  C   UNL     1      -4.946  13.339  23.370  0.00  0.00    +0.000 C 
ATOM     18  C   UNL     1      -5.013  12.821  21.943  0.00  0.00    +0.000 C 
ATOM     19  C   UNL     1      -3.631  12.815  21.284  0.00  0.00    +0.000 C 
ENDBRANCH  13  14
ENDBRANCH  10  13
ENDBRANCH   4   7
BRANCH   1  20
ATOM     20  C   UNL     1       3.752   4.101  18.689  0.00  0.00    +0.000 C 
BRANCH  20  22
ATOM     21  C   UNL     1       2.623   1.877  18.508  0.00  0.00    +0.000 C 
ATOM     22  N   UNL     1       3.226   2.877  19.394  0.00  0.00    +0.000 NA
ATOM     23  C   UNL     1       4.259   2.141  20.138  0.00  0.00    +0.000 C 
ENDBRANCH  20  22
BRANCH  20  24
ATOM     24  C   UNL     1       3.652   4.146  17.113  0.00  0.00    +0.000 C 
BRANCH  24  25
ATOM     25  C   UNL     1       4.947   4.250  16.347  0.00  0.00    +0.000 A 
ATOM     26  C   UNL     1       4.992   4.257  14.945  0.00  0.00    +0.000 A 
ATOM     27  C   UNL     1       6.183   4.537  14.282  0.00  0.00    +0.000 A 
ATOM     28  C   UNL     1       7.341   4.830  15.007  0.00  0.00    +0.000 A 
ATOM     29  C   UNL     1       7.314   4.783  16.402  0.00  0.00    +0.000 A 
ATOM     30  C   UNL     1       6.139   4.473  17.053  0.00  0.00    +0.000 A 
ENDBRANCH  24  25
ENDBRANCH  20  24
ENDBRANCH   1  20
TORSDOF 7
ENDMDL
MODEL 9
REMARK VINA RESULT:      -8.1      0.874      1.256
REMARK  Name = 
REMARK  9 active torsions:
REMARK  status: ('A' for Active; 'I' for Inactive)
REMARK    1  A    between atoms: C_1  and  N_2
REMARK    2  A    between atoms: N_2  and  C_3
REMARK    3  A    between atoms: N_2  and  C_4
REMARK    4  A    between atoms: C_4  and  C_5
REMARK    5  A    between atoms: C_4  and  C_12
REMARK    6  A    between atoms: C_5  and  C_6
REMARK    7  A    between atoms: C_15  and  C_16
REMARK    8  A    between atoms: C_19  and  C_20
REMARK    9  A    between atoms: C_20  and  N_21
REMARK                            x       y       z     vdW  Elec       q    Type
REMARK                         _______ _______ _______ _____ _____    ______ ____
ROOT
ATOM      1  C   UNL     1       2.718   6.130  19.135  0.00  0.00    +0.000 A 
ATOM      2  C   UNL     1       2.654   7.279  18.337  0.00  0.00    +0.000 A 
ATOM      3  C   UNL     1       1.977   8.388  18.675  0.00  0.00    +0.000 A 
ATOM      4  C   UNL     1       1.409   8.468  19.935  0.00  0.00    +0.000 A 
ATOM      5  C   UNL     1       1.471   7.367  20.790  0.00  0.00    +0.000 A 
ATOM      6  C   UNL     1       2.066   6.192  20.386  0.00  0.00    +0.000 A 
ENDROOT
BRANCH   4   7
ATOM      7  C   UNL     1       0.814   9.722  20.406  0.00  0.00    +0.000 A 
ATOM      8  C   UNL     1       0.712  10.847  19.574  0.00  0.00    +0.000 A 
ATOM      9  C   UNL     1       0.107  12.005  20.044  0.00  0.00    +0.000 A 
ATOM     10  C   UNL     1      -0.411  12.076  21.327  0.00  0.00    +0.000 A 
ATOM     11  C   UNL     1      -0.277  10.955  22.176  0.00  0.00    +0.000 A 
ATOM     12  C   UNL     1       0.336   9.800  21.708  0.00  0.00    +0.000 A 
BRANCH  10  13
ATOM     13  C   UNL     1      -1.100  13.337  21.812  0.00  0.00    +0.000 C 
BRANCH  13  14
ATOM     14  N   UNL     1      -2.251  13.113  22.715  0.00  0.00    +0.000 NA
ATOM     15  C   UNL     1      -2.274  14.093  23.811  0.00  0.00    +0.000 C 
ATOM     16  C   UNL     1      -3.552  14.060  24.649  0.00  0.00    +0.000 C 
ATOM     17  C   UNL     1      -4.794  14.100  23.771  0.00  0.00    +0.000 C 
ATOM     18  C   UNL     1      -4.766  12.938  22.792  0.00  0.00    +0.000 C 
ATOM     19  C   UNL     1      -3.493  12.952  21.942  0.00  0.00    +0.000 C 
ENDBRANCH  13  14
ENDBRANCH  10  13
ENDBRANCH   4   7
BRANCH   1  20
ATOM     20  C   UNL     1       3.511   4.893  18.724  0.00  0.00    +0.000 C 
BRANCH  20  22
ATOM     21  C   UNL     1       1.487   3.845  17.693  0.00  0.00    +0.000 C 
ATOM     22  N   UNL     1       2.641   3.671  18.580  0.00  0.00    +0.000 NA
ATOM     23  C   UNL     1       3.354   2.505  18.038  0.00  0.00    +0.000 C 
ENDBRANCH  20  22
BRANCH  20  24
ATOM     24  C   UNL     1       4.374   5.336  17.477  0.00  0.00    +0.000 C 
BRANCH  24  25
ATOM     25  C   UNL     1       5.764   5.850  17.753  0.00  0.00    +0.000 A 
ATOM     26  C   UNL     1       6.289   6.980  17.109  0.00  0.00    +0.000 A 
ATOM     27  C   UNL     1       7.501   7.526  17.524  0.00  0.00    +0.000 A 
ATOM     28  C   UNL     1       8.197   6.960  18.596  0.00  0.00    +0.000 A 
ATOM     29  C   UNL     1       7.702   5.811  19.213  0.00  0.00    +0.000 A 
ATOM     30  C   UNL     1       6.518   5.256  18.777  0.00  0.00    +0.000 A 
ENDBRANCH  24  25
ENDBRANCH  20  24
ENDBRANCH   1  20
TORSDOF 7
ENDMDL
