MODEL 1
REMARK VINA RESULT:      -7.9      0.000      0.000
REMARK  Name = 
REMARK  4 active torsions:
REMARK  status: ('A' for Active; 'I' for Inactive)
REMARK    1  A    between atoms: C_1  and  N_2
REMARK    2  A    between atoms: C_6  and  S_7
REMARK    3  A    between atoms: S_7  and  C_8
REMARK    4  A    between atoms: C_15  and  C_16
REMARK                            x       y       z     vdW  Elec       q    Type
REMARK                         _______ _______ _______ _____ _____    ______ ____
ROOT
ATOM      1  C   UNL     1       4.563   4.628  19.426  0.00  0.00    +0.000 A 
ATOM      2  N   UNL     1       5.317   3.500  19.478  0.00  0.00    +0.000 NA
ATOM      3  C   UNL     1       4.765   2.386  19.957  0.00  0.00    +0.000 A 
ATOM      4  N   UNL     1       3.529   2.244  20.406  0.00  0.00    +0.000 NA
ATOM      5  C   UNL     1       2.799   3.371  20.329  0.00  0.00    +0.000 A 
ATOM      6  S   UNL     1       1.192   3.326  20.866  0.00  0.00    +0.000 S 
ATOM      7  C   UNL     1       0.950   4.946  20.433  0.00  0.00    +0.000 A 
ATOM      8  C   UNL     1       2.076   5.558  19.894  0.00  0.00    +0.000 A 
ATOM      9  C   UNL     1       3.206   4.612  19.837  0.00  0.00    +0.000 A 
ENDROOT
BRANCH   8  10
ATOM     10  C   UNL     1       1.951   6.963  19.466  0.00  0.00    +0.000 A 
ATOM     11  C   UNL     1       2.130   7.332  18.131  0.00  0.00    +0.000 A 
ATOM     12  C   UNL     1       2.051   8.669  17.724  0.00  0.00    +0.000 A 
ATOM     13  C   UNL     1       1.684   9.658  18.633  0.00  0.00    +0.000 A 
ATOM     14  C   UNL     1       1.410   9.306  19.949  0.00  0.00    +0.000 A 
ATOM     15  C   UNL     1       1.565   7.982  20.363  0.00  0.00    +0.000 A 
ATOM     16  F   UNL     1       1.300   7.706  21.651  0.00  0.00    +0.000 F 
ENDBRANCH   8  10
BRANCH   1  17
ATOM     17  S   UNL     1       5.364   6.018  18.692  0.00  0.00    +0.000 S 
BRANCH  17  23
ATOM     18  C   UNL     1       5.359   5.785  15.420  0.00  0.00    +0.000 C 
ATOM     19  N   UNL     1       6.352   5.208  16.279  0.00  0.00    +0.000 N 
ATOM     20  N   UNL     1       7.426   4.589  15.759  0.00  0.00    +0.000 NA
ATOM     21  N   UNL     1       8.143   4.196  16.804  0.00  0.00    +0.000 NA
ATOM     22  N   UNL     1       7.542   4.570  17.985  0.00  0.00    +0.000 NA
ATOM     23  C   UNL     1       6.441   5.195  17.639  0.00  0.00    +0.000 A 
ENDBRANCH  17  23
ENDBRANCH   1  17
TORSDOF 3
ENDMDL
MODEL 2
REMARK VINA RESULT:      -7.8      1.011      1.421
REMARK  Name = 
REMARK  4 active torsions:
REMARK  status: ('A' for Active; 'I' for Inactive)
REMARK    1  A    between atoms: C_1  and  N_2
REMARK    2  A    between atoms: C_6  and  S_7
REMARK    3  A    between atoms: S_7  and  C_8
REMARK    4  A    between atoms: C_15  and  C_16
REMARK                            x       y       z     vdW  Elec       q    Type
REMARK                         _______ _______ _______ _____ _____    ______ ____
ROOT
ATOM      1  C   UNL     1       4.537   4.426  19.549  0.00  0.00    +0.000 A 
ATOM      2  N   UNL     1       5.315   3.314  19.558  0.00  0.00    +0.000 NA
ATOM      3  C   UNL     1       4.782   2.165  19.973  0.00  0.00    +0.000 A 
ATOM      4  N   UNL     1       3.542   1.974  20.394  0.00  0.00    +0.000 NA
ATOM      5  C   UNL     1       2.788   3.087  20.360  0.00  0.00    +0.000 A 
ATOM      6  S   UNL     1       1.175   2.981  20.869  0.00  0.00    +0.000 S 
ATOM      7  C   UNL     1       0.903   4.614  20.511  0.00  0.00    +0.000 A 
ATOM      8  C   UNL     1       2.022   5.277  20.021  0.00  0.00    +0.000 A 
ATOM      9  C   UNL     1       3.174   4.360  19.937  0.00  0.00    +0.000 A 
ENDROOT
BRANCH   8  10
ATOM     10  C   UNL     1       1.873   6.699  19.661  0.00  0.00    +0.000 A 
ATOM     11  C   UNL     1       1.542   7.658  20.621  0.00  0.00    +0.000 A 
ATOM     12  C   UNL     1       1.362   9.003  20.279  0.00  0.00    +0.000 A 
ATOM     13  C   UNL     1       1.614   9.437  18.980  0.00  0.00    +0.000 A 
ATOM     14  C   UNL     1       2.033   8.519  18.025  0.00  0.00    +0.000 A 
ATOM     15  C   UNL     1       2.138   7.167  18.356  0.00  0.00    +0.000 A 
ATOM     16  F   UNL     1       2.534   6.325  17.387  0.00  0.00    +0.000 F 
ENDBRANCH   8  10
BRANCH   1  17
ATOM     17  S   UNL     1       5.317   5.867  18.897  0.00  0.00    +0.000 S 
BRANCH  17  23
ATOM     18  C   UNL     1       5.289   5.608  15.627  0.00  0.00    +0.000 C 
ATOM     19  N   UNL     1       6.333   5.116  16.477  0.00  0.00    +0.000 N 
ATOM     20  N   UNL     1       7.445   4.577  15.947  0.00  0.00    +0.000 NA
ATOM     21  N   UNL     1       8.203   4.248  16.986  0.00  0.00    +0.000 NA
ATOM     22  N   UNL     1       7.591   4.585  18.172  0.00  0.00    +0.000 NA
ATOM     23  C   UNL     1       6.440   5.121  17.836  0.00  0.00    +0.000 A 
ENDBRANCH  17  23
ENDBRANCH   1  17
TORSDOF 3
ENDMDL
MODEL 3
REMARK VINA RESULT:      -7.4      1.246      1.672
REMARK  Name = 
REMARK  4 active torsions:
REMARK  status: ('A' for Active; 'I' for Inactive)
REMARK    1  A    between atoms: C_1  and  N_2
REMARK    2  A    between atoms: C_6  and  S_7
REMARK    3  A    between atoms: S_7  and  C_8
REMARK    4  A    between atoms: C_15  and  C_16
REMARK                            x       y       z     vdW  Elec       q    Type
REMARK                         _______ _______ _______ _____ _____    ______ ____
ROOT
ATOM      1  C   UNL     1       4.109   5.456  18.158  0.00  0.00    +0.000 A 
ATOM      2  N   UNL     1       4.817   4.355  17.799  0.00  0.00    +0.000 NA
ATOM      3  C   UNL     1       4.627   3.225  18.480  0.00  0.00    +0.000 A 
ATOM      4  N   UNL     1       3.803   3.044  19.500  0.00  0.00    +0.000 NA
ATOM      5  C   UNL     1       3.103   4.145  19.825  0.00  0.00    +0.000 A 
ATOM      6  S   UNL     1       2.006   4.048  21.112  0.00  0.00    +0.000 S 
ATOM      7  C   UNL     1       1.524   5.657  20.887  0.00  0.00    +0.000 A 
ATOM      8  C   UNL     1       2.191   6.304  19.853  0.00  0.00    +0.000 A 
ATOM      9  C   UNL     1       3.159   5.397  19.210  0.00  0.00    +0.000 A 
ENDROOT
BRANCH   8  10
ATOM     10  C   UNL     1       1.819   7.702  19.569  0.00  0.00    +0.000 A 
ATOM     11  C   UNL     1       1.806   8.196  18.262  0.00  0.00    +0.000 A 
ATOM     12  C   UNL     1       1.491   9.532  17.989  0.00  0.00    +0.000 A 
ATOM     13  C   UNL     1       1.077  10.379  19.013  0.00  0.00    +0.000 A 
ATOM     14  C   UNL     1       0.994   9.889  20.311  0.00  0.00    +0.000 A 
ATOM     15  C   UNL     1       1.381   8.577  20.586  0.00  0.00    +0.000 A 
ATOM     16  F   UNL     1       1.292   8.164  21.861  0.00  0.00    +0.000 F 
ENDBRANCH   8  10
BRANCH   1  17
ATOM     17  S   UNL     1       4.372   6.868  17.135  0.00  0.00    +0.000 S 
BRANCH  17  23
ATOM     18  C   UNL     1       7.567   6.516  17.788  0.00  0.00    +0.000 C 
ATOM     19  N   UNL     1       6.937   6.132  16.558  0.00  0.00    +0.000 N 
ATOM     20  N   UNL     1       7.639   5.501  15.602  0.00  0.00    +0.000 NA
ATOM     21  N   UNL     1       6.772   5.274  14.623  0.00  0.00    +0.000 NA
ATOM     22  N   UNL     1       5.520   5.743  14.953  0.00  0.00    +0.000 NA
ATOM     23  C   UNL     1       5.644   6.266  16.151  0.00  0.00    +0.000 A 
ENDBRANCH  17  23
ENDBRANCH   1  17
TORSDOF 3
ENDMDL
MODEL 4
REMARK VINA RESULT:      -7.4      0.678      1.276
REMARK  Name = 
REMARK  4 active torsions:
REMARK  status: ('A' for Active; 'I' for Inactive)
REMARK    1  A    between atoms: C_1  and  N_2
REMARK    2  A    between atoms: C_6  and  S_7
REMARK    3  A    between atoms: S_7  and  C_8
REMARK    4  A    between atoms: C_15  and  C_16
REMARK                            x       y       z     vdW  Elec       q    Type
REMARK                         _______ _______ _______ _____ _____    ______ ____
ROOT
ATOM      1  C   UNL     1       4.576   4.623  19.404  0.00  0.00    +0.000 A 
ATOM      2  N   UNL     1       5.330   3.496  19.459  0.00  0.00    +0.000 NA
ATOM      3  C   UNL     1       4.782   2.385  19.949  0.00  0.00    +0.000 A 
ATOM      4  N   UNL     1       3.548   2.245  20.406  0.00  0.00    +0.000 NA
ATOM      5  C   UNL     1       2.817   3.371  20.326  0.00  0.00    +0.000 A 
ATOM      6  S   UNL     1       1.214   3.329  20.873  0.00  0.00    +0.000 S 
ATOM      7  C   UNL     1       0.969   4.946  20.429  0.00  0.00    +0.000 A 
ATOM      8  C   UNL     1       2.091   5.555  19.880  0.00  0.00    +0.000 A 
ATOM      9  C   UNL     1       3.221   4.609  19.823  0.00  0.00    +0.000 A 
ENDROOT
BRANCH   8  10
ATOM     10  C   UNL     1       1.963   6.958  19.444  0.00  0.00    +0.000 A 
ATOM     11  C   UNL     1       2.156   7.320  18.109  0.00  0.00    +0.000 A 
ATOM     12  C   UNL     1       2.074   8.655  17.694  0.00  0.00    +0.000 A 
ATOM     13  C   UNL     1       1.690   9.646  18.593  0.00  0.00    +0.000 A 
ATOM     14  C   UNL     1       1.404   9.300  19.908  0.00  0.00    +0.000 A 
ATOM     15  C   UNL     1       1.561   7.979  20.330  0.00  0.00    +0.000 A 
ATOM     16  F   UNL     1       1.282   7.707  21.617  0.00  0.00    +0.000 F 
ENDBRANCH   8  10
BRANCH   1  17
ATOM     17  S   UNL     1       5.371   6.008  18.656  0.00  0.00    +0.000 S 
BRANCH  17  23
ATOM     18  C   UNL     1       7.993   4.425  17.480  0.00  0.00    +0.000 C 
ATOM     19  N   UNL     1       6.790   4.676  16.741  0.00  0.00    +0.000 N 
ATOM     20  N   UNL     1       6.635   4.178  15.502  0.00  0.00    +0.000 NA
ATOM     21  N   UNL     1       5.428   4.569  15.116  0.00  0.00    +0.000 NA
ATOM     22  N   UNL     1       4.806   5.302  16.102  0.00  0.00    +0.000 NA
ATOM     23  C   UNL     1       5.662   5.354  17.096  0.00  0.00    +0.000 A 
ENDBRANCH  17  23
ENDBRANCH   1  17
TORSDOF 3
ENDMDL
MODEL 5
REMARK VINA RESULT:      -7.4      1.147      1.552
REMARK  Name = 
REMARK  4 active torsions:
REMARK  status: ('A' for Active; 'I' for Inactive)
REMARK    1  A    between atoms: C_1  and  N_2
REMARK    2  A    between atoms: C_6  and  S_7
REMARK    3  A    between atoms: S_7  and  C_8
REMARK    4  A    between atoms: C_15  and  C_16
REMARK                            x       y       z     vdW  Elec       q    Type
REMARK                         _______ _______ _______ _____ _____    ______ ____
ROOT
ATOM      1  C   UNL     1       3.717   3.950  17.902  0.00  0.00    +0.000 A 
ATOM      2  N   UNL     1       4.147   2.710  17.557  0.00  0.00    +0.000 NA
ATOM      3  C   UNL     1       3.684   1.662  18.236  0.00  0.00    +0.000 A 
ATOM      4  N   UNL     1       2.827   1.687  19.244  0.00  0.00    +0.000 NA
ATOM      5  C   UNL     1       2.405   2.925  19.556  0.00  0.00    +0.000 A 
ATOM      6  S   UNL     1       1.298   3.099  20.827  0.00  0.00    +0.000 S 
ATOM      7  C   UNL     1       1.215   4.775  20.591  0.00  0.00    +0.000 A 
ATOM      8  C   UNL     1       2.031   5.239  19.566  0.00  0.00    +0.000 A 
ATOM      9  C   UNL     1       2.765   4.124  18.939  0.00  0.00    +0.000 A 
ENDROOT
BRANCH   8  10
ATOM     10  C   UNL     1       2.007   6.684  19.273  0.00  0.00    +0.000 A 
ATOM     11  C   UNL     1       2.228   7.164  17.980  0.00  0.00    +0.000 A 
ATOM     12  C   UNL     1       2.244   8.536  17.702  0.00  0.00    +0.000 A 
ATOM     13  C   UNL     1       1.932   9.457  18.698  0.00  0.00    +0.000 A 
ATOM     14  C   UNL     1       1.619   9.002  19.973  0.00  0.00    +0.000 A 
ATOM     15  C   UNL     1       1.679   7.638  20.260  0.00  0.00    +0.000 A 
ATOM     16  F   UNL     1       1.380   7.260  21.514  0.00  0.00    +0.000 F 
ENDBRANCH   8  10
BRANCH   1  17
ATOM     17  S   UNL     1       4.323   5.253  16.880  0.00  0.00    +0.000 S 
BRANCH  17  23
ATOM     18  C   UNL     1       6.359   5.423  19.446  0.00  0.00    +0.000 C 
ATOM     19  N   UNL     1       6.736   4.998  18.130  0.00  0.00    +0.000 N 
ATOM     20  N   UNL     1       7.979   4.545  17.891  0.00  0.00    +0.000 NA
ATOM     21  N   UNL     1       7.992   4.221  16.605  0.00  0.00    +0.000 NA
ATOM     22  N   UNL     1       6.765   4.451  16.024  0.00  0.00    +0.000 NA
ATOM     23  C   UNL     1       6.005   4.928  16.982  0.00  0.00    +0.000 A 
ENDBRANCH  17  23
ENDBRANCH   1  17
TORSDOF 3
ENDMDL
MODEL 6
REMARK VINA RESULT:      -7.3      3.464      5.340
REMARK  Name = 
REMARK  4 active torsions:
REMARK  status: ('A' for Active; 'I' for Inactive)
REMARK    1  A    between atoms: C_1  and  N_2
REMARK    2  A    between atoms: C_6  and  S_7
REMARK    3  A    between atoms: S_7  and  C_8
REMARK    4  A    between atoms: C_15  and  C_16
REMARK                            x       y       z     vdW  Elec       q    Type
REMARK                         _______ _______ _______ _____ _____    ______ ____
ROOT
ATOM      1  C   UNL     1       2.290   5.159  19.775  0.00  0.00    +0.000 A 
ATOM      2  N   UNL     1       1.094   4.822  20.323  0.00  0.00    +0.000 NA
ATOM      3  C   UNL     1       0.553   3.648  20.001  0.00  0.00    +0.000 A 
ATOM      4  N   UNL     1       1.059   2.741  19.180  0.00  0.00    +0.000 NA
ATOM      5  C   UNL     1       2.250   3.092  18.664  0.00  0.00    +0.000 A 
ATOM      6  S   UNL     1       3.013   2.016  17.600  0.00  0.00    +0.000 S 
ATOM      7  C   UNL     1       4.353   3.042  17.445  0.00  0.00    +0.000 A 
ATOM      8  C   UNL     1       4.245   4.220  18.173  0.00  0.00    +0.000 A 
ATOM      9  C   UNL     1       2.968   4.264  18.908  0.00  0.00    +0.000 A 
ENDROOT
BRANCH   8  10
ATOM     10  C   UNL     1       5.376   5.165  18.117  0.00  0.00    +0.000 A 
ATOM     11  C   UNL     1       6.418   5.104  19.046  0.00  0.00    +0.000 A 
ATOM     12  C   UNL     1       7.475   6.021  19.021  0.00  0.00    +0.000 A 
ATOM     13  C   UNL     1       7.567   6.958  17.995  0.00  0.00    +0.000 A 
ATOM     14  C   UNL     1       6.592   6.982  17.005  0.00  0.00    +0.000 A 
ATOM     15  C   UNL     1       5.502   6.114  17.079  0.00  0.00    +0.000 A 
ATOM     16  F   UNL     1       4.584   6.193  16.101  0.00  0.00    +0.000 F 
ENDBRANCH   8  10
BRANCH   1  17
ATOM     17  S   UNL     1       2.955   6.692  20.340  0.00  0.00    +0.000 S 
BRANCH  17  23
ATOM     18  C   UNL     1       0.802   9.129  20.772  0.00  0.00    +0.000 C 
ATOM     19  N   UNL     1       1.373   8.757  19.511  0.00  0.00    +0.000 N 
ATOM     20  N   UNL     1       1.109   9.475  18.406  0.00  0.00    +0.000 NA
ATOM     21  N   UNL     1       1.795   8.887  17.434  0.00  0.00    +0.000 NA
ATOM     22  N   UNL     1       2.505   7.808  17.912  0.00  0.00    +0.000 NA
ATOM     23  C   UNL     1       2.232   7.747  19.195  0.00  0.00    +0.000 A 
ENDBRANCH  17  23
ENDBRANCH   1  17
TORSDOF 3
ENDMDL
MODEL 7
REMARK VINA RESULT:      -7.2      1.045      1.045
REMARK  Name = 
REMARK  4 active torsions:
REMARK  status: ('A' for Active; 'I' for Inactive)
REMARK    1  A    between atoms: C_1  and  N_2
REMARK    2  A    between atoms: C_6  and  S_7
REMARK    3  A    between atoms: S_7  and  C_8
REMARK    4  A    between atoms: C_15  and  C_16
REMARK                            x       y       z     vdW  Elec       q    Type
REMARK                         _______ _______ _______ _____ _____    ______ ____
ROOT
ATOM      1  C   UNL     1       3.701   4.068  18.094  0.00  0.00    +0.000 A 
ATOM      2  N   UNL     1       4.143   2.819  17.800  0.00  0.00    +0.000 NA
ATOM      3  C   UNL     1       3.714   1.799  18.543  0.00  0.00    +0.000 A 
ATOM      4  N   UNL     1       2.882   1.863  19.570  0.00  0.00    +0.000 NA
ATOM      5  C   UNL     1       2.448   3.109  19.830  0.00  0.00    +0.000 A 
ATOM      6  S   UNL     1       1.370   3.331  21.119  0.00  0.00    +0.000 S 
ATOM      7  C   UNL     1       1.256   4.991  20.801  0.00  0.00    +0.000 A 
ATOM      8  C   UNL     1       2.038   5.415  19.734  0.00  0.00    +0.000 A 
ATOM      9  C   UNL     1       2.774   4.281  19.145  0.00  0.00    +0.000 A 
ENDROOT
BRANCH   8  10
ATOM     10  C   UNL     1       1.984   6.843  19.370  0.00  0.00    +0.000 A 
ATOM     11  C   UNL     1       2.201   7.263  18.056  0.00  0.00    +0.000 A 
ATOM     12  C   UNL     1       2.188   8.619  17.710  0.00  0.00    +0.000 A 
ATOM     13  C   UNL     1       1.851   9.582  18.658  0.00  0.00    +0.000 A 
ATOM     14  C   UNL     1       1.541   9.183  19.953  0.00  0.00    +0.000 A 
ATOM     15  C   UNL     1       1.630   7.837  20.307  0.00  0.00    +0.000 A 
ATOM     16  F   UNL     1       1.332   7.514  21.577  0.00  0.00    +0.000 F 
ENDBRANCH   8  10
BRANCH   1  17
ATOM     17  S   UNL     1       4.261   5.327  16.992  0.00  0.00    +0.000 S 
BRANCH  17  23
ATOM     18  C   UNL     1       5.968   4.389  14.353  0.00  0.00    +0.000 C 
ATOM     19  N   UNL     1       6.513   4.525  15.673  0.00  0.00    +0.000 N 
ATOM     20  N   UNL     1       7.828   4.351  15.888  0.00  0.00    +0.000 NA
ATOM     21  N   UNL     1       8.002   4.565  17.186  0.00  0.00    +0.000 NA
ATOM     22  N   UNL     1       6.810   4.886  17.798  0.00  0.00    +0.000 NA
ATOM     23  C   UNL     1       5.906   4.858  16.847  0.00  0.00    +0.000 A 
ENDBRANCH  17  23
ENDBRANCH   1  17
TORSDOF 3
ENDMDL
MODEL 8
REMARK VINA RESULT:      -7.1      1.495      1.653
REMARK  Name = 
REMARK  4 active torsions:
REMARK  status: ('A' for Active; 'I' for Inactive)
REMARK    1  A    between atoms: C_1  and  N_2
REMARK    2  A    between atoms: C_6  and  S_7
REMARK    3  A    between atoms: S_7  and  C_8
REMARK    4  A    between atoms: C_15  and  C_16
REMARK                            x       y       z     vdW  Elec       q    Type
REMARK                         _______ _______ _______ _____ _____    ______ ____
ROOT
ATOM      1  C   UNL     1       3.970   4.069  18.237  0.00  0.00    +0.000 A 
ATOM      2  N   UNL     1       4.485   2.844  17.962  0.00  0.00    +0.000 NA
ATOM      3  C   UNL     1       3.897   1.771  18.490  0.00  0.00    +0.000 A 
ATOM      4  N   UNL     1       2.835   1.759  19.280  0.00  0.00    +0.000 NA
ATOM      5  C   UNL     1       2.335   2.984  19.524  0.00  0.00    +0.000 A 
ATOM      6  S   UNL     1       0.969   3.110  20.518  0.00  0.00    +0.000 S 
ATOM      7  C   UNL     1       0.918   4.792  20.317  0.00  0.00    +0.000 A 
ATOM      8  C   UNL     1       1.936   5.294  19.516  0.00  0.00    +0.000 A 
ATOM      9  C   UNL     1       2.808   4.204  19.039  0.00  0.00    +0.000 A 
ENDROOT
BRANCH   8  10
ATOM     10  C   UNL     1       1.958   6.747  19.266  0.00  0.00    +0.000 A 
ATOM     11  C   UNL     1       2.191   7.258  17.987  0.00  0.00    +0.000 A 
ATOM     12  C   UNL     1       2.250   8.636  17.750  0.00  0.00    +0.000 A 
ATOM     13  C   UNL     1       1.971   9.537  18.775  0.00  0.00    +0.000 A 
ATOM     14  C   UNL     1       1.646   9.054  20.037  0.00  0.00    +0.000 A 
ATOM     15  C   UNL     1       1.663   7.681  20.282  0.00  0.00    +0.000 A 
ATOM     16  F   UNL     1       1.355   7.274  21.526  0.00  0.00    +0.000 F 
ENDBRANCH   8  10
BRANCH   1  17
ATOM     17  S   UNL     1       4.772   5.408  17.415  0.00  0.00    +0.000 S 
BRANCH  17  23
ATOM     18  C   UNL     1       7.442   7.278  17.050  0.00  0.00    +0.000 C 
ATOM     19  N   UNL     1       7.216   6.382  18.145  0.00  0.00    +0.000 N 
ATOM     20  N   UNL     1       8.086   6.324  19.169  0.00  0.00    +0.000 NA
ATOM     21  N   UNL     1       7.581   5.428  20.007  0.00  0.00    +0.000 NA
ATOM     22  N   UNL     1       6.390   4.924  19.534  0.00  0.00    +0.000 NA
ATOM     23  C   UNL     1       6.182   5.527  18.386  0.00  0.00    +0.000 A 
ENDBRANCH  17  23
ENDBRANCH   1  17
TORSDOF 3
ENDMDL
MODEL 9
REMARK VINA RESULT:      -7.1      1.197      1.890
REMARK  Name = 
REMARK  4 active torsions:
REMARK  status: ('A' for Active; 'I' for Inactive)
REMARK    1  A    between atoms: C_1  and  N_2
REMARK    2  A    between atoms: C_6  and  S_7
REMARK    3  A    between atoms: S_7  and  C_8
REMARK    4  A    between atoms: C_15  and  C_16
REMARK                            x       y       z     vdW  Elec       q    Type
REMARK                         _______ _______ _______ _____ _____    ______ ____
ROOT
ATOM      1  C   UNL     1       4.505   4.484  19.427  0.00  0.00    +0.000 A 
ATOM      2  N   UNL     1       5.280   3.369  19.422  0.00  0.00    +0.000 NA
ATOM      3  C   UNL     1       4.773   2.238  19.910  0.00  0.00    +0.000 A 
ATOM      4  N   UNL     1       3.563   2.066  20.419  0.00  0.00    +0.000 NA
ATOM      5  C   UNL     1       2.811   3.181  20.397  0.00  0.00    +0.000 A 
ATOM      6  S   UNL     1       1.235   3.099  21.015  0.00  0.00    +0.000 S 
ATOM      7  C   UNL     1       0.943   4.721  20.620  0.00  0.00    +0.000 A 
ATOM      8  C   UNL     1       2.029   5.361  20.036  0.00  0.00    +0.000 A 
ATOM      9  C   UNL     1       3.171   4.437  19.906  0.00  0.00    +0.000 A 
ENDROOT
BRANCH   8  10
ATOM     10  C   UNL     1       1.859   6.771  19.638  0.00  0.00    +0.000 A 
ATOM     11  C   UNL     1       1.599   7.764  20.585  0.00  0.00    +0.000 A 
ATOM     12  C   UNL     1       1.400   9.097  20.210  0.00  0.00    +0.000 A 
ATOM     13  C   UNL     1       1.563   9.485  18.883  0.00  0.00    +0.000 A 
ATOM     14  C   UNL     1       1.912   8.533  17.933  0.00  0.00    +0.000 A 
ATOM     15  C   UNL     1       2.035   7.193  18.303  0.00  0.00    +0.000 A 
ATOM     16  F   UNL     1       2.360   6.316  17.338  0.00  0.00    +0.000 F 
ENDBRANCH   8  10
BRANCH   1  17
ATOM     17  S   UNL     1       5.243   5.899  18.676  0.00  0.00    +0.000 S 
BRANCH  17  23
ATOM     18  C   UNL     1       8.022   4.486  17.656  0.00  0.00    +0.000 C 
ATOM     19  N   UNL     1       6.836   4.625  16.862  0.00  0.00    +0.000 N 
ATOM     20  N   UNL     1       6.772   4.083  15.633  0.00  0.00    +0.000 NA
ATOM     21  N   UNL     1       5.556   4.372  15.187  0.00  0.00    +0.000 NA
ATOM     22  N   UNL     1       4.840   5.082  16.124  0.00  0.00    +0.000 NA
ATOM     23  C   UNL     1       5.648   5.226  17.150  0.00  0.00    +0.000 A 
ENDBRANCH  17  23
ENDBRANCH   1  17
TORSDOF 3
ENDMDL
