MODEL 1
REMARK VINA RESULT:      -8.3      0.000      0.000
REMARK  Name = 
REMARK  8 active torsions:
REMARK  status: ('A' for Active; 'I' for Inactive)
REMARK    1  A    between atoms: C_1  and  C_2
REMARK    2  A    between atoms: C_2  and  C_3
REMARK    3  A    between atoms: C_6  and  C_8
REMARK    4  A    between atoms: C_8  and  C_9
REMARK    5  A    between atoms: C_24  and  O_25
REMARK    6  A    between atoms: O_25  and  C_26
REMARK    7  A    between atoms: C_27  and  O_28
REMARK    8  A    between atoms: O_28  and  C_29
REMARK                            x       y       z     vdW  Elec       q    Type
REMARK                         _______ _______ _______ _____ _____    ______ ____
ROOT
ATOM      1  C   UNL     1       2.311   6.083  18.798  0.00  0.00    +0.000 C 
ATOM      2  C   UNL     1       3.524   5.613  19.653  0.00  0.00    +0.000 C 
ATOM      3  N   UNL     1       4.748   5.525  18.833  0.00  0.00    +0.000 N 
ATOM      4  C   UNL     1       5.221   4.270  18.436  0.00  0.00    +0.000 C 
ATOM      5  O   UNL     1       4.649   3.230  18.762  0.00  0.00    +0.000 OA
ATOM      6  C   UNL     1       5.096   6.805  18.200  0.00  0.00    +0.000 C 
ATOM      7  C   UNL     1       3.922   7.383  17.368  0.00  0.00    +0.000 C 
ATOM      8  N   UNL     1       2.646   7.358  18.108  0.00  0.00    +0.000 N 
ATOM      9  C   UNL     1       2.189   8.569  18.604  0.00  0.00    +0.000 A 
ATOM     10  N   UNL     1       2.398   9.672  17.862  0.00  0.00    +0.000 NA
ATOM     11  C   UNL     1       1.884  10.840  18.279  0.00  0.00    +0.000 A 
ATOM     12  N   UNL     1       2.136  11.934  17.435  0.00  0.00    +0.000 N 
ATOM     13  C   UNL     1       1.181  10.994  19.472  0.00  0.00    +0.000 A 
ATOM     14  C   UNL     1       0.665  12.234  19.953  0.00  0.00    +0.000 A 
ATOM     15  C   UNL     1      -0.021  12.329  21.166  0.00  0.00    +0.000 A 
ATOM     16  C   UNL     1      -0.180  11.159  21.920  0.00  0.00    +0.000 A 
ATOM     17  C   UNL     1       0.335   9.940  21.413  0.00  0.00    +0.000 A 
ATOM     18  F   UNL     1       0.163   8.829  22.155  0.00  0.00    +0.000 F 
ATOM     19  C   UNL     1       1.017   9.817  20.198  0.00  0.00    +0.000 A 
ATOM     20  N   UNL     1       1.496   8.627  19.751  0.00  0.00    +0.000 NA
ATOM     21  H   UNL     1       2.610  11.569  16.612  0.00  0.00    +0.000 HD
ATOM     22  H   UNL     1       1.279  12.413  17.181  0.00  0.00    +0.000 HD
ENDROOT
BRANCH   1  24
ATOM     23  C   UNL     1       1.300   3.733  18.344  0.00  0.00    +0.000 C 
ATOM     24  C   UNL     1       1.979   4.965  17.774  0.00  0.00    +0.000 C 
ENDBRANCH   1  24
BRANCH  15  25
ATOM     25  O   UNL     1      -0.539  13.498  21.649  0.00  0.00    +0.000 OA
ATOM     26  C   UNL     1       0.336  14.567  21.987  0.00  0.00    +0.000 C 
ENDBRANCH  15  25
BRANCH  16  27
ATOM     27  O   UNL     1      -0.793  11.025  23.142  0.00  0.00    +0.000 OA
ATOM     28  C   UNL     1      -2.123  11.490  23.321  0.00  0.00    +0.000 C 
ENDBRANCH  16  27
BRANCH   4  29
ATOM     29  C   UNL     1       6.478   4.249  17.564  0.00  0.00    +0.000 C 
BRANCH  29  30
ATOM     30  C   UNL     1       6.254   4.615  16.078  0.00  0.00    +0.000 C 
ATOM     31  C   UNL     1       5.467   3.533  15.315  0.00  0.00    +0.000 C 
ATOM     32  C   UNL     1       5.320   3.886  13.835  0.00  0.00    +0.000 C 
ATOM     33  C   UNL     1       6.679   4.162  13.209  0.00  0.00    +0.000 C 
ATOM     34  C   UNL     1       7.457   5.189  14.025  0.00  0.00    +0.000 C 
ATOM     35  N   UNL     1       7.577   4.795  15.432  0.00  0.00    +0.000 NA
ATOM     36  H   UNL     1       8.106   5.513  15.926  0.00  0.00    +0.000 HD
ENDBRANCH  29  30
ENDBRANCH   4  29
TORSDOF 5
ENDMDL
MODEL 2
REMARK VINA RESULT:      -7.4      2.665      9.881
REMARK  Name = 
REMARK  8 active torsions:
REMARK  status: ('A' for Active; 'I' for Inactive)
REMARK    1  A    between atoms: C_1  and  C_2
REMARK    2  A    between atoms: C_2  and  C_3
REMARK    3  A    between atoms: C_6  and  C_8
REMARK    4  A    between atoms: C_8  and  C_9
REMARK    5  A    between atoms: C_24  and  O_25
REMARK    6  A    between atoms: O_25  and  C_26
REMARK    7  A    between atoms: C_27  and  O_28
REMARK    8  A    between atoms: O_28  and  C_29
REMARK                            x       y       z     vdW  Elec       q    Type
REMARK                         _______ _______ _______ _____ _____    ______ ____
ROOT
ATOM      1  C   UNL     1       0.343  10.218  18.438  0.00  0.00    +0.000 C 
ATOM      2  C   UNL     1       1.038  11.569  18.775  0.00  0.00    +0.000 C 
ATOM      3  N   UNL     1       0.602  12.076  20.091  0.00  0.00    +0.000 N 
ATOM      4  C   UNL     1      -0.305  13.138  20.153  0.00  0.00    +0.000 C 
ATOM      5  O   UNL     1      -0.745  13.673  19.135  0.00  0.00    +0.000 OA
ATOM      6  C   UNL     1       0.879  11.129  21.180  0.00  0.00    +0.000 C 
ATOM      7  C   UNL     1       0.269   9.729  20.905  0.00  0.00    +0.000 C 
ATOM      8  N   UNL     1       0.567   9.248  19.542  0.00  0.00    +0.000 N 
ATOM      9  C   UNL     1       1.534   8.260  19.428  0.00  0.00    +0.000 A 
ATOM     10  N   UNL     1       1.594   7.323  20.392  0.00  0.00    +0.000 NA
ATOM     11  C   UNL     1       2.461   6.307  20.254  0.00  0.00    +0.000 A 
ATOM     12  N   UNL     1       2.443   5.367  21.297  0.00  0.00    +0.000 N 
ATOM     13  C   UNL     1       3.348   6.187  19.187  0.00  0.00    +0.000 A 
ATOM     14  C   UNL     1       4.305   5.138  19.045  0.00  0.00    +0.000 A 
ATOM     15  C   UNL     1       5.180   5.078  17.957  0.00  0.00    +0.000 A 
ATOM     16  C   UNL     1       5.104   6.098  17.000  0.00  0.00    +0.000 A 
ATOM     17  C   UNL     1       4.137   7.120  17.162  0.00  0.00    +0.000 A 
ATOM     18  F   UNL     1       4.080   8.086  16.224  0.00  0.00    +0.000 F 
ATOM     19  C   UNL     1       3.244   7.199  18.236  0.00  0.00    +0.000 A 
ATOM     20  N   UNL     1       2.334   8.200  18.353  0.00  0.00    +0.000 NA
ATOM     21  H   UNL     1       1.686   5.634  21.922  0.00  0.00    +0.000 HD
ATOM     22  H   UNL     1       2.314   4.424  20.947  0.00  0.00    +0.000 HD
ENDROOT
BRANCH   1  24
ATOM     23  C   UNL     1      -1.799   9.841  17.016  0.00  0.00    +0.000 C 
ATOM     24  C   UNL     1      -1.172  10.492  18.235  0.00  0.00    +0.000 C 
ENDBRANCH   1  24
BRANCH  15  25
ATOM     25  O   UNL     1       6.100   4.081  17.785  0.00  0.00    +0.000 OA
ATOM     26  C   UNL     1       7.487   4.389  17.838  0.00  0.00    +0.000 C 
ENDBRANCH  15  25
BRANCH  16  27
ATOM     27  O   UNL     1       5.875   6.251  15.874  0.00  0.00    +0.000 OA
ATOM     28  C   UNL     1       5.700   5.372  14.772  0.00  0.00    +0.000 C 
ENDBRANCH  16  27
BRANCH   4  29
ATOM     29  C   UNL     1      -0.739  13.598  21.545  0.00  0.00    +0.000 C 
BRANCH  29  30
ATOM     30  C   UNL     1      -2.262  13.791  21.730  0.00  0.00    +0.000 C 
ATOM     31  C   UNL     1      -2.734  13.445  23.154  0.00  0.00    +0.000 C 
ATOM     32  C   UNL     1      -4.251  13.578  23.291  0.00  0.00    +0.000 C 
ATOM     33  C   UNL     1      -4.962  12.751  22.229  0.00  0.00    +0.000 C 
ATOM     34  C   UNL     1      -4.425  13.073  20.837  0.00  0.00    +0.000 C 
ATOM     35  N   UNL     1      -2.970  12.918  20.761  0.00  0.00    +0.000 NA
ATOM     36  H   UNL     1      -2.669  13.143  19.813  0.00  0.00    +0.000 HD
ENDBRANCH  29  30
ENDBRANCH   4  29
TORSDOF 5
ENDMDL
MODEL 3
REMARK VINA RESULT:      -7.1      3.816      6.069
REMARK  Name = 
REMARK  8 active torsions:
REMARK  status: ('A' for Active; 'I' for Inactive)
REMARK    1  A    between atoms: C_1  and  C_2
REMARK    2  A    between atoms: C_2  and  C_3
REMARK    3  A    between atoms: C_6  and  C_8
REMARK    4  A    between atoms: C_8  and  C_9
REMARK    5  A    between atoms: C_24  and  O_25
REMARK    6  A    between atoms: O_25  and  C_26
REMARK    7  A    between atoms: C_27  and  O_28
REMARK    8  A    between atoms: O_28  and  C_29
REMARK                            x       y       z     vdW  Elec       q    Type
REMARK                         _______ _______ _______ _____ _____    ______ ____
ROOT
ATOM      1  C   UNL     1       0.682  10.768  18.544  0.00  0.00    +0.000 C 
ATOM      2  C   UNL     1       0.525   9.273  18.141  0.00  0.00    +0.000 C 
ATOM      3  N   UNL     1       1.375   8.405  18.980  0.00  0.00    +0.000 N 
ATOM      4  C   UNL     1       2.553   7.874  18.447  0.00  0.00    +0.000 C 
ATOM      5  O   UNL     1       2.898   8.101  17.287  0.00  0.00    +0.000 OA
ATOM      6  C   UNL     1       1.071   8.533  20.412  0.00  0.00    +0.000 C 
ATOM      7  C   UNL     1       1.148  10.005  20.896  0.00  0.00    +0.000 C 
ATOM      8  N   UNL     1       0.423  10.927  20.000  0.00  0.00    +0.000 N 
ATOM      9  C   UNL     1      -0.799  11.402  20.451  0.00  0.00    +0.000 A 
ATOM     10  N   UNL     1      -0.927  11.663  21.765  0.00  0.00    +0.000 NA
ATOM     11  C   UNL     1      -2.070  12.210  22.208  0.00  0.00    +0.000 A 
ATOM     12  N   UNL     1      -2.110  12.464  23.589  0.00  0.00    +0.000 N 
ATOM     13  C   UNL     1      -3.165  12.482  21.391  0.00  0.00    +0.000 A 
ATOM     14  C   UNL     1      -4.403  13.022  21.851  0.00  0.00    +0.000 A 
ATOM     15  C   UNL     1      -5.473  13.261  20.984  0.00  0.00    +0.000 A 
ATOM     16  C   UNL     1      -5.303  12.937  19.632  0.00  0.00    +0.000 A 
ATOM     17  C   UNL     1      -4.059  12.412  19.203  0.00  0.00    +0.000 A 
ATOM     18  F   UNL     1      -3.921  12.114  17.896  0.00  0.00    +0.000 F 
ATOM     19  C   UNL     1      -2.971  12.172  20.047  0.00  0.00    +0.000 A 
ATOM     20  N   UNL     1      -1.797  11.663  19.592  0.00  0.00    +0.000 NA
ATOM     21  H   UNL     1      -1.188  12.239  23.957  0.00  0.00    +0.000 HD
ATOM     22  H   UNL     1      -2.355  13.429  23.783  0.00  0.00    +0.000 HD
ENDROOT
BRANCH   1  24
ATOM     23  C   UNL     1       2.379  12.712  18.235  0.00  0.00    +0.000 C 
ATOM     24  C   UNL     1       2.123  11.217  18.182  0.00  0.00    +0.000 C 
ENDBRANCH   1  24
BRANCH  15  25
ATOM     25  O   UNL     1      -6.667  13.789  21.389  0.00  0.00    +0.000 OA
ATOM     26  C   UNL     1      -7.572  12.987  22.137  0.00  0.00    +0.000 C 
ENDBRANCH  15  25
BRANCH  16  27
ATOM     27  O   UNL     1      -6.220  13.064  18.617  0.00  0.00    +0.000 OA
ATOM     28  C   UNL     1      -7.157  12.024  18.376  0.00  0.00    +0.000 C 
ENDBRANCH  16  27
BRANCH   4  29
ATOM     29  C   UNL     1       3.404   7.006  19.376  0.00  0.00    +0.000 C 
BRANCH  29  30
ATOM     30  C   UNL     1       2.973   5.524  19.468  0.00  0.00    +0.000 C 
ATOM     31  C   UNL     1       1.946   5.138  18.388  0.00  0.00    +0.000 C 
ATOM     32  C   UNL     1       1.485   3.689  18.544  0.00  0.00    +0.000 C 
ATOM     33  C   UNL     1       0.967   3.436  19.952  0.00  0.00    +0.000 C 
ATOM     34  C   UNL     1       1.982   3.889  20.997  0.00  0.00    +0.000 C 
ATOM     35  N   UNL     1       2.379   5.287  20.807  0.00  0.00    +0.000 NA
ATOM     36  H   UNL     1       3.053   5.534  21.531  0.00  0.00    +0.000 HD
ENDBRANCH  29  30
ENDBRANCH   4  29
TORSDOF 5
ENDMDL
MODEL 4
REMARK VINA RESULT:      -7.0      4.261      6.831
REMARK  Name = 
REMARK  8 active torsions:
REMARK  status: ('A' for Active; 'I' for Inactive)
REMARK    1  A    between atoms: C_1  and  C_2
REMARK    2  A    between atoms: C_2  and  C_3
REMARK    3  A    between atoms: C_6  and  C_8
REMARK    4  A    between atoms: C_8  and  C_9
REMARK    5  A    between atoms: C_24  and  O_25
REMARK    6  A    between atoms: O_25  and  C_26
REMARK    7  A    between atoms: C_27  and  O_28
REMARK    8  A    between atoms: O_28  and  C_29
REMARK                            x       y       z     vdW  Elec       q    Type
REMARK                         _______ _______ _______ _____ _____    ______ ____
ROOT
ATOM      1  C   UNL     1      -0.386  11.596  19.005  0.00  0.00    +0.000 C 
ATOM      2  C   UNL     1      -0.482  10.136  18.473  0.00  0.00    +0.000 C 
ATOM      3  N   UNL     1       0.426   9.240  19.215  0.00  0.00    +0.000 N 
ATOM      4  C   UNL     1       1.615   8.815  18.614  0.00  0.00    +0.000 C 
ATOM      5  O   UNL     1       1.922   9.160  17.473  0.00  0.00    +0.000 OA
ATOM      6  C   UNL     1       0.149   9.226  20.658  0.00  0.00    +0.000 C 
ATOM      7  C   UNL     1       0.168  10.651  21.270  0.00  0.00    +0.000 C 
ATOM      8  N   UNL     1      -0.619  11.612  20.474  0.00  0.00    +0.000 N 
ATOM      9  C   UNL     1      -1.851  11.986  20.989  0.00  0.00    +0.000 A 
ATOM     10  N   UNL     1      -1.961  12.123  22.322  0.00  0.00    +0.000 NA
ATOM     11  C   UNL     1      -3.117  12.573  22.834  0.00  0.00    +0.000 A 
ATOM     12  N   UNL     1      -3.137  12.702  24.232  0.00  0.00    +0.000 N 
ATOM     13  C   UNL     1      -4.242  12.863  22.065  0.00  0.00    +0.000 A 
ATOM     14  C   UNL     1      -5.493  13.300  22.595  0.00  0.00    +0.000 A 
ATOM     15  C   UNL     1      -6.593  13.562  21.773  0.00  0.00    +0.000 A 
ATOM     16  C   UNL     1      -6.439  13.368  20.394  0.00  0.00    +0.000 A 
ATOM     17  C   UNL     1      -5.182  12.943  19.897  0.00  0.00    +0.000 A 
ATOM     18  F   UNL     1      -5.060  12.769  18.566  0.00  0.00    +0.000 F 
ATOM     19  C   UNL     1      -4.065  12.682  20.696  0.00  0.00    +0.000 A 
ATOM     20  N   UNL     1      -2.879  12.273  20.175  0.00  0.00    +0.000 NA
ATOM     21  H   UNL     1      -2.198  12.490  24.561  0.00  0.00    +0.000 HD
ATOM     22  H   UNL     1      -3.423  13.633  24.516  0.00  0.00    +0.000 HD
ENDROOT
BRANCH   1  24
ATOM     23  C   UNL     1       1.137  13.654  18.563  0.00  0.00    +0.000 C 
ATOM     24  C   UNL     1       1.024  12.144  18.657  0.00  0.00    +0.000 C 
ENDBRANCH   1  24
BRANCH  15  25
ATOM     25  O   UNL     1      -7.800  13.994  22.247  0.00  0.00    +0.000 OA
ATOM     26  C   UNL     1      -7.917  14.403  23.603  0.00  0.00    +0.000 C 
ENDBRANCH  15  25
BRANCH  16  27
ATOM     27  O   UNL     1      -7.384  13.539  19.413  0.00  0.00    +0.000 OA
ATOM     28  C   UNL     1      -7.600  14.827  18.855  0.00  0.00    +0.000 C 
ENDBRANCH  16  27
BRANCH   4  29
ATOM     29  C   UNL     1       2.526   7.911  19.446  0.00  0.00    +0.000 C 
BRANCH  29  30
ATOM     30  C   UNL     1       2.256   6.395  19.305  0.00  0.00    +0.000 C 
ATOM     31  C   UNL     1       1.701   5.771  20.598  0.00  0.00    +0.000 C 
ATOM     32  C   UNL     1       1.508   4.261  20.455  0.00  0.00    +0.000 C 
ATOM     33  C   UNL     1       2.797   3.594  19.996  0.00  0.00    +0.000 C 
ATOM     34  C   UNL     1       3.352   4.278  18.750  0.00  0.00    +0.000 C 
ATOM     35  N   UNL     1       3.527   5.720  18.948  0.00  0.00    +0.000 NA
ATOM     36  H   UNL     1       3.901   6.122  18.089  0.00  0.00    +0.000 HD
ENDBRANCH  29  30
ENDBRANCH   4  29
TORSDOF 5
ENDMDL
MODEL 5
REMARK VINA RESULT:      -7.0      3.796      5.967
REMARK  Name = 
REMARK  8 active torsions:
REMARK  status: ('A' for Active; 'I' for Inactive)
REMARK    1  A    between atoms: C_1  and  C_2
REMARK    2  A    between atoms: C_2  and  C_3
REMARK    3  A    between atoms: C_6  and  C_8
REMARK    4  A    between atoms: C_8  and  C_9
REMARK    5  A    between atoms: C_24  and  O_25
REMARK    6  A    between atoms: O_25  and  C_26
REMARK    7  A    between atoms: C_27  and  O_28
REMARK    8  A    between atoms: O_28  and  C_29
REMARK                            x       y       z     vdW  Elec       q    Type
REMARK                         _______ _______ _______ _____ _____    ______ ____
ROOT
ATOM      1  C   UNL     1       0.383  11.147  18.707  0.00  0.00    +0.000 C 
ATOM      2  C   UNL     1       0.214   9.690  18.185  0.00  0.00    +0.000 C 
ATOM      3  N   UNL     1       1.069   8.754  18.941  0.00  0.00    +0.000 N 
ATOM      4  C   UNL     1       2.239   8.263  18.353  0.00  0.00    +0.000 C 
ATOM      5  O   UNL     1       2.572   8.583  17.212  0.00  0.00    +0.000 OA
ATOM      6  C   UNL     1       0.781   8.765  20.382  0.00  0.00    +0.000 C 
ATOM      7  C   UNL     1       0.870  10.193  20.984  0.00  0.00    +0.000 C 
ATOM      8  N   UNL     1       0.140  11.187  20.174  0.00  0.00    +0.000 N 
ATOM      9  C   UNL     1      -1.075  11.629  20.676  0.00  0.00    +0.000 A 
ATOM     10  N   UNL     1      -1.187  11.782  22.008  0.00  0.00    +0.000 NA
ATOM     11  C   UNL     1      -2.323  12.295  22.507  0.00  0.00    +0.000 A 
ATOM     12  N   UNL     1      -2.346  12.436  23.905  0.00  0.00    +0.000 N 
ATOM     13  C   UNL     1      -3.425  12.637  21.728  0.00  0.00    +0.000 A 
ATOM     14  C   UNL     1      -4.656  13.143  22.244  0.00  0.00    +0.000 A 
ATOM     15  C   UNL     1      -5.734  13.456  21.412  0.00  0.00    +0.000 A 
ATOM     16  C   UNL     1      -5.580  13.243  20.036  0.00  0.00    +0.000 A 
ATOM     17  C   UNL     1      -4.344  12.749  19.551  0.00  0.00    +0.000 A 
ATOM     18  F   UNL     1      -4.221  12.559  18.223  0.00  0.00    +0.000 F 
ATOM     19  C   UNL     1      -3.247  12.437  20.361  0.00  0.00    +0.000 A 
ATOM     20  N   UNL     1      -2.080  11.962  19.853  0.00  0.00    +0.000 NA
ATOM     21  H   UNL     1      -1.422  12.178  24.243  0.00  0.00    +0.000 HD
ATOM     22  H   UNL     1      -2.585  13.382  24.180  0.00  0.00    +0.000 HD
ENDROOT
BRANCH   1  24
ATOM     23  C   UNL     1       2.113  13.084  18.632  0.00  0.00    +0.000 C 
ATOM     24  C   UNL     1       1.822  11.618  18.367  0.00  0.00    +0.000 C 
ENDBRANCH   1  24
BRANCH  15  25
ATOM     25  O   UNL     1      -6.921  13.954  21.873  0.00  0.00    +0.000 OA
ATOM     26  C   UNL     1      -7.778  13.123  22.644  0.00  0.00    +0.000 C 
ENDBRANCH  15  25
BRANCH  16  27
ATOM     27  O   UNL     1      -6.507  13.455  19.046  0.00  0.00    +0.000 OA
ATOM     28  C   UNL     1      -7.466  12.451  18.747  0.00  0.00    +0.000 C 
ENDBRANCH  16  27
BRANCH   4  29
ATOM     29  C   UNL     1       3.095   7.319  19.199  0.00  0.00    +0.000 C 
BRANCH  29  30
ATOM     30  C   UNL     1       3.486   5.991  18.510  0.00  0.00    +0.000 C 
ATOM     31  C   UNL     1       2.260   5.171  18.069  0.00  0.00    +0.000 C 
ATOM     32  C   UNL     1       2.672   3.832  17.454  0.00  0.00    +0.000 C 
ATOM     33  C   UNL     1       3.575   3.059  18.404  0.00  0.00    +0.000 C 
ATOM     34  C   UNL     1       4.743   3.922  18.871  0.00  0.00    +0.000 C 
ATOM     35  N   UNL     1       4.290   5.185  19.461  0.00  0.00    +0.000 NA
ATOM     36  H   UNL     1       5.109   5.717  19.755  0.00  0.00    +0.000 HD
ENDBRANCH  29  30
ENDBRANCH   4  29
TORSDOF 5
ENDMDL
MODEL 6
REMARK VINA RESULT:      -6.9      2.565      4.486
REMARK  Name = 
REMARK  8 active torsions:
REMARK  status: ('A' for Active; 'I' for Inactive)
REMARK    1  A    between atoms: C_1  and  C_2
REMARK    2  A    between atoms: C_2  and  C_3
REMARK    3  A    between atoms: C_6  and  C_8
REMARK    4  A    between atoms: C_8  and  C_9
REMARK    5  A    between atoms: C_24  and  O_25
REMARK    6  A    between atoms: O_25  and  C_26
REMARK    7  A    between atoms: C_27  and  O_28
REMARK    8  A    between atoms: O_28  and  C_29
REMARK                            x       y       z     vdW  Elec       q    Type
REMARK                         _______ _______ _______ _____ _____    ______ ____
ROOT
ATOM      1  C   UNL     1       5.701   6.743  17.116  0.00  0.00    +0.000 C 
ATOM      2  C   UNL     1       5.243   6.627  15.632  0.00  0.00    +0.000 C 
ATOM      3  N   UNL     1       5.431   5.253  15.125  0.00  0.00    +0.000 N 
ATOM      4  C   UNL     1       6.496   4.979  14.262  0.00  0.00    +0.000 C 
ATOM      5  O   UNL     1       7.279   5.857  13.901  0.00  0.00    +0.000 OA
ATOM      6  C   UNL     1       4.698   4.255  15.916  0.00  0.00    +0.000 C 
ATOM      7  C   UNL     1       5.049   4.333  17.425  0.00  0.00    +0.000 C 
ATOM      8  N   UNL     1       5.009   5.716  17.938  0.00  0.00    +0.000 N 
ATOM      9  C   UNL     1       3.917   6.058  18.721  0.00  0.00    +0.000 A 
ATOM     10  N   UNL     1       3.421   5.125  19.554  0.00  0.00    +0.000 NA
ATOM     11  C   UNL     1       2.424   5.463  20.386  0.00  0.00    +0.000 A 
ATOM     12  N   UNL     1       1.982   4.432  21.232  0.00  0.00    +0.000 N 
ATOM     13  C   UNL     1       1.828   6.722  20.408  0.00  0.00    +0.000 A 
ATOM     14  C   UNL     1       0.739   7.086  21.255  0.00  0.00    +0.000 A 
ATOM     15  C   UNL     1       0.172   8.363  21.222  0.00  0.00    +0.000 A 
ATOM     16  C   UNL     1       0.698   9.288  20.310  0.00  0.00    +0.000 A 
ATOM     17  C   UNL     1       1.786   8.900  19.490  0.00  0.00    +0.000 A 
ATOM     18  F   UNL     1       2.277   9.811  18.626  0.00  0.00    +0.000 F 
ATOM     19  C   UNL     1       2.377   7.633  19.509  0.00  0.00    +0.000 A 
ATOM     20  N   UNL     1       3.418   7.303  18.701  0.00  0.00    +0.000 NA
ATOM     21  H   UNL     1       2.597   3.637  21.075  0.00  0.00    +0.000 HD
ATOM     22  H   UNL     1       1.994   4.717  22.205  0.00  0.00    +0.000 HD
ENDROOT
BRANCH   1  24
ATOM     23  C   UNL     1       7.868   6.600  18.543  0.00  0.00    +0.000 C 
ATOM     24  C   UNL     1       7.240   6.550  17.161  0.00  0.00    +0.000 C 
ENDBRANCH   1  24
BRANCH  15  25
ATOM     25  O   UNL     1      -0.863   8.749  22.027  0.00  0.00    +0.000 OA
ATOM     26  C   UNL     1      -0.616   9.641  23.107  0.00  0.00    +0.000 C 
ENDBRANCH  15  25
BRANCH  16  27
ATOM     27  O   UNL     1       0.284  10.579  20.092  0.00  0.00    +0.000 OA
ATOM     28  C   UNL     1      -0.812  10.833  19.225  0.00  0.00    +0.000 C 
ENDBRANCH  16  27
BRANCH   4  29
ATOM     29  C   UNL     1       6.653   3.531  13.795  0.00  0.00    +0.000 C 
BRANCH  29  30
ATOM     30  C   UNL     1       6.086   3.228  12.388  0.00  0.00    +0.000 C 
ATOM     31  C   UNL     1       4.615   3.659  12.238  0.00  0.00    +0.000 C 
ATOM     32  C   UNL     1       4.059   3.286  10.864  0.00  0.00    +0.000 C 
ATOM     33  C   UNL     1       4.259   1.804  10.585  0.00  0.00    +0.000 C 
ATOM     34  C   UNL     1       5.714   1.398  10.806  0.00  0.00    +0.000 C 
ATOM     35  N   UNL     1       6.190   1.769  12.141  0.00  0.00    +0.000 NA
ATOM     36  H   UNL     1       7.161   1.473  12.233  0.00  0.00    +0.000 HD
ENDBRANCH  29  30
ENDBRANCH   4  29
TORSDOF 5
ENDMDL
MODEL 7
REMARK VINA RESULT:      -6.9      2.576     10.039
REMARK  Name = 
REMARK  8 active torsions:
REMARK  status: ('A' for Active; 'I' for Inactive)
REMARK    1  A    between atoms: C_1  and  C_2
REMARK    2  A    between atoms: C_2  and  C_3
REMARK    3  A    between atoms: C_6  and  C_8
REMARK    4  A    between atoms: C_8  and  C_9
REMARK    5  A    between atoms: C_24  and  O_25
REMARK    6  A    between atoms: O_25  and  C_26
REMARK    7  A    between atoms: C_27  and  O_28
REMARK    8  A    between atoms: O_28  and  C_29
REMARK                            x       y       z     vdW  Elec       q    Type
REMARK                         _______ _______ _______ _____ _____    ______ ____
ROOT
ATOM      1  C   UNL     1       0.232  10.000  18.700  0.00  0.00    +0.000 C 
ATOM      2  C   UNL     1       0.888  11.362  19.073  0.00  0.00    +0.000 C 
ATOM      3  N   UNL     1       0.462  11.806  20.415  0.00  0.00    +0.000 N 
ATOM      4  C   UNL     1      -0.480  12.833  20.532  0.00  0.00    +0.000 C 
ATOM      5  O   UNL     1      -0.957  13.389  19.543  0.00  0.00    +0.000 OA
ATOM      6  C   UNL     1       0.792  10.830  21.463  0.00  0.00    +0.000 C 
ATOM      7  C   UNL     1       0.224   9.421  21.148  0.00  0.00    +0.000 C 
ATOM      8  N   UNL     1       0.511   8.999  19.764  0.00  0.00    +0.000 N 
ATOM      9  C   UNL     1       1.508   8.050  19.596  0.00  0.00    +0.000 A 
ATOM     10  N   UNL     1       1.619   7.082  20.523  0.00  0.00    +0.000 NA
ATOM     11  C   UNL     1       2.516   6.102  20.332  0.00  0.00    +0.000 A 
ATOM     12  N   UNL     1       2.551   5.126  21.341  0.00  0.00    +0.000 N 
ATOM     13  C   UNL     1       3.386   6.051  19.245  0.00  0.00    +0.000 A 
ATOM     14  C   UNL     1       4.375   5.042  19.048  0.00  0.00    +0.000 A 
ATOM     15  C   UNL     1       5.230   5.051  17.942  0.00  0.00    +0.000 A 
ATOM     16  C   UNL     1       5.101   6.101  17.024  0.00  0.00    +0.000 A 
ATOM     17  C   UNL     1       4.103   7.083  17.242  0.00  0.00    +0.000 A 
ATOM     18  F   UNL     1       3.995   8.079  16.341  0.00  0.00    +0.000 F 
ATOM     19  C   UNL     1       3.229   7.092  18.334  0.00  0.00    +0.000 A 
ATOM     20  N   UNL     1       2.289   8.057  18.504  0.00  0.00    +0.000 NA
ATOM     21  H   UNL     1       1.798   5.343  21.988  0.00  0.00    +0.000 HD
ATOM     22  H   UNL     1       2.447   4.192  20.958  0.00  0.00    +0.000 HD
ENDROOT
BRANCH   1  24
ATOM     23  C   UNL     1      -1.855   9.948  17.153  0.00  0.00    +0.000 C 
ATOM     24  C   UNL     1      -1.294  10.229  18.535  0.00  0.00    +0.000 C 
ENDBRANCH   1  24
BRANCH  15  25
ATOM     25  O   UNL     1       6.179   4.093  17.717  0.00  0.00    +0.000 OA
ATOM     26  C   UNL     1       7.556   4.434  17.808  0.00  0.00    +0.000 C 
ENDBRANCH  15  25
BRANCH  16  27
ATOM     27  O   UNL     1       5.844   6.321  15.891  0.00  0.00    +0.000 OA
ATOM     28  C   UNL     1       5.712   5.448  14.778  0.00  0.00    +0.000 C 
ENDBRANCH  16  27
BRANCH   4  29
ATOM     29  C   UNL     1      -0.901  13.227  21.948  0.00  0.00    +0.000 C 
BRANCH  29  30
ATOM     30  C   UNL     1      -0.413  14.618  22.417  0.00  0.00    +0.000 C 
ATOM     31  C   UNL     1      -1.023  15.034  23.768  0.00  0.00    +0.000 C 
ATOM     32  C   UNL     1      -0.579  16.439  24.175  0.00  0.00    +0.000 C 
ATOM     33  C   UNL     1      -0.882  17.441  23.071  0.00  0.00    +0.000 C 
ATOM     34  C   UNL     1      -0.320  16.967  21.734  0.00  0.00    +0.000 C 
ATOM     35  N   UNL     1      -0.786  15.620  21.390  0.00  0.00    +0.000 NA
ATOM     36  H   UNL     1      -0.383  15.358  20.491  0.00  0.00    +0.000 HD
ENDBRANCH  29  30
ENDBRANCH   4  29
TORSDOF 5
ENDMDL
MODEL 8
REMARK VINA RESULT:      -6.8      2.678      9.673
REMARK  Name = 
REMARK  8 active torsions:
REMARK  status: ('A' for Active; 'I' for Inactive)
REMARK    1  A    between atoms: C_1  and  C_2
REMARK    2  A    between atoms: C_2  and  C_3
REMARK    3  A    between atoms: C_6  and  C_8
REMARK    4  A    between atoms: C_8  and  C_9
REMARK    5  A    between atoms: C_24  and  O_25
REMARK    6  A    between atoms: O_25  and  C_26
REMARK    7  A    between atoms: C_27  and  O_28
REMARK    8  A    between atoms: O_28  and  C_29
REMARK                            x       y       z     vdW  Elec       q    Type
REMARK                         _______ _______ _______ _____ _____    ______ ____
ROOT
ATOM      1  C   UNL     1       0.652  10.630  18.407  0.00  0.00    +0.000 C 
ATOM      2  C   UNL     1       1.612  11.835  18.637  0.00  0.00    +0.000 C 
ATOM      3  N   UNL     1       1.324  12.505  19.920  0.00  0.00    +0.000 N 
ATOM      4  C   UNL     1       0.647  13.728  19.920  0.00  0.00    +0.000 C 
ATOM      5  O   UNL     1       0.292  14.272  18.874  0.00  0.00    +0.000 OA
ATOM      6  C   UNL     1       1.439  11.596  21.069  0.00  0.00    +0.000 C 
ATOM      7  C   UNL     1       0.556  10.331  20.903  0.00  0.00    +0.000 C 
ATOM      8  N   UNL     1       0.712   9.710  19.574  0.00  0.00    +0.000 N 
ATOM      9  C   UNL     1       1.460   8.544  19.515  0.00  0.00    +0.000 A 
ATOM     10  N   UNL     1       1.362   7.680  20.542  0.00  0.00    +0.000 NA
ATOM     11  C   UNL     1       2.006   6.505  20.463  0.00  0.00    +0.000 A 
ATOM     12  N   UNL     1       1.833   5.659  21.571  0.00  0.00    +0.000 N 
ATOM     13  C   UNL     1       2.820   6.139  19.393  0.00  0.00    +0.000 A 
ATOM     14  C   UNL     1       3.546   4.913  19.312  0.00  0.00    +0.000 A 
ATOM     15  C   UNL     1       4.359   4.607  18.217  0.00  0.00    +0.000 A 
ATOM     16  C   UNL     1       4.458   5.555  17.191  0.00  0.00    +0.000 A 
ATOM     17  C   UNL     1       3.718   6.759  17.295  0.00  0.00    +0.000 A 
ATOM     18  F   UNL     1       3.826   7.652  16.292  0.00  0.00    +0.000 F 
ATOM     19  C   UNL     1       2.891   7.086  18.375  0.00  0.00    +0.000 A 
ATOM     20  N   UNL     1       2.201   8.254  18.434  0.00  0.00    +0.000 NA
ATOM     21  H   UNL     1       1.162   6.112  22.186  0.00  0.00    +0.000 HD
ATOM     22  H   UNL     1       1.509   4.739  21.290  0.00  0.00    +0.000 HD
ENDROOT
BRANCH   1  24
ATOM     23  C   UNL     1      -1.823  10.177  17.759  0.00  0.00    +0.000 C 
ATOM     24  C   UNL     1      -0.783  11.187  18.209  0.00  0.00    +0.000 C 
ENDBRANCH   1  24
BRANCH  15  25
ATOM     25  O   UNL     1       5.057   3.437  18.102  0.00  0.00    +0.000 OA
ATOM     26  C   UNL     1       4.427   2.208  18.438  0.00  0.00    +0.000 C 
ENDBRANCH  15  25
BRANCH  16  27
ATOM     27  O   UNL     1       5.211   5.477  16.045  0.00  0.00    +0.000 OA
ATOM     28  C   UNL     1       6.615   5.678  16.106  0.00  0.00    +0.000 C 
ENDBRANCH  16  27
BRANCH   4  29
ATOM     29  C   UNL     1       0.354  14.357  21.283  0.00  0.00    +0.000 C 
BRANCH  29  30
ATOM     30  C   UNL     1      -1.106  14.216  21.773  0.00  0.00    +0.000 C 
ATOM     31  C   UNL     1      -1.227  13.317  23.018  0.00  0.00    +0.000 C 
ATOM     32  C   UNL     1      -2.686  13.137  23.440  0.00  0.00    +0.000 C 
ATOM     33  C   UNL     1      -3.526  12.631  22.276  0.00  0.00    +0.000 C 
ATOM     34  C   UNL     1      -3.332  13.507  21.042  0.00  0.00    +0.000 C 
ATOM     35  N   UNL     1      -1.918  13.635  20.676  0.00  0.00    +0.000 NA
ATOM     36  H   UNL     1      -1.849  14.225  19.848  0.00  0.00    +0.000 HD
ENDBRANCH  29  30
ENDBRANCH   4  29
TORSDOF 5
ENDMDL
MODEL 9
REMARK VINA RESULT:      -6.8      4.216      6.478
REMARK  Name = 
REMARK  8 active torsions:
REMARK  status: ('A' for Active; 'I' for Inactive)
REMARK    1  A    between atoms: C_1  and  C_2
REMARK    2  A    between atoms: C_2  and  C_3
REMARK    3  A    between atoms: C_6  and  C_8
REMARK    4  A    between atoms: C_8  and  C_9
REMARK    5  A    between atoms: C_24  and  O_25
REMARK    6  A    between atoms: O_25  and  C_26
REMARK    7  A    between atoms: C_27  and  O_28
REMARK    8  A    between atoms: O_28  and  C_29
REMARK                            x       y       z     vdW  Elec       q    Type
REMARK                         _______ _______ _______ _____ _____    ______ ____
ROOT
ATOM      1  C   UNL     1      -0.243  11.720  18.990  0.00  0.00    +0.000 C 
ATOM      2  C   UNL     1      -0.379  10.326  18.309  0.00  0.00    +0.000 C 
ATOM      3  N   UNL     1       0.452   9.317  18.996  0.00  0.00    +0.000 N 
ATOM      4  C   UNL     1       1.648   8.896  18.408  0.00  0.00    +0.000 C 
ATOM      5  O   UNL     1       2.025   9.336  17.322  0.00  0.00    +0.000 OA
ATOM      6  C   UNL     1       0.105   9.175  20.417  0.00  0.00    +0.000 C 
ATOM      7  C   UNL     1       0.159  10.530  21.170  0.00  0.00    +0.000 C 
ATOM      8  N   UNL     1      -0.545  11.603  20.441  0.00  0.00    +0.000 N 
ATOM      9  C   UNL     1      -1.783  11.984  20.937  0.00  0.00    +0.000 A 
ATOM     10  N   UNL     1      -1.950  11.994  22.272  0.00  0.00    +0.000 NA
ATOM     11  C   UNL     1      -3.109  12.448  22.775  0.00  0.00    +0.000 A 
ATOM     12  N   UNL     1      -3.190  12.439  24.178  0.00  0.00    +0.000 N 
ATOM     13  C   UNL     1      -4.182  12.867  21.992  0.00  0.00    +0.000 A 
ATOM     14  C   UNL     1      -5.436  13.311  22.508  0.00  0.00    +0.000 A 
ATOM     15  C   UNL     1      -6.482  13.707  21.670  0.00  0.00    +0.000 A 
ATOM     16  C   UNL     1      -6.271  13.642  20.287  0.00  0.00    +0.000 A 
ATOM     17  C   UNL     1      -5.012  13.207  19.804  0.00  0.00    +0.000 A 
ATOM     18  F   UNL     1      -4.834  13.160  18.469  0.00  0.00    +0.000 F 
ATOM     19  C   UNL     1      -3.947  12.814  20.620  0.00  0.00    +0.000 A 
ATOM     20  N   UNL     1      -2.757  12.400  20.113  0.00  0.00    +0.000 NA
ATOM     21  H   UNL     1      -2.278  12.150  24.524  0.00  0.00    +0.000 HD
ATOM     22  H   UNL     1      -3.447  13.350  24.541  0.00  0.00    +0.000 HD
ENDROOT
BRANCH   1  24
ATOM     23  C   UNL     1       1.542  13.562  19.404  0.00  0.00    +0.000 C 
ATOM     24  C   UNL     1       1.205  12.229  18.760  0.00  0.00    +0.000 C 
ENDBRANCH   1  24
BRANCH  15  25
ATOM     25  O   UNL     1      -7.690  14.149  22.132  0.00  0.00    +0.000 OA
ATOM     26  C   UNL     1      -7.870  15.531  22.414  0.00  0.00    +0.000 C 
ENDBRANCH  15  25
BRANCH  16  27
ATOM     27  O   UNL     1      -7.159  13.956  19.287  0.00  0.00    +0.000 OA
ATOM     28  C   UNL     1      -7.819  12.918  18.576  0.00  0.00    +0.000 C 
ENDBRANCH  16  27
BRANCH   4  29
ATOM     29  C   UNL     1       2.477   7.870  19.183  0.00  0.00    +0.000 C 
BRANCH  29  30
ATOM     30  C   UNL     1       3.006   6.683  18.345  0.00  0.00    +0.000 C 
ATOM     31  C   UNL     1       3.436   5.489  19.217  0.00  0.00    +0.000 C 
ATOM     32  C   UNL     1       4.019   4.358  18.371  0.00  0.00    +0.000 C 
ATOM     33  C   UNL     1       5.151   4.870  17.492  0.00  0.00    +0.000 C 
ATOM     34  C   UNL     1       4.710   6.091  16.690  0.00  0.00    +0.000 C 
ATOM     35  N   UNL     1       4.170   7.147  17.552  0.00  0.00    +0.000 NA
ATOM     36  H   UNL     1       3.896   7.935  16.966  0.00  0.00    +0.000 HD
ENDBRANCH  29  30
ENDBRANCH   4  29
TORSDOF 5
ENDMDL
