MODEL 1
REMARK VINA RESULT:      -8.2      0.000      0.000
REMARK  Name = 
REMARK  14 active torsions:
REMARK  status: ('A' for Active; 'I' for Inactive)
REMARK    1  A    between atoms: C_2  and  O_27
REMARK    2  A    between atoms: N_3  and  C_4
REMARK    3  A    between atoms: C_4  and  C_5
REMARK    4  A    between atoms: C_4  and  P_12
REMARK    5  A    between atoms: C_5  and  C_6
REMARK    6  A    between atoms: P_12  and  O_14
REMARK    7  A    between atoms: P_12  and  C_15
REMARK    8  A    between atoms: C_15  and  C_16
REMARK    9  A    between atoms: C_16  and  C_17
REMARK   10  A    between atoms: C_16  and  C_24
REMARK   11  A    between atoms: C_17  and  C_18
REMARK   12  A    between atoms: C_24  and  O_26
REMARK   13  A    between atoms: O_27  and  C_28
REMARK   14  A    between atoms: C_28  and  C_29
REMARK                            x       y       z     vdW  Elec       q    Type
REMARK                         _______ _______ _______ _____ _____    ______ ____
ROOT
ATOM      1  C   UNL     1       6.644   5.927  17.064  0.00  0.00    +0.000 C 
ENDROOT
BRANCH   1   4
ATOM      2  O   UNL     1       8.313   7.166  19.114  0.00  0.00    +0.000 OA
ATOM      3  C   UNL     1       8.196   7.660  18.003  0.00  0.00    +0.000 C 
ATOM      4  N   UNL     1       7.450   7.150  16.983  0.00  0.00    +0.000 N 
ATOM      5  H   UNL     1       7.406   7.738  16.163  0.00  0.00    +0.000 HD
BRANCH   3   6
ATOM      6  O   UNL     1       8.730   8.828  17.586  0.00  0.00    +0.000 OA
BRANCH   6   7
ATOM      7  C   UNL     1       8.297  10.017  18.259  0.00  0.00    +0.000 C 
BRANCH   7   8
ATOM      8  C   UNL     1       9.503  10.765  18.768  0.00  0.00    +0.000 A 
ATOM      9  C   UNL     1       9.645  11.080  20.127  0.00  0.00    +0.000 A 
ATOM     10  C   UNL     1      10.769  11.777  20.581  0.00  0.00    +0.000 A 
ATOM     11  C   UNL     1      11.756  12.171  19.681  0.00  0.00    +0.000 A 
ATOM     12  C   UNL     1      11.620  11.875  18.325  0.00  0.00    +0.000 A 
ATOM     13  C   UNL     1      10.497  11.181  17.870  0.00  0.00    +0.000 A 
ENDBRANCH   7   8
ENDBRANCH   6   7
ENDBRANCH   3   6
ENDBRANCH   1   4
BRANCH   1  14
ATOM     14  P   UNL     1       4.900   6.391  16.635  0.00  0.00    +0.000 P 
ATOM     15  O   UNL     1       4.681   6.976  15.272  0.00  0.00    +0.000 OA
BRANCH  14  16
ATOM     16  O   UNL     1       4.099   4.999  16.749  0.00  0.00    +0.000 OA
ATOM     17  H   UNL     1       4.466   4.431  17.474  0.00  0.00    +0.000 HD
ENDBRANCH  14  16
BRANCH  14  18
ATOM     18  C   UNL     1       4.171   7.412  17.935  0.00  0.00    +0.000 C 
BRANCH  18  19
ATOM     19  C   UNL     1       2.692   7.162  18.403  0.00  0.00    +0.000 C 
BRANCH  19  20
ATOM     20  C   UNL     1       1.901   8.462  18.260  0.00  0.00    +0.000 C 
ATOM     21  O   UNL     1       1.787   9.084  17.210  0.00  0.00    +0.000 OA
BRANCH  20  22
ATOM     22  O   UNL     1       1.259   8.880  19.377  0.00  0.00    +0.000 OA
ATOM     23  H   UNL     1       0.288   8.802  19.380  0.00  0.00    +0.000 HD
ENDBRANCH  20  22
ENDBRANCH  19  20
BRANCH  19  24
ATOM     24  C   UNL     1       2.525   6.557  19.815  0.00  0.00    +0.000 C 
BRANCH  24  25
ATOM     25  C   UNL     1       2.346   5.058  19.877  0.00  0.00    +0.000 A 
ATOM     26  C   UNL     1       3.424   4.169  19.764  0.00  0.00    +0.000 A 
ATOM     27  C   UNL     1       3.207   2.787  19.728  0.00  0.00    +0.000 A 
ATOM     28  C   UNL     1       1.914   2.279  19.824  0.00  0.00    +0.000 A 
ATOM     29  C   UNL     1       0.844   3.150  19.995  0.00  0.00    +0.000 A 
ATOM     30  C   UNL     1       1.064   4.523  20.036  0.00  0.00    +0.000 A 
ENDBRANCH  24  25
ENDBRANCH  19  24
ENDBRANCH  18  19
ENDBRANCH  14  18
ENDBRANCH   1  14
BRANCH   1  31
ATOM     31  C   UNL     1       7.294   4.716  16.301  0.00  0.00    +0.000 C 
BRANCH  31  32
ATOM     32  C   UNL     1       7.080   4.593  14.780  0.00  0.00    +0.000 A 
ATOM     33  C   UNL     1       6.170   3.696  14.205  0.00  0.00    +0.000 A 
ATOM     34  C   UNL     1       6.069   3.524  12.819  0.00  0.00    +0.000 A 
ATOM     35  C   UNL     1       6.845   4.291  11.962  0.00  0.00    +0.000 A 
ATOM     36  C   UNL     1       7.715   5.237  12.495  0.00  0.00    +0.000 A 
ATOM     37  C   UNL     1       7.836   5.386  13.889  0.00  0.00    +0.000 A 
ENDBRANCH  31  32
ENDBRANCH   1  31
TORSDOF 14
ENDMDL
MODEL 2
REMARK VINA RESULT:      -8.1      1.955      3.610
REMARK  Name = 
REMARK  14 active torsions:
REMARK  status: ('A' for Active; 'I' for Inactive)
REMARK    1  A    between atoms: C_2  and  O_27
REMARK    2  A    between atoms: N_3  and  C_4
REMARK    3  A    between atoms: C_4  and  C_5
REMARK    4  A    between atoms: C_4  and  P_12
REMARK    5  A    between atoms: C_5  and  C_6
REMARK    6  A    between atoms: P_12  and  O_14
REMARK    7  A    between atoms: P_12  and  C_15
REMARK    8  A    between atoms: C_15  and  C_16
REMARK    9  A    between atoms: C_16  and  C_17
REMARK   10  A    between atoms: C_16  and  C_24
REMARK   11  A    between atoms: C_17  and  C_18
REMARK   12  A    between atoms: C_24  and  O_26
REMARK   13  A    between atoms: O_27  and  C_28
REMARK   14  A    between atoms: C_28  and  C_29
REMARK                            x       y       z     vdW  Elec       q    Type
REMARK                         _______ _______ _______ _____ _____    ______ ____
ROOT
ATOM      1  C   UNL     1       6.057   5.132  16.883  0.00  0.00    +0.000 C 
ENDROOT
BRANCH   1   4
ATOM      2  O   UNL     1       8.177   5.142  18.891  0.00  0.00    +0.000 OA
ATOM      3  C   UNL     1       7.726   6.181  18.434  0.00  0.00    +0.000 C 
ATOM      4  N   UNL     1       6.746   6.275  17.491  0.00  0.00    +0.000 N 
ATOM      5  H   UNL     1       6.443   7.218  17.296  0.00  0.00    +0.000 HD
BRANCH   3   6
ATOM      6  O   UNL     1       8.061   7.434  18.812  0.00  0.00    +0.000 OA
BRANCH   6   7
ATOM      7  C   UNL     1       8.043   8.445  17.796  0.00  0.00    +0.000 C 
BRANCH   7   8
ATOM      8  C   UNL     1       8.621   9.720  18.356  0.00  0.00    +0.000 A 
ATOM      9  C   UNL     1       9.269   9.741  19.600  0.00  0.00    +0.000 A 
ATOM     10  C   UNL     1       9.796  10.933  20.105  0.00  0.00    +0.000 A 
ATOM     11  C   UNL     1       9.675  12.114  19.376  0.00  0.00    +0.000 A 
ATOM     12  C   UNL     1       9.022  12.108  18.144  0.00  0.00    +0.000 A 
ATOM     13  C   UNL     1       8.493  10.919  17.639  0.00  0.00    +0.000 A 
ENDBRANCH   7   8
ENDBRANCH   6   7
ENDBRANCH   3   6
ENDBRANCH   1   4
BRANCH   1  14
ATOM     14  P   UNL     1       4.952   4.404  18.182  0.00  0.00    +0.000 P 
ATOM     15  O   UNL     1       3.739   3.670  17.693  0.00  0.00    +0.000 OA
BRANCH  14  16
ATOM     16  O   UNL     1       5.913   3.376  18.966  0.00  0.00    +0.000 OA
ATOM     17  H   UNL     1       6.816   3.347  18.558  0.00  0.00    +0.000 HD
ENDBRANCH  14  16
BRANCH  14  18
ATOM     18  C   UNL     1       4.535   5.638  19.434  0.00  0.00    +0.000 C 
BRANCH  18  19
ATOM     19  C   UNL     1       3.038   6.053  19.671  0.00  0.00    +0.000 C 
BRANCH  19  20
ATOM     20  C   UNL     1       2.248   4.821  20.115  0.00  0.00    +0.000 C 
ATOM     21  O   UNL     1       2.297   4.345  21.243  0.00  0.00    +0.000 OA
BRANCH  20  22
ATOM     22  O   UNL     1       1.415   4.296  19.185  0.00  0.00    +0.000 OA
ATOM     23  H   UNL     1       1.826   3.768  18.477  0.00  0.00    +0.000 HD
ENDBRANCH  20  22
ENDBRANCH  19  20
BRANCH  19  24
ATOM     24  C   UNL     1       2.343   6.769  18.491  0.00  0.00    +0.000 C 
BRANCH  24  25
ATOM     25  C   UNL     1       1.918   8.197  18.741  0.00  0.00    +0.000 A 
ATOM     26  C   UNL     1       1.334   8.606  19.948  0.00  0.00    +0.000 A 
ATOM     27  C   UNL     1       0.865   9.914  20.106  0.00  0.00    +0.000 A 
ATOM     28  C   UNL     1       0.992  10.833  19.067  0.00  0.00    +0.000 A 
ATOM     29  C   UNL     1       1.623  10.454  17.887  0.00  0.00    +0.000 A 
ATOM     30  C   UNL     1       2.093   9.154  17.736  0.00  0.00    +0.000 A 
ENDBRANCH  24  25
ENDBRANCH  19  24
ENDBRANCH  18  19
ENDBRANCH  14  18
ENDBRANCH   1  14
BRANCH   1  31
ATOM     31  C   UNL     1       5.425   5.473  15.484  0.00  0.00    +0.000 C 
BRANCH  31  32
ATOM     32  C   UNL     1       6.039   4.845  14.218  0.00  0.00    +0.000 A 
ATOM     33  C   UNL     1       7.251   5.273  13.662  0.00  0.00    +0.000 A 
ATOM     34  C   UNL     1       7.736   4.763  12.451  0.00  0.00    +0.000 A 
ATOM     35  C   UNL     1       7.042   3.762  11.787  0.00  0.00    +0.000 A 
ATOM     36  C   UNL     1       5.865   3.268  12.340  0.00  0.00    +0.000 A 
ATOM     37  C   UNL     1       5.365   3.805  13.542  0.00  0.00    +0.000 A 
ENDBRANCH  31  32
ENDBRANCH   1  31
TORSDOF 14
ENDMDL
MODEL 3
REMARK VINA RESULT:      -7.9      4.109      7.682
REMARK  Name = 
REMARK  14 active torsions:
REMARK  status: ('A' for Active; 'I' for Inactive)
REMARK    1  A    between atoms: C_2  and  O_27
REMARK    2  A    between atoms: N_3  and  C_4
REMARK    3  A    between atoms: C_4  and  C_5
REMARK    4  A    between atoms: C_4  and  P_12
REMARK    5  A    between atoms: C_5  and  C_6
REMARK    6  A    between atoms: P_12  and  O_14
REMARK    7  A    between atoms: P_12  and  C_15
REMARK    8  A    between atoms: C_15  and  C_16
REMARK    9  A    between atoms: C_16  and  C_17
REMARK   10  A    between atoms: C_16  and  C_24
REMARK   11  A    between atoms: C_17  and  C_18
REMARK   12  A    between atoms: C_24  and  O_26
REMARK   13  A    between atoms: O_27  and  C_28
REMARK   14  A    between atoms: C_28  and  C_29
REMARK                            x       y       z     vdW  Elec       q    Type
REMARK                         _______ _______ _______ _____ _____    ______ ____
ROOT
ATOM      1  C   UNL     1       5.018   4.303  17.247  0.00  0.00    +0.000 C 
ENDROOT
BRANCH   1   4
ATOM      2  O   UNL     1       7.688   4.481  16.081  0.00  0.00    +0.000 OA
ATOM      3  C   UNL     1       6.694   4.805  15.450  0.00  0.00    +0.000 C 
ATOM      4  N   UNL     1       5.411   4.748  15.907  0.00  0.00    +0.000 N 
ATOM      5  H   UNL     1       4.725   5.134  15.275  0.00  0.00    +0.000 HD
BRANCH   3   6
ATOM      6  O   UNL     1       6.671   5.336  14.208  0.00  0.00    +0.000 OA
BRANCH   6   7
ATOM      7  C   UNL     1       7.464   4.684  13.208  0.00  0.00    +0.000 C 
BRANCH   7   8
ATOM      8  C   UNL     1       6.596   3.725  12.434  0.00  0.00    +0.000 A 
ATOM      9  C   UNL     1       5.211   3.921  12.329  0.00  0.00    +0.000 A 
ATOM     10  C   UNL     1       4.419   3.020  11.609  0.00  0.00    +0.000 A 
ATOM     11  C   UNL     1       5.004   1.915  10.994  0.00  0.00    +0.000 A 
ATOM     12  C   UNL     1       6.378   1.704  11.103  0.00  0.00    +0.000 A 
ATOM     13  C   UNL     1       7.169   2.601  11.823  0.00  0.00    +0.000 A 
ENDBRANCH   7   8
ENDBRANCH   6   7
ENDBRANCH   3   6
ENDBRANCH   1   4
BRANCH   1  14
ATOM     14  P   UNL     1       4.675   5.824  18.251  0.00  0.00    +0.000 P 
ATOM     15  O   UNL     1       5.055   5.768  19.700  0.00  0.00    +0.000 OA
BRANCH  14  16
ATOM     16  O   UNL     1       5.545   6.965  17.519  0.00  0.00    +0.000 OA
ATOM     17  H   UNL     1       4.982   7.740  17.266  0.00  0.00    +0.000 HD
ENDBRANCH  14  16
BRANCH  14  18
ATOM     18  C   UNL     1       2.969   6.373  18.020  0.00  0.00    +0.000 C 
BRANCH  18  19
ATOM     19  C   UNL     1       2.480   7.725  18.653  0.00  0.00    +0.000 C 
BRANCH  19  20
ATOM     20  C   UNL     1       2.026   7.464  20.090  0.00  0.00    +0.000 C 
ATOM     21  O   UNL     1       1.587   8.330  20.838  0.00  0.00    +0.000 OA
BRANCH  20  22
ATOM     22  O   UNL     1       2.081   6.173  20.494  0.00  0.00    +0.000 OA
ATOM     23  H   UNL     1       1.794   5.987  21.406  0.00  0.00    +0.000 HD
ENDBRANCH  20  22
ENDBRANCH  19  20
BRANCH  19  24
ATOM     24  C   UNL     1       1.400   8.490  17.856  0.00  0.00    +0.000 C 
BRANCH  24  25
ATOM     25  C   UNL     1       1.222   9.948  18.211  0.00  0.00    +0.000 A 
ATOM     26  C   UNL     1      -0.010  10.474  18.624  0.00  0.00    +0.000 A 
ATOM     27  C   UNL     1      -0.158  11.847  18.849  0.00  0.00    +0.000 A 
ATOM     28  C   UNL     1       0.926  12.704  18.685  0.00  0.00    +0.000 A 
ATOM     29  C   UNL     1       2.167  12.185  18.333  0.00  0.00    +0.000 A 
ATOM     30  C   UNL     1       2.312  10.818  18.115  0.00  0.00    +0.000 A 
ENDBRANCH  24  25
ENDBRANCH  19  24
ENDBRANCH  18  19
ENDBRANCH  14  18
ENDBRANCH   1  14
BRANCH   1  31
ATOM     31  C   UNL     1       3.922   3.175  17.220  0.00  0.00    +0.000 C 
BRANCH  31  32
ATOM     32  C   UNL     1       3.038   2.966  18.465  0.00  0.00    +0.000 A 
ATOM     33  C   UNL     1       1.639   3.036  18.431  0.00  0.00    +0.000 A 
ATOM     34  C   UNL     1       0.861   2.951  19.591  0.00  0.00    +0.000 A 
ATOM     35  C   UNL     1       1.464   2.737  20.823  0.00  0.00    +0.000 A 
ATOM     36  C   UNL     1       2.847   2.601  20.888  0.00  0.00    +0.000 A 
ATOM     37  C   UNL     1       3.628   2.718  19.724  0.00  0.00    +0.000 A 
ENDBRANCH  31  32
ENDBRANCH   1  31
TORSDOF 14
ENDMDL
MODEL 4
REMARK VINA RESULT:      -7.8      0.765      1.623
REMARK  Name = 
REMARK  14 active torsions:
REMARK  status: ('A' for Active; 'I' for Inactive)
REMARK    1  A    between atoms: C_2  and  O_27
REMARK    2  A    between atoms: N_3  and  C_4
REMARK    3  A    between atoms: C_4  and  C_5
REMARK    4  A    between atoms: C_4  and  P_12
REMARK    5  A    between atoms: C_5  and  C_6
REMARK    6  A    between atoms: P_12  and  O_14
REMARK    7  A    between atoms: P_12  and  C_15
REMARK    8  A    between atoms: C_15  and  C_16
REMARK    9  A    between atoms: C_16  and  C_17
REMARK   10  A    between atoms: C_16  and  C_24
REMARK   11  A    between atoms: C_17  and  C_18
REMARK   12  A    between atoms: C_24  and  O_26
REMARK   13  A    between atoms: O_27  and  C_28
REMARK   14  A    between atoms: C_28  and  C_29
REMARK                            x       y       z     vdW  Elec       q    Type
REMARK                         _______ _______ _______ _____ _____    ______ ____
ROOT
ATOM      1  C   UNL     1       6.589   6.095  16.986  0.00  0.00    +0.000 C 
ENDROOT
BRANCH   1   4
ATOM      2  O   UNL     1       8.368   7.052  19.094  0.00  0.00    +0.000 OA
ATOM      3  C   UNL     1       8.125   7.731  18.108  0.00  0.00    +0.000 C 
ATOM      4  N   UNL     1       7.317   7.365  17.073  0.00  0.00    +0.000 N 
ATOM      5  H   UNL     1       7.168   8.088  16.383  0.00  0.00    +0.000 HD
BRANCH   3   6
ATOM      6  O   UNL     1       8.555   8.990  17.876  0.00  0.00    +0.000 OA
BRANCH   6   7
ATOM      7  C   UNL     1       9.123   9.697  18.986  0.00  0.00    +0.000 C 
BRANCH   7   8
ATOM      8  C   UNL     1       9.705  10.999  18.498  0.00  0.00    +0.000 A 
ATOM      9  C   UNL     1      11.074  11.278  18.628  0.00  0.00    +0.000 A 
ATOM     10  C   UNL     1      11.597  12.492  18.173  0.00  0.00    +0.000 A 
ATOM     11  C   UNL     1      10.757  13.440  17.592  0.00  0.00    +0.000 A 
ATOM     12  C   UNL     1       9.393  13.179  17.470  0.00  0.00    +0.000 A 
ATOM     13  C   UNL     1       8.869  11.968  17.925  0.00  0.00    +0.000 A 
ENDBRANCH   7   8
ENDBRANCH   6   7
ENDBRANCH   3   6
ENDBRANCH   1   4
BRANCH   1  14
ATOM     14  P   UNL     1       4.911   6.472  16.290  0.00  0.00    +0.000 P 
ATOM     15  O   UNL     1       4.868   6.933  14.864  0.00  0.00    +0.000 OA
BRANCH  14  16
ATOM     16  O   UNL     1       4.125   5.073  16.419  0.00  0.00    +0.000 OA
ATOM     17  H   UNL     1       4.058   4.783  17.364  0.00  0.00    +0.000 HD
ENDBRANCH  14  16
BRANCH  14  18
ATOM     18  C   UNL     1       3.997   7.579  17.387  0.00  0.00    +0.000 C 
BRANCH  18  19
ATOM     19  C   UNL     1       2.885   7.010  18.339  0.00  0.00    +0.000 C 
BRANCH  19  20
ATOM     20  C   UNL     1       1.955   8.151  18.753  0.00  0.00    +0.000 C 
ATOM     21  O   UNL     1       1.603   8.364  19.908  0.00  0.00    +0.000 OA
BRANCH  20  22
ATOM     22  O   UNL     1       1.569   8.980  17.755  0.00  0.00    +0.000 OA
ATOM     23  H   UNL     1       1.749   9.930  17.880  0.00  0.00    +0.000 HD
ENDBRANCH  20  22
ENDBRANCH  19  20
BRANCH  19  24
ATOM     24  C   UNL     1       3.389   6.225  19.571  0.00  0.00    +0.000 C 
BRANCH  24  25
ATOM     25  C   UNL     1       2.752   4.875  19.804  0.00  0.00    +0.000 A 
ATOM     26  C   UNL     1       1.479   4.736  20.375  0.00  0.00    +0.000 A 
ATOM     27  C   UNL     1       0.963   3.468  20.665  0.00  0.00    +0.000 A 
ATOM     28  C   UNL     1       1.704   2.327  20.369  0.00  0.00    +0.000 A 
ATOM     29  C   UNL     1       2.942   2.452  19.749  0.00  0.00    +0.000 A 
ATOM     30  C   UNL     1       3.450   3.714  19.457  0.00  0.00    +0.000 A 
ENDBRANCH  24  25
ENDBRANCH  19  24
ENDBRANCH  18  19
ENDBRANCH  14  18
ENDBRANCH   1  14
BRANCH   1  31
ATOM     31  C   UNL     1       7.429   4.954  16.307  0.00  0.00    +0.000 C 
BRANCH  31  32
ATOM     32  C   UNL     1       7.242   4.687  14.801  0.00  0.00    +0.000 A 
ATOM     33  C   UNL     1       7.938   5.389  13.807  0.00  0.00    +0.000 A 
ATOM     34  C   UNL     1       7.674   5.207  12.444  0.00  0.00    +0.000 A 
ATOM     35  C   UNL     1       6.737   4.270  12.033  0.00  0.00    +0.000 A 
ATOM     36  C   UNL     1       6.069   3.511  12.989  0.00  0.00    +0.000 A 
ATOM     37  C   UNL     1       6.315   3.718  14.359  0.00  0.00    +0.000 A 
ENDBRANCH  31  32
ENDBRANCH   1  31
TORSDOF 14
ENDMDL
MODEL 5
REMARK VINA RESULT:      -7.8      1.291      2.120
REMARK  Name = 
REMARK  14 active torsions:
REMARK  status: ('A' for Active; 'I' for Inactive)
REMARK    1  A    between atoms: C_2  and  O_27
REMARK    2  A    between atoms: N_3  and  C_4
REMARK    3  A    between atoms: C_4  and  C_5
REMARK    4  A    between atoms: C_4  and  P_12
REMARK    5  A    between atoms: C_5  and  C_6
REMARK    6  A    between atoms: P_12  and  O_14
REMARK    7  A    between atoms: P_12  and  C_15
REMARK    8  A    between atoms: C_15  and  C_16
REMARK    9  A    between atoms: C_16  and  C_17
REMARK   10  A    between atoms: C_16  and  C_24
REMARK   11  A    between atoms: C_17  and  C_18
REMARK   12  A    between atoms: C_24  and  O_26
REMARK   13  A    between atoms: O_27  and  C_28
REMARK   14  A    between atoms: C_28  and  C_29
REMARK                            x       y       z     vdW  Elec       q    Type
REMARK                         _______ _______ _______ _____ _____    ______ ____
ROOT
ATOM      1  C   UNL     1       6.935   5.698  17.307  0.00  0.00    +0.000 C 
ENDROOT
BRANCH   1   4
ATOM      2  O   UNL     1       6.487   8.579  17.160  0.00  0.00    +0.000 OA
ATOM      3  C   UNL     1       7.485   8.115  17.689  0.00  0.00    +0.000 C 
ATOM      4  N   UNL     1       7.775   6.789  17.812  0.00  0.00    +0.000 N 
ATOM      5  H   UNL     1       8.685   6.594  18.205  0.00  0.00    +0.000 HD
BRANCH   3   6
ATOM      6  O   UNL     1       8.521   8.816  18.199  0.00  0.00    +0.000 OA
BRANCH   6   7
ATOM      7  C   UNL     1       8.658  10.177  17.770  0.00  0.00    +0.000 C 
BRANCH   7   8
ATOM      8  C   UNL     1       9.727  10.851  18.592  0.00  0.00    +0.000 A 
ATOM      9  C   UNL     1      10.915  11.310  18.005  0.00  0.00    +0.000 A 
ATOM     10  C   UNL     1      11.898  11.931  18.782  0.00  0.00    +0.000 A 
ATOM     11  C   UNL     1      11.705  12.091  20.153  0.00  0.00    +0.000 A 
ATOM     12  C   UNL     1      10.534  11.626  20.750  0.00  0.00    +0.000 A 
ATOM     13  C   UNL     1       9.552  11.005  19.975  0.00  0.00    +0.000 A 
ENDBRANCH   7   8
ENDBRANCH   6   7
ENDBRANCH   3   6
ENDBRANCH   1   4
BRANCH   1  14
ATOM     14  P   UNL     1       5.950   5.056  18.741  0.00  0.00    +0.000 P 
ATOM     15  O   UNL     1       5.557   3.610  18.688  0.00  0.00    +0.000 OA
BRANCH  14  16
ATOM     16  O   UNL     1       6.919   5.295  20.005  0.00  0.00    +0.000 OA
ATOM     17  H   UNL     1       7.685   5.877  19.766  0.00  0.00    +0.000 HD
ENDBRANCH  14  16
BRANCH  14  18
ATOM     18  C   UNL     1       4.536   6.129  19.078  0.00  0.00    +0.000 C 
BRANCH  18  19
ATOM     19  C   UNL     1       3.407   6.313  18.001  0.00  0.00    +0.000 C 
BRANCH  19  20
ATOM     20  C   UNL     1       2.620   7.584  18.321  0.00  0.00    +0.000 C 
ATOM     21  O   UNL     1       2.198   7.867  19.437  0.00  0.00    +0.000 OA
BRANCH  20  22
ATOM     22  O   UNL     1       2.453   8.443  17.287  0.00  0.00    +0.000 OA
ATOM     23  H   UNL     1       2.119   9.332  17.505  0.00  0.00    +0.000 HD
ENDBRANCH  20  22
ENDBRANCH  19  20
BRANCH  19  24
ATOM     24  C   UNL     1       2.463   5.106  17.800  0.00  0.00    +0.000 C 
BRANCH  24  25
ATOM     25  C   UNL     1       2.070   4.357  19.052  0.00  0.00    +0.000 A 
ATOM     26  C   UNL     1       2.518   4.738  20.325  0.00  0.00    +0.000 A 
ATOM     27  C   UNL     1       2.212   3.962  21.449  0.00  0.00    +0.000 A 
ATOM     28  C   UNL     1       1.442   2.810  21.315  0.00  0.00    +0.000 A 
ATOM     29  C   UNL     1       0.944   2.455  20.066  0.00  0.00    +0.000 A 
ATOM     30  C   UNL     1       1.245   3.233  18.952  0.00  0.00    +0.000 A 
ENDBRANCH  24  25
ENDBRANCH  19  24
ENDBRANCH  18  19
ENDBRANCH  14  18
ENDBRANCH   1  14
BRANCH   1  31
ATOM     31  C   UNL     1       6.162   6.080  15.993  0.00  0.00    +0.000 C 
BRANCH  31  32
ATOM     32  C   UNL     1       6.321   5.185  14.748  0.00  0.00    +0.000 A 
ATOM     33  C   UNL     1       7.408   5.284  13.870  0.00  0.00    +0.000 A 
ATOM     34  C   UNL     1       7.479   4.537  12.687  0.00  0.00    +0.000 A 
ATOM     35  C   UNL     1       6.482   3.623  12.377  0.00  0.00    +0.000 A 
ATOM     36  C   UNL     1       5.418   3.453  13.257  0.00  0.00    +0.000 A 
ATOM     37  C   UNL     1       5.334   4.228  14.429  0.00  0.00    +0.000 A 
ENDBRANCH  31  32
ENDBRANCH   1  31
TORSDOF 14
ENDMDL
MODEL 6
REMARK VINA RESULT:      -7.7      3.939      8.173
REMARK  Name = 
REMARK  14 active torsions:
REMARK  status: ('A' for Active; 'I' for Inactive)
REMARK    1  A    between atoms: C_2  and  O_27
REMARK    2  A    between atoms: N_3  and  C_4
REMARK    3  A    between atoms: C_4  and  C_5
REMARK    4  A    between atoms: C_4  and  P_12
REMARK    5  A    between atoms: C_5  and  C_6
REMARK    6  A    between atoms: P_12  and  O_14
REMARK    7  A    between atoms: P_12  and  C_15
REMARK    8  A    between atoms: C_15  and  C_16
REMARK    9  A    between atoms: C_16  and  C_17
REMARK   10  A    between atoms: C_16  and  C_24
REMARK   11  A    between atoms: C_17  and  C_18
REMARK   12  A    between atoms: C_24  and  O_26
REMARK   13  A    between atoms: O_27  and  C_28
REMARK   14  A    between atoms: C_28  and  C_29
REMARK                            x       y       z     vdW  Elec       q    Type
REMARK                         _______ _______ _______ _____ _____    ______ ____
ROOT
ATOM      1  C   UNL     1       2.681   6.279  17.784  0.00  0.00    +0.000 C 
ENDROOT
BRANCH   1   4
ATOM      2  O   UNL     1       1.996   9.078  17.313  0.00  0.00    +0.000 OA
ATOM      3  C   UNL     1       1.957   8.591  18.433  0.00  0.00    +0.000 C 
ATOM      4  N   UNL     1       2.250   7.298  18.747  0.00  0.00    +0.000 N 
ATOM      5  H   UNL     1       2.243   7.096  19.736  0.00  0.00    +0.000 HD
BRANCH   3   6
ATOM      6  O   UNL     1       1.677   9.245  19.581  0.00  0.00    +0.000 OA
BRANCH   6   7
ATOM      7  C   UNL     1       0.861  10.419  19.478  0.00  0.00    +0.000 C 
BRANCH   7   8
ATOM      8  C   UNL     1       0.103  10.611  20.767  0.00  0.00    +0.000 A 
ATOM      9  C   UNL     1       0.261   9.724  21.843  0.00  0.00    +0.000 A 
ATOM     10  C   UNL     1      -0.451   9.915  23.031  0.00  0.00    +0.000 A 
ATOM     11  C   UNL     1      -1.332  10.988  23.151  0.00  0.00    +0.000 A 
ATOM     12  C   UNL     1      -1.506  11.868  22.084  0.00  0.00    +0.000 A 
ATOM     13  C   UNL     1      -0.797  11.678  20.896  0.00  0.00    +0.000 A 
ENDBRANCH   7   8
ENDBRANCH   6   7
ENDBRANCH   3   6
ENDBRANCH   1   4
BRANCH   1  14
ATOM     14  P   UNL     1       4.498   6.012  18.046  0.00  0.00    +0.000 P 
ATOM     15  O   UNL     1       5.411   7.093  17.550  0.00  0.00    +0.000 OA
BRANCH  14  16
ATOM     16  O   UNL     1       4.636   5.895  19.647  0.00  0.00    +0.000 OA
ATOM     17  H   UNL     1       5.209   5.128  19.903  0.00  0.00    +0.000 HD
ENDBRANCH  14  16
BRANCH  14  18
ATOM     18  C   UNL     1       4.998   4.380  17.453  0.00  0.00    +0.000 C 
BRANCH  18  19
ATOM     19  C   UNL     1       5.924   4.246  16.192  0.00  0.00    +0.000 C 
BRANCH  19  20
ATOM     20  C   UNL     1       7.298   4.830  16.521  0.00  0.00    +0.000 C 
ATOM     21  O   UNL     1       7.717   5.892  16.074  0.00  0.00    +0.000 OA
BRANCH  20  22
ATOM     22  O   UNL     1       8.036   4.121  17.408  0.00  0.00    +0.000 OA
ATOM     23  H   UNL     1       7.823   3.174  17.497  0.00  0.00    +0.000 HD
ENDBRANCH  20  22
ENDBRANCH  19  20
BRANCH  19  24
ATOM     24  C   UNL     1       5.365   4.838  14.878  0.00  0.00    +0.000 C 
BRANCH  24  25
ATOM     25  C   UNL     1       5.772   4.132  13.606  0.00  0.00    +0.000 A 
ATOM     26  C   UNL     1       7.048   4.279  13.043  0.00  0.00    +0.000 A 
ATOM     27  C   UNL     1       7.355   3.688  11.813  0.00  0.00    +0.000 A 
ATOM     28  C   UNL     1       6.400   2.928  11.144  0.00  0.00    +0.000 A 
ATOM     29  C   UNL     1       5.151   2.727  11.722  0.00  0.00    +0.000 A 
ATOM     30  C   UNL     1       4.851   3.312  12.948  0.00  0.00    +0.000 A 
ENDBRANCH  24  25
ENDBRANCH  19  24
ENDBRANCH  18  19
ENDBRANCH  14  18
ENDBRANCH   1  14
BRANCH   1  31
ATOM     31  C   UNL     1       1.745   5.016  17.769  0.00  0.00    +0.000 C 
BRANCH  31  32
ATOM     32  C   UNL     1       1.780   4.050  18.970  0.00  0.00    +0.000 A 
ATOM     33  C   UNL     1       2.038   2.679  18.841  0.00  0.00    +0.000 A 
ATOM     34  C   UNL     1       1.958   1.801  19.929  0.00  0.00    +0.000 A 
ATOM     35  C   UNL     1       1.668   2.285  21.197  0.00  0.00    +0.000 A 
ATOM     36  C   UNL     1       1.466   3.650  21.374  0.00  0.00    +0.000 A 
ATOM     37  C   UNL     1       1.517   4.525  20.273  0.00  0.00    +0.000 A 
ENDBRANCH  31  32
ENDBRANCH   1  31
TORSDOF 14
ENDMDL
MODEL 7
REMARK VINA RESULT:      -7.7      3.927      8.250
REMARK  Name = 
REMARK  14 active torsions:
REMARK  status: ('A' for Active; 'I' for Inactive)
REMARK    1  A    between atoms: C_2  and  O_27
REMARK    2  A    between atoms: N_3  and  C_4
REMARK    3  A    between atoms: C_4  and  C_5
REMARK    4  A    between atoms: C_4  and  P_12
REMARK    5  A    between atoms: C_5  and  C_6
REMARK    6  A    between atoms: P_12  and  O_14
REMARK    7  A    between atoms: P_12  and  C_15
REMARK    8  A    between atoms: C_15  and  C_16
REMARK    9  A    between atoms: C_16  and  C_17
REMARK   10  A    between atoms: C_16  and  C_24
REMARK   11  A    between atoms: C_17  and  C_18
REMARK   12  A    between atoms: C_24  and  O_26
REMARK   13  A    between atoms: O_27  and  C_28
REMARK   14  A    between atoms: C_28  and  C_29
REMARK                            x       y       z     vdW  Elec       q    Type
REMARK                         _______ _______ _______ _____ _____    ______ ____
ROOT
ATOM      1  C   UNL     1       2.748   6.431  17.918  0.00  0.00    +0.000 C 
ENDROOT
BRANCH   1   4
ATOM      2  O   UNL     1       1.369   8.998  17.730  0.00  0.00    +0.000 OA
ATOM      3  C   UNL     1       1.708   8.533  18.808  0.00  0.00    +0.000 C 
ATOM      4  N   UNL     1       2.346   7.343  18.994  0.00  0.00    +0.000 N 
ATOM      5  H   UNL     1       2.622   7.161  19.948  0.00  0.00    +0.000 HD
BRANCH   3   6
ATOM      6  O   UNL     1       1.575   9.127  20.014  0.00  0.00    +0.000 OA
BRANCH   6   7
ATOM      7  C   UNL     1       1.299  10.533  20.019  0.00  0.00    +0.000 C 
BRANCH   7   8
ATOM      8  C   UNL     1       0.248  10.829  21.058  0.00  0.00    +0.000 A 
ATOM      9  C   UNL     1       0.139  10.055  22.222  0.00  0.00    +0.000 A 
ATOM     10  C   UNL     1      -0.844  10.341  23.175  0.00  0.00    +0.000 A 
ATOM     11  C   UNL     1      -1.728  11.398  22.969  0.00  0.00    +0.000 A 
ATOM     12  C   UNL     1      -1.636  12.166  21.810  0.00  0.00    +0.000 A 
ATOM     13  C   UNL     1      -0.657  11.881  20.857  0.00  0.00    +0.000 A 
ENDBRANCH   7   8
ENDBRANCH   6   7
ENDBRANCH   3   6
ENDBRANCH   1   4
BRANCH   1  14
ATOM     14  P   UNL     1       4.554   6.077  18.146  0.00  0.00    +0.000 P 
ATOM     15  O   UNL     1       5.507   7.133  17.673  0.00  0.00    +0.000 OA
BRANCH  14  16
ATOM     16  O   UNL     1       4.707   5.900  19.739  0.00  0.00    +0.000 OA
ATOM     17  H   UNL     1       5.215   6.653  20.137  0.00  0.00    +0.000 HD
ENDBRANCH  14  16
BRANCH  14  18
ATOM     18  C   UNL     1       4.974   4.445  17.493  0.00  0.00    +0.000 C 
BRANCH  18  19
ATOM     19  C   UNL     1       5.914   4.311  16.241  0.00  0.00    +0.000 C 
BRANCH  19  20
ATOM     20  C   UNL     1       7.304   4.831  16.608  0.00  0.00    +0.000 C 
ATOM     21  O   UNL     1       8.115   4.205  17.281  0.00  0.00    +0.000 OA
BRANCH  20  22
ATOM     22  O   UNL     1       7.632   6.037  16.086  0.00  0.00    +0.000 OA
ATOM     23  H   UNL     1       8.472   6.430  16.387  0.00  0.00    +0.000 HD
ENDBRANCH  20  22
ENDBRANCH  19  20
BRANCH  19  24
ATOM     24  C   UNL     1       5.398   4.963  14.938  0.00  0.00    +0.000 C 
BRANCH  24  25
ATOM     25  C   UNL     1       5.754   4.250  13.655  0.00  0.00    +0.000 A 
ATOM     26  C   UNL     1       4.855   3.398  12.997  0.00  0.00    +0.000 A 
ATOM     27  C   UNL     1       5.255   2.679  11.865  0.00  0.00    +0.000 A 
ATOM     28  C   UNL     1       6.548   2.819  11.368  0.00  0.00    +0.000 A 
ATOM     29  C   UNL     1       7.428   3.705  11.978  0.00  0.00    +0.000 A 
ATOM     30  C   UNL     1       7.026   4.423  13.100  0.00  0.00    +0.000 A 
ENDBRANCH  24  25
ENDBRANCH  19  24
ENDBRANCH  18  19
ENDBRANCH  14  18
ENDBRANCH   1  14
BRANCH   1  31
ATOM     31  C   UNL     1       1.771   5.210  17.756  0.00  0.00    +0.000 C 
BRANCH  31  32
ATOM     32  C   UNL     1       1.653   4.194  18.909  0.00  0.00    +0.000 A 
ATOM     33  C   UNL     1       1.547   4.572  20.254  0.00  0.00    +0.000 A 
ATOM     34  C   UNL     1       1.550   3.634  21.293  0.00  0.00    +0.000 A 
ATOM     35  C   UNL     1       1.603   2.277  21.009  0.00  0.00    +0.000 A 
ATOM     36  C   UNL     1       1.646   1.861  19.682  0.00  0.00    +0.000 A 
ATOM     37  C   UNL     1       1.674   2.808  18.641  0.00  0.00    +0.000 A 
ENDBRANCH  31  32
ENDBRANCH   1  31
TORSDOF 14
ENDMDL
MODEL 8
REMARK VINA RESULT:      -7.5      5.939     10.615
REMARK  Name = 
REMARK  14 active torsions:
REMARK  status: ('A' for Active; 'I' for Inactive)
REMARK    1  A    between atoms: C_2  and  O_27
REMARK    2  A    between atoms: N_3  and  C_4
REMARK    3  A    between atoms: C_4  and  C_5
REMARK    4  A    between atoms: C_4  and  P_12
REMARK    5  A    between atoms: C_5  and  C_6
REMARK    6  A    between atoms: P_12  and  O_14
REMARK    7  A    between atoms: P_12  and  C_15
REMARK    8  A    between atoms: C_15  and  C_16
REMARK    9  A    between atoms: C_16  and  C_17
REMARK   10  A    between atoms: C_16  and  C_24
REMARK   11  A    between atoms: C_17  and  C_18
REMARK   12  A    between atoms: C_24  and  O_26
REMARK   13  A    between atoms: O_27  and  C_28
REMARK   14  A    between atoms: C_28  and  C_29
REMARK                            x       y       z     vdW  Elec       q    Type
REMARK                         _______ _______ _______ _____ _____    ______ ____
ROOT
ATOM      1  C   UNL     1       0.519  11.744  19.100  0.00  0.00    +0.000 C 
ENDROOT
BRANCH   1   4
ATOM      2  O   UNL     1       2.627  10.556  17.465  0.00  0.00    +0.000 OA
ATOM      3  C   UNL     1       1.756   9.871  17.979  0.00  0.00    +0.000 C 
ATOM      4  N   UNL     1       0.741  10.334  18.763  0.00  0.00    +0.000 N 
ATOM      5  H   UNL     1       0.067   9.632  19.032  0.00  0.00    +0.000 HD
BRANCH   3   6
ATOM      6  O   UNL     1       1.590   8.539  17.827  0.00  0.00    +0.000 OA
BRANCH   6   7
ATOM      7  C   UNL     1       2.752   7.717  17.996  0.00  0.00    +0.000 C 
BRANCH   7   8
ATOM      8  C   UNL     1       2.353   6.427  18.667  0.00  0.00    +0.000 A 
ATOM      9  C   UNL     1       2.171   5.249  17.928  0.00  0.00    +0.000 A 
ATOM     10  C   UNL     1       1.798   4.061  18.566  0.00  0.00    +0.000 A 
ATOM     11  C   UNL     1       1.598   4.044  19.944  0.00  0.00    +0.000 A 
ATOM     12  C   UNL     1       1.763   5.211  20.687  0.00  0.00    +0.000 A 
ATOM     13  C   UNL     1       2.134   6.398  20.052  0.00  0.00    +0.000 A 
ENDBRANCH   7   8
ENDBRANCH   6   7
ENDBRANCH   3   6
ENDBRANCH   1   4
BRANCH   1  14
ATOM     14  P   UNL     1      -1.226  12.153  18.624  0.00  0.00    +0.000 P 
ATOM     15  O   UNL     1      -1.917  13.195  19.452  0.00  0.00    +0.000 OA
BRANCH  14  16
ATOM     16  O   UNL     1      -1.091  12.684  17.109  0.00  0.00    +0.000 OA
ATOM     17  H   UNL     1      -0.374  12.203  16.623  0.00  0.00    +0.000 HD
ENDBRANCH  14  16
BRANCH  14  18
ATOM     18  C   UNL     1      -2.215  10.650  18.464  0.00  0.00    +0.000 C 
BRANCH  18  19
ATOM     19  C   UNL     1      -3.483  10.632  17.537  0.00  0.00    +0.000 C 
BRANCH  19  20
ATOM     20  C   UNL     1      -3.032  10.470  16.085  0.00  0.00    +0.000 C 
ATOM     21  O   UNL     1      -2.675   9.405  15.592  0.00  0.00    +0.000 OA
BRANCH  20  22
ATOM     22  O   UNL     1      -3.103  11.587  15.323  0.00  0.00    +0.000 OA
ATOM     23  H   UNL     1      -2.448  12.285  15.506  0.00  0.00    +0.000 HD
ENDBRANCH  20  22
ENDBRANCH  19  20
BRANCH  19  24
ATOM     24  C   UNL     1      -4.450  11.827  17.692  0.00  0.00    +0.000 C 
BRANCH  24  25
ATOM     25  C   UNL     1      -5.406  11.759  18.860  0.00  0.00    +0.000 A 
ATOM     26  C   UNL     1      -5.210  12.504  20.032  0.00  0.00    +0.000 A 
ATOM     27  C   UNL     1      -6.062  12.340  21.130  0.00  0.00    +0.000 A 
ATOM     28  C   UNL     1      -7.129  11.448  21.061  0.00  0.00    +0.000 A 
ATOM     29  C   UNL     1      -7.366  10.748  19.883  0.00  0.00    +0.000 A 
ATOM     30  C   UNL     1      -6.519  10.917  18.791  0.00  0.00    +0.000 A 
ENDBRANCH  24  25
ENDBRANCH  19  24
ENDBRANCH  18  19
ENDBRANCH  14  18
ENDBRANCH   1  14
BRANCH   1  31
ATOM     31  C   UNL     1       0.990  12.105  20.556  0.00  0.00    +0.000 C 
BRANCH  31  32
ATOM     32  C   UNL     1      -0.072  12.306  21.654  0.00  0.00    +0.000 A 
ATOM     33  C   UNL     1      -0.864  11.263  22.153  0.00  0.00    +0.000 A 
ATOM     34  C   UNL     1      -1.897  11.486  23.071  0.00  0.00    +0.000 A 
ATOM     35  C   UNL     1      -2.133  12.763  23.560  0.00  0.00    +0.000 A 
ATOM     36  C   UNL     1      -1.327  13.814  23.134  0.00  0.00    +0.000 A 
ATOM     37  C   UNL     1      -0.309  13.591  22.188  0.00  0.00    +0.000 A 
ENDBRANCH  31  32
ENDBRANCH   1  31
TORSDOF 14
ENDMDL
MODEL 9
REMARK VINA RESULT:      -7.5      4.033      7.668
REMARK  Name = 
REMARK  14 active torsions:
REMARK  status: ('A' for Active; 'I' for Inactive)
REMARK    1  A    between atoms: C_2  and  O_27
REMARK    2  A    between atoms: N_3  and  C_4
REMARK    3  A    between atoms: C_4  and  C_5
REMARK    4  A    between atoms: C_4  and  P_12
REMARK    5  A    between atoms: C_5  and  C_6
REMARK    6  A    between atoms: P_12  and  O_14
REMARK    7  A    between atoms: P_12  and  C_15
REMARK    8  A    between atoms: C_15  and  C_16
REMARK    9  A    between atoms: C_16  and  C_17
REMARK   10  A    between atoms: C_16  and  C_24
REMARK   11  A    between atoms: C_17  and  C_18
REMARK   12  A    between atoms: C_24  and  O_26
REMARK   13  A    between atoms: O_27  and  C_28
REMARK   14  A    between atoms: C_28  and  C_29
REMARK                            x       y       z     vdW  Elec       q    Type
REMARK                         _______ _______ _______ _____ _____    ______ ____
ROOT
ATOM      1  C   UNL     1       4.804   4.524  17.244  0.00  0.00    +0.000 C 
ENDROOT
BRANCH   1   4
ATOM      2  O   UNL     1       7.715   4.724  17.125  0.00  0.00    +0.000 OA
ATOM      3  C   UNL     1       7.053   4.461  16.133  0.00  0.00    +0.000 C 
ATOM      4  N   UNL     1       5.696   4.338  16.094  0.00  0.00    +0.000 N 
ATOM      5  H   UNL     1       5.315   4.198  15.169  0.00  0.00    +0.000 HD
BRANCH   3   6
ATOM      6  O   UNL     1       7.522   4.299  14.877  0.00  0.00    +0.000 OA
BRANCH   6   7
ATOM      7  C   UNL     1       6.767   4.904  13.819  0.00  0.00    +0.000 C 
BRANCH   7   8
ATOM      8  C   UNL     1       6.392   3.848  12.811  0.00  0.00    +0.000 A 
ATOM      9  C   UNL     1       7.373   3.110  12.132  0.00  0.00    +0.000 A 
ATOM     10  C   UNL     1       7.008   2.135  11.198  0.00  0.00    +0.000 A 
ATOM     11  C   UNL     1       5.661   1.896  10.930  0.00  0.00    +0.000 A 
ATOM     12  C   UNL     1       4.679   2.633  11.589  0.00  0.00    +0.000 A 
ATOM     13  C   UNL     1       5.042   3.607  12.521  0.00  0.00    +0.000 A 
ENDBRANCH   7   8
ENDBRANCH   6   7
ENDBRANCH   3   6
ENDBRANCH   1   4
BRANCH   1  14
ATOM     14  P   UNL     1       4.501   6.345  17.413  0.00  0.00    +0.000 P 
ATOM     15  O   UNL     1       5.432   7.097  18.316  0.00  0.00    +0.000 OA
BRANCH  14  16
ATOM     16  O   UNL     1       4.662   6.898  15.909  0.00  0.00    +0.000 OA
ATOM     17  H   UNL     1       5.526   6.618  15.513  0.00  0.00    +0.000 HD
ENDBRANCH  14  16
BRANCH  14  18
ATOM     18  C   UNL     1       2.768   6.672  17.805  0.00  0.00    +0.000 C 
BRANCH  18  19
ATOM     19  C   UNL     1       2.364   7.976  18.583  0.00  0.00    +0.000 C 
BRANCH  19  20
ATOM     20  C   UNL     1       2.030   7.607  20.029  0.00  0.00    +0.000 C 
ATOM     21  O   UNL     1       1.465   8.360  20.815  0.00  0.00    +0.000 OA
BRANCH  20  22
ATOM     22  O   UNL     1       2.347   6.343  20.397  0.00  0.00    +0.000 OA
ATOM     23  H   UNL     1       1.688   5.652  20.202  0.00  0.00    +0.000 HD
ENDBRANCH  20  22
ENDBRANCH  19  20
BRANCH  19  24
ATOM     24  C   UNL     1       1.237   8.819  17.946  0.00  0.00    +0.000 C 
BRANCH  24  25
ATOM     25  C   UNL     1       1.234  10.290  18.290  0.00  0.00    +0.000 A 
ATOM     26  C   UNL     1       0.125  10.921  18.873  0.00  0.00    +0.000 A 
ATOM     27  C   UNL     1       0.125  12.304  19.087  0.00  0.00    +0.000 A 
ATOM     28  C   UNL     1       1.237  13.066  18.740  0.00  0.00    +0.000 A 
ATOM     29  C   UNL     1       2.363  12.442  18.216  0.00  0.00    +0.000 A 
ATOM     30  C   UNL     1       2.363  11.066  18.009  0.00  0.00    +0.000 A 
ENDBRANCH  24  25
ENDBRANCH  19  24
ENDBRANCH  18  19
ENDBRANCH  14  18
ENDBRANCH   1  14
BRANCH   1  31
ATOM     31  C   UNL     1       3.556   3.568  17.210  0.00  0.00    +0.000 C 
BRANCH  31  32
ATOM     32  C   UNL     1       2.806   3.277  18.524  0.00  0.00    +0.000 A 
ATOM     33  C   UNL     1       1.408   3.299  18.628  0.00  0.00    +0.000 A 
ATOM     34  C   UNL     1       0.751   3.139  19.853  0.00  0.00    +0.000 A 
ATOM     35  C   UNL     1       1.478   2.897  21.010  0.00  0.00    +0.000 A 
ATOM     36  C   UNL     1       2.864   2.807  20.935  0.00  0.00    +0.000 A 
ATOM     37  C   UNL     1       3.524   2.999  19.707  0.00  0.00    +0.000 A 
ENDBRANCH  31  32
ENDBRANCH   1  31
TORSDOF 14
ENDMDL
