MODEL 1
REMARK VINA RESULT:      -6.9      0.000      0.000
REMARK  Name = 
REMARK  7 active torsions:
REMARK  status: ('A' for Active; 'I' for Inactive)
REMARK    1  A    between atoms: C_1  and  C_2
REMARK    2  A    between atoms: C_2  and  C_3
REMARK    3  A    between atoms: C_3  and  O_4
REMARK    4  A    between atoms: O_4  and  C_5
REMARK    5  A    between atoms: C_5  and  C_7
REMARK    6  A    between atoms: C_12  and  C_13
REMARK    7  A    between atoms: C_16  and  O_17
REMARK                            x       y       z     vdW  Elec       q    Type
REMARK                         _______ _______ _______ _____ _____    ______ ____
ROOT
ATOM      1  C   UNL     1       5.731   5.861  17.426  0.00  0.00    +0.000 A 
ATOM      2  C   UNL     1       4.604   6.829  17.269  0.00  0.00    +0.000 A 
ATOM      3  N   UNL     1       3.434   6.764  17.833  0.00  0.00    +0.000 NA
ATOM      4  C   UNL     1       3.232   5.699  18.664  0.00  0.00    +0.000 A 
ATOM      5  C   UNL     1       2.147   5.290  19.398  0.00  0.00    +0.000 A 
ATOM      6  C   UNL     1       2.560   4.117  20.065  0.00  0.00    +0.000 A 
ATOM      7  C   UNL     1       1.766   3.267  20.988  0.00  0.00    +0.000 C 
ATOM      8  N   UNL     1       3.829   3.799  19.779  0.00  0.00    +0.000 NA
ATOM      9  N   UNL     1       4.231   4.762  18.904  0.00  0.00    +0.000 N 
ATOM     10  C   UNL     1       5.486   4.850  18.287  0.00  0.00    +0.000 A 
ENDROOT
BRANCH   1  11
ATOM     11  C   UNL     1       7.035   6.023  16.748  0.00  0.00    +0.000 C 
ATOM     12  O   UNL     1       7.689   7.055  16.705  0.00  0.00    +0.000 OA
BRANCH  11  13
ATOM     13  O   UNL     1       7.370   4.864  16.117  0.00  0.00    +0.000 OA
BRANCH  13  14
ATOM     14  C   UNL     1       7.121   4.843  14.700  0.00  0.00    +0.000 C 
BRANCH  14  16
ATOM     15  C   UNL     1       6.033   3.604  12.821  0.00  0.00    +0.000 C 
ATOM     16  C   UNL     1       6.020   3.860  14.323  0.00  0.00    +0.000 C 
ENDBRANCH  14  16
ENDBRANCH  13  14
ENDBRANCH  11  13
ENDBRANCH   1  11
BRANCH  10  17
ATOM     17  O   UNL     1       6.428   3.886  18.614  0.00  0.00    +0.000 OA
ATOM     18  H   UNL     1       6.181   3.557  19.506  0.00  0.00    +0.000 HD
ENDBRANCH  10  17
TORSDOF 5
ENDMDL
MODEL 2
REMARK VINA RESULT:      -6.8      1.813      3.007
REMARK  Name = 
REMARK  7 active torsions:
REMARK  status: ('A' for Active; 'I' for Inactive)
REMARK    1  A    between atoms: C_1  and  C_2
REMARK    2  A    between atoms: C_2  and  C_3
REMARK    3  A    between atoms: C_3  and  O_4
REMARK    4  A    between atoms: O_4  and  C_5
REMARK    5  A    between atoms: C_5  and  C_7
REMARK    6  A    between atoms: C_12  and  C_13
REMARK    7  A    between atoms: C_16  and  O_17
REMARK                            x       y       z     vdW  Elec       q    Type
REMARK                         _______ _______ _______ _____ _____    ______ ____
ROOT
ATOM      1  C   UNL     1       5.958   4.484  17.422  0.00  0.00    +0.000 A 
ATOM      2  C   UNL     1       5.011   4.204  16.301  0.00  0.00    +0.000 A 
ATOM      3  N   UNL     1       3.740   3.950  16.396  0.00  0.00    +0.000 NA
ATOM      4  C   UNL     1       3.225   3.956  17.662  0.00  0.00    +0.000 A 
ATOM      5  C   UNL     1       1.966   3.714  18.151  0.00  0.00    +0.000 A 
ATOM      6  C   UNL     1       2.062   3.884  19.548  0.00  0.00    +0.000 A 
ATOM      7  C   UNL     1       0.984   3.735  20.559  0.00  0.00    +0.000 C 
ATOM      8  N   UNL     1       3.302   4.217  19.928  0.00  0.00    +0.000 NA
ATOM      9  N   UNL     1       4.016   4.241  18.769  0.00  0.00    +0.000 N 
ATOM     10  C   UNL     1       5.386   4.513  18.644  0.00  0.00    +0.000 A 
ENDROOT
BRANCH   1  11
ATOM     11  C   UNL     1       7.393   4.773  17.215  0.00  0.00    +0.000 C 
ATOM     12  O   UNL     1       8.320   4.121  17.671  0.00  0.00    +0.000 OA
BRANCH  11  13
ATOM     13  O   UNL     1       7.530   5.919  16.493  0.00  0.00    +0.000 OA
BRANCH  13  14
ATOM     14  C   UNL     1       7.094   7.119  17.158  0.00  0.00    +0.000 C 
BRANCH  14  16
ATOM     15  C   UNL     1       8.308   9.115  18.046  0.00  0.00    +0.000 C 
ATOM     16  C   UNL     1       8.109   7.611  18.181  0.00  0.00    +0.000 C 
ENDBRANCH  14  16
ENDBRANCH  13  14
ENDBRANCH  11  13
ENDBRANCH   1  11
BRANCH  10  17
ATOM     17  O   UNL     1       6.084   4.817  19.804  0.00  0.00    +0.000 OA
ATOM     18  H   UNL     1       6.055   5.795  19.889  0.00  0.00    +0.000 HD
ENDBRANCH  10  17
TORSDOF 5
ENDMDL
MODEL 3
REMARK VINA RESULT:      -6.7      1.444      1.816
REMARK  Name = 
REMARK  7 active torsions:
REMARK  status: ('A' for Active; 'I' for Inactive)
REMARK    1  A    between atoms: C_1  and  C_2
REMARK    2  A    between atoms: C_2  and  C_3
REMARK    3  A    between atoms: C_3  and  O_4
REMARK    4  A    between atoms: O_4  and  C_5
REMARK    5  A    between atoms: C_5  and  C_7
REMARK    6  A    between atoms: C_12  and  C_13
REMARK    7  A    between atoms: C_16  and  O_17
REMARK                            x       y       z     vdW  Elec       q    Type
REMARK                         _______ _______ _______ _____ _____    ______ ____
ROOT
ATOM      1  C   UNL     1       5.359   5.266  16.034  0.00  0.00    +0.000 A 
ATOM      2  C   UNL     1       5.002   6.690  16.309  0.00  0.00    +0.000 A 
ATOM      3  N   UNL     1       4.160   7.127  17.197  0.00  0.00    +0.000 NA
ATOM      4  C   UNL     1       3.553   6.172  17.964  0.00  0.00    +0.000 A 
ATOM      5  C   UNL     1       2.613   6.244  18.960  0.00  0.00    +0.000 A 
ATOM      6  C   UNL     1       2.394   4.912  19.373  0.00  0.00    +0.000 A 
ATOM      7  C   UNL     1       1.466   4.427  20.426  0.00  0.00    +0.000 C 
ATOM      8  N   UNL     1       3.150   4.045  18.687  0.00  0.00    +0.000 NA
ATOM      9  N   UNL     1       3.845   4.821  17.810  0.00  0.00    +0.000 N 
ATOM     10  C   UNL     1       4.757   4.371  16.846  0.00  0.00    +0.000 A 
ENDROOT
BRANCH   1  11
ATOM     11  C   UNL     1       6.340   4.863  15.004  0.00  0.00    +0.000 C 
ATOM     12  O   UNL     1       7.489   5.269  14.922  0.00  0.00    +0.000 OA
BRANCH  11  13
ATOM     13  O   UNL     1       5.748   4.018  14.114  0.00  0.00    +0.000 OA
BRANCH  13  14
ATOM     14  C   UNL     1       6.464   3.826  12.881  0.00  0.00    +0.000 C 
BRANCH  14  16
ATOM     15  C   UNL     1       4.386   3.336  11.581  0.00  0.00    +0.000 C 
ATOM     16  C   UNL     1       5.771   2.829  11.962  0.00  0.00    +0.000 C 
ENDBRANCH  14  16
ENDBRANCH  13  14
ENDBRANCH  11  13
ENDBRANCH   1  11
BRANCH  10  17
ATOM     17  O   UNL     1       5.005   3.007  16.791  0.00  0.00    +0.000 OA
ATOM     18  H   UNL     1       4.208   2.571  17.164  0.00  0.00    +0.000 HD
ENDBRANCH  10  17
TORSDOF 5
ENDMDL
MODEL 4
REMARK VINA RESULT:      -6.7      1.658      3.146
REMARK  Name = 
REMARK  7 active torsions:
REMARK  status: ('A' for Active; 'I' for Inactive)
REMARK    1  A    between atoms: C_1  and  C_2
REMARK    2  A    between atoms: C_2  and  C_3
REMARK    3  A    between atoms: C_3  and  O_4
REMARK    4  A    between atoms: O_4  and  C_5
REMARK    5  A    between atoms: C_5  and  C_7
REMARK    6  A    between atoms: C_12  and  C_13
REMARK    7  A    between atoms: C_16  and  O_17
REMARK                            x       y       z     vdW  Elec       q    Type
REMARK                         _______ _______ _______ _____ _____    ______ ____
ROOT
ATOM      1  C   UNL     1       5.400   5.910  17.613  0.00  0.00    +0.000 A 
ATOM      2  C   UNL     1       4.199   6.794  17.521  0.00  0.00    +0.000 A 
ATOM      3  N   UNL     1       3.054   6.622  18.113  0.00  0.00    +0.000 NA
ATOM      4  C   UNL     1       2.957   5.517  18.911  0.00  0.00    +0.000 A 
ATOM      5  C   UNL     1       1.927   5.002  19.657  0.00  0.00    +0.000 A 
ATOM      6  C   UNL     1       2.446   3.842  20.271  0.00  0.00    +0.000 A 
ATOM      7  C   UNL     1       1.745   2.904  21.184  0.00  0.00    +0.000 C 
ATOM      8  N   UNL     1       3.727   3.631  19.940  0.00  0.00    +0.000 NA
ATOM      9  N   UNL     1       4.030   4.651  19.090  0.00  0.00    +0.000 N 
ATOM     10  C   UNL     1       5.256   4.855  18.443  0.00  0.00    +0.000 A 
ENDROOT
BRANCH   1  11
ATOM     11  C   UNL     1       6.668   6.194  16.908  0.00  0.00    +0.000 C 
ATOM     12  O   UNL     1       7.402   5.356  16.406  0.00  0.00    +0.000 OA
BRANCH  11  13
ATOM     13  O   UNL     1       6.932   7.529  16.960  0.00  0.00    +0.000 OA
BRANCH  13  14
ATOM     14  C   UNL     1       7.968   7.913  17.882  0.00  0.00    +0.000 C 
BRANCH  14  16
ATOM     15  C   UNL     1       9.079   9.814  19.066  0.00  0.00    +0.000 C 
ATOM     16  C   UNL     1       8.216   9.416  17.875  0.00  0.00    +0.000 C 
ENDBRANCH  14  16
ENDBRANCH  13  14
ENDBRANCH  11  13
ENDBRANCH   1  11
BRANCH  10  17
ATOM     17  O   UNL     1       6.276   3.954  18.711  0.00  0.00    +0.000 OA
ATOM     18  H   UNL     1       6.342   3.375  17.921  0.00  0.00    +0.000 HD
ENDBRANCH  10  17
TORSDOF 5
ENDMDL
MODEL 5
REMARK VINA RESULT:      -6.5      1.809      2.691
REMARK  Name = 
REMARK  7 active torsions:
REMARK  status: ('A' for Active; 'I' for Inactive)
REMARK    1  A    between atoms: C_1  and  C_2
REMARK    2  A    between atoms: C_2  and  C_3
REMARK    3  A    between atoms: C_3  and  O_4
REMARK    4  A    between atoms: O_4  and  C_5
REMARK    5  A    between atoms: C_5  and  C_7
REMARK    6  A    between atoms: C_12  and  C_13
REMARK    7  A    between atoms: C_16  and  O_17
REMARK                            x       y       z     vdW  Elec       q    Type
REMARK                         _______ _______ _______ _____ _____    ______ ____
ROOT
ATOM      1  C   UNL     1       4.312   5.729  17.312  0.00  0.00    +0.000 A 
ATOM      2  C   UNL     1       3.504   6.838  17.902  0.00  0.00    +0.000 A 
ATOM      3  N   UNL     1       2.683   6.758  18.907  0.00  0.00    +0.000 NA
ATOM      4  C   UNL     1       2.568   5.525  19.485  0.00  0.00    +0.000 A 
ATOM      5  C   UNL     1       1.802   5.056  20.523  0.00  0.00    +0.000 A 
ATOM      6  C   UNL     1       2.135   3.691  20.655  0.00  0.00    +0.000 A 
ATOM      7  C   UNL     1       1.590   2.712  21.629  0.00  0.00    +0.000 C 
ATOM      8  N   UNL     1       3.057   3.312  19.760  0.00  0.00    +0.000 NA
ATOM      9  N   UNL     1       3.305   4.436  19.032  0.00  0.00    +0.000 N 
ATOM     10  C   UNL     1       4.185   4.544  17.946  0.00  0.00    +0.000 A 
ENDROOT
BRANCH   1  11
ATOM     11  C   UNL     1       5.230   5.918  16.169  0.00  0.00    +0.000 C 
ATOM     12  O   UNL     1       5.220   5.264  15.136  0.00  0.00    +0.000 OA
BRANCH  11  13
ATOM     13  O   UNL     1       6.137   6.890  16.466  0.00  0.00    +0.000 OA
BRANCH  13  14
ATOM     14  C   UNL     1       7.420   6.415  16.911  0.00  0.00    +0.000 C 
BRANCH  14  16
ATOM     15  C   UNL     1       7.824   5.740  19.284  0.00  0.00    +0.000 C 
ATOM     16  C   UNL     1       7.763   6.910  18.311  0.00  0.00    +0.000 C 
ENDBRANCH  14  16
ENDBRANCH  13  14
ENDBRANCH  11  13
ENDBRANCH   1  11
BRANCH  10  17
ATOM     17  O   UNL     1       4.899   3.410  17.590  0.00  0.00    +0.000 OA
ATOM     18  H   UNL     1       4.583   3.160  16.694  0.00  0.00    +0.000 HD
ENDBRANCH  10  17
TORSDOF 5
ENDMDL
MODEL 6
REMARK VINA RESULT:      -6.5      1.921      2.880
REMARK  Name = 
REMARK  7 active torsions:
REMARK  status: ('A' for Active; 'I' for Inactive)
REMARK    1  A    between atoms: C_1  and  C_2
REMARK    2  A    between atoms: C_2  and  C_3
REMARK    3  A    between atoms: C_3  and  O_4
REMARK    4  A    between atoms: O_4  and  C_5
REMARK    5  A    between atoms: C_5  and  C_7
REMARK    6  A    between atoms: C_12  and  C_13
REMARK    7  A    between atoms: C_16  and  O_17
REMARK                            x       y       z     vdW  Elec       q    Type
REMARK                         _______ _______ _______ _____ _____    ______ ____
ROOT
ATOM      1  C   UNL     1       5.513   4.782  15.959  0.00  0.00    +0.000 A 
ATOM      2  C   UNL     1       4.694   3.673  16.533  0.00  0.00    +0.000 A 
ATOM      3  N   UNL     1       3.723   3.781  17.390  0.00  0.00    +0.000 NA
ATOM      4  C   UNL     1       3.421   5.051  17.790  0.00  0.00    +0.000 A 
ATOM      5  C   UNL     1       2.500   5.548  18.678  0.00  0.00    +0.000 A 
ATOM      6  C   UNL     1       2.665   6.950  18.652  0.00  0.00    +0.000 A 
ATOM      7  C   UNL     1       1.919   7.968  19.433  0.00  0.00    +0.000 C 
ATOM      8  N   UNL     1       3.627   7.325  17.799  0.00  0.00    +0.000 NA
ATOM      9  N   UNL     1       4.101   6.155  17.287  0.00  0.00    +0.000 N 
ATOM     10  C   UNL     1       5.146   6.017  16.363  0.00  0.00    +0.000 A 
ENDROOT
BRANCH   1  11
ATOM     11  C   UNL     1       6.598   4.563  14.978  0.00  0.00    +0.000 C 
ATOM     12  O   UNL     1       7.610   5.239  14.876  0.00  0.00    +0.000 OA
BRANCH  11  13
ATOM     13  O   UNL     1       6.267   3.529  14.154  0.00  0.00    +0.000 OA
BRANCH  13  14
ATOM     14  C   UNL     1       6.378   3.807  12.747  0.00  0.00    +0.000 C 
BRANCH  14  16
ATOM     15  C   UNL     1       4.328   3.230  11.437  0.00  0.00    +0.000 C 
ATOM     16  C   UNL     1       5.698   2.744  11.894  0.00  0.00    +0.000 C 
ENDBRANCH  14  16
ENDBRANCH  13  14
ENDBRANCH  11  13
ENDBRANCH   1  11
BRANCH  10  17
ATOM     17  O   UNL     1       5.741   7.179  15.895  0.00  0.00    +0.000 OA
ATOM     18  H   UNL     1       6.581   7.274  16.396  0.00  0.00    +0.000 HD
ENDBRANCH  10  17
TORSDOF 5
ENDMDL
MODEL 7
REMARK VINA RESULT:      -6.4      1.138      1.213
REMARK  Name = 
REMARK  7 active torsions:
REMARK  status: ('A' for Active; 'I' for Inactive)
REMARK    1  A    between atoms: C_1  and  C_2
REMARK    2  A    between atoms: C_2  and  C_3
REMARK    3  A    between atoms: C_3  and  O_4
REMARK    4  A    between atoms: O_4  and  C_5
REMARK    5  A    between atoms: C_5  and  C_7
REMARK    6  A    between atoms: C_12  and  C_13
REMARK    7  A    between atoms: C_16  and  O_17
REMARK                            x       y       z     vdW  Elec       q    Type
REMARK                         _______ _______ _______ _____ _____    ______ ____
ROOT
ATOM      1  C   UNL     1       4.620   5.615  17.227  0.00  0.00    +0.000 A 
ATOM      2  C   UNL     1       3.773   6.754  17.693  0.00  0.00    +0.000 A 
ATOM      3  N   UNL     1       2.905   6.738  18.661  0.00  0.00    +0.000 NA
ATOM      4  C   UNL     1       2.773   5.550  19.323  0.00  0.00    +0.000 A 
ATOM      5  C   UNL     1       1.962   5.149  20.355  0.00  0.00    +0.000 A 
ATOM      6  C   UNL     1       2.301   3.802  20.603  0.00  0.00    +0.000 A 
ATOM      7  C   UNL     1       1.717   2.890  21.619  0.00  0.00    +0.000 C 
ATOM      8  N   UNL     1       3.268   3.370  19.785  0.00  0.00    +0.000 NA
ATOM      9  N   UNL     1       3.541   4.440  18.988  0.00  0.00    +0.000 N 
ATOM     10  C   UNL     1       4.472   4.479  17.941  0.00  0.00    +0.000 A 
ENDROOT
BRANCH   1  11
ATOM     11  C   UNL     1       5.590   5.731  16.118  0.00  0.00    +0.000 C 
ATOM     12  O   UNL     1       6.493   6.552  16.048  0.00  0.00    +0.000 OA
BRANCH  11  13
ATOM     13  O   UNL     1       5.286   4.826  15.147  0.00  0.00    +0.000 OA
BRANCH  13  14
ATOM     14  C   UNL     1       6.417   4.228  14.489  0.00  0.00    +0.000 C 
BRANCH  14  16
ATOM     15  C   UNL     1       7.061   4.104  12.077  0.00  0.00    +0.000 C 
ATOM     16  C   UNL     1       6.053   3.653  13.126  0.00  0.00    +0.000 C 
ENDBRANCH  14  16
ENDBRANCH  13  14
ENDBRANCH  11  13
ENDBRANCH   1  11
BRANCH  10  17
ATOM     17  O   UNL     1       5.214   3.331  17.704  0.00  0.00    +0.000 OA
ATOM     18  H   UNL     1       6.157   3.600  17.757  0.00  0.00    +0.000 HD
ENDBRANCH  10  17
TORSDOF 5
ENDMDL
MODEL 8
REMARK VINA RESULT:      -6.4      2.690      5.505
REMARK  Name = 
REMARK  7 active torsions:
REMARK  status: ('A' for Active; 'I' for Inactive)
REMARK    1  A    between atoms: C_1  and  C_2
REMARK    2  A    between atoms: C_2  and  C_3
REMARK    3  A    between atoms: C_3  and  O_4
REMARK    4  A    between atoms: O_4  and  C_5
REMARK    5  A    between atoms: C_5  and  C_7
REMARK    6  A    between atoms: C_12  and  C_13
REMARK    7  A    between atoms: C_16  and  O_17
REMARK                            x       y       z     vdW  Elec       q    Type
REMARK                         _______ _______ _______ _____ _____    ______ ____
ROOT
ATOM      1  C   UNL     1       4.132   3.359  17.658  0.00  0.00    +0.000 A 
ATOM      2  C   UNL     1       4.225   3.935  16.283  0.00  0.00    +0.000 A 
ATOM      3  N   UNL     1       5.003   4.899  15.890  0.00  0.00    +0.000 NA
ATOM      4  C   UNL     1       5.829   5.424  16.844  0.00  0.00    +0.000 A 
ATOM      5  C   UNL     1       6.748   6.443  16.815  0.00  0.00    +0.000 A 
ATOM      6  C   UNL     1       7.289   6.504  18.117  0.00  0.00    +0.000 A 
ATOM      7  C   UNL     1       8.325   7.436  18.628  0.00  0.00    +0.000 C 
ATOM      8  N   UNL     1       6.753   5.581  18.925  0.00  0.00    +0.000 NA
ATOM      9  N   UNL     1       5.843   4.934  18.145  0.00  0.00    +0.000 N 
ATOM     10  C   UNL     1       4.996   3.893  18.548  0.00  0.00    +0.000 A 
ENDROOT
BRANCH   1  11
ATOM     11  C   UNL     1       3.218   2.252  18.011  0.00  0.00    +0.000 C 
ATOM     12  O   UNL     1       3.559   1.168  18.461  0.00  0.00    +0.000 OA
BRANCH  11  13
ATOM     13  O   UNL     1       1.939   2.595  17.693  0.00  0.00    +0.000 OA
BRANCH  13  14
ATOM     14  C   UNL     1       0.981   2.444  18.756  0.00  0.00    +0.000 C 
BRANCH  14  16
ATOM     15  C   UNL     1       1.310   2.846  21.201  0.00  0.00    +0.000 C 
ATOM     16  C   UNL     1       1.149   3.504  19.837  0.00  0.00    +0.000 C 
ENDBRANCH  14  16
ENDBRANCH  13  14
ENDBRANCH  11  13
ENDBRANCH   1  11
BRANCH  10  17
ATOM     17  O   UNL     1       5.107   3.451  19.858  0.00  0.00    +0.000 OA
ATOM     18  H   UNL     1       4.244   3.038  20.080  0.00  0.00    +0.000 HD
ENDBRANCH  10  17
TORSDOF 5
ENDMDL
MODEL 9
REMARK VINA RESULT:      -6.4      1.610      1.670
REMARK  Name = 
REMARK  7 active torsions:
REMARK  status: ('A' for Active; 'I' for Inactive)
REMARK    1  A    between atoms: C_1  and  C_2
REMARK    2  A    between atoms: C_2  and  C_3
REMARK    3  A    between atoms: C_3  and  O_4
REMARK    4  A    between atoms: O_4  and  C_5
REMARK    5  A    between atoms: C_5  and  C_7
REMARK    6  A    between atoms: C_12  and  C_13
REMARK    7  A    between atoms: C_16  and  O_17
REMARK                            x       y       z     vdW  Elec       q    Type
REMARK                         _______ _______ _______ _____ _____    ______ ____
ROOT
ATOM      1  C   UNL     1       5.483   4.286  17.203  0.00  0.00    +0.000 A 
ATOM      2  C   UNL     1       4.241   4.015  16.420  0.00  0.00    +0.000 A 
ATOM      3  N   UNL     1       3.080   3.669  16.891  0.00  0.00    +0.000 NA
ATOM      4  C   UNL     1       2.998   3.557  18.251  0.00  0.00    +0.000 A 
ATOM      5  C   UNL     1       1.974   3.198  19.091  0.00  0.00    +0.000 A 
ATOM      6  C   UNL     1       2.506   3.283  20.395  0.00  0.00    +0.000 A 
ATOM      7  C   UNL     1       1.817   2.996  21.679  0.00  0.00    +0.000 C 
ATOM      8  N   UNL     1       3.786   3.675  20.390  0.00  0.00    +0.000 NA
ATOM      9  N   UNL     1       4.090   3.823  19.070  0.00  0.00    +0.000 N 
ATOM     10  C   UNL     1       5.333   4.196  18.541  0.00  0.00    +0.000 A 
ENDROOT
BRANCH   1  11
ATOM     11  C   UNL     1       6.762   4.685  16.577  0.00  0.00    +0.000 C 
ATOM     12  O   UNL     1       7.875   4.429  17.012  0.00  0.00    +0.000 OA
BRANCH  11  13
ATOM     13  O   UNL     1       6.514   5.443  15.473  0.00  0.00    +0.000 OA
BRANCH  13  14
ATOM     14  C   UNL     1       7.073   4.941  14.245  0.00  0.00    +0.000 C 
BRANCH  14  16
ATOM     15  C   UNL     1       6.627   3.616  12.173  0.00  0.00    +0.000 C 
ATOM     16  C   UNL     1       6.203   3.861  13.615  0.00  0.00    +0.000 C 
ENDBRANCH  14  16
ENDBRANCH  13  14
ENDBRANCH  11  13
ENDBRANCH   1  11
BRANCH  10  17
ATOM     17  O   UNL     1       6.352   4.472  19.441  0.00  0.00    +0.000 OA
ATOM     18  H   UNL     1       7.191   4.279  18.969  0.00  0.00    +0.000 HD
ENDBRANCH  10  17
TORSDOF 5
ENDMDL
