MODEL 1
REMARK VINA RESULT:      -7.1      0.000      0.000
REMARK  Name = 
REMARK  7 active torsions:
REMARK  status: ('A' for Active; 'I' for Inactive)
REMARK    1  A    between atoms: C_2  and  C_10
REMARK    2  A    between atoms: N_3  and  C_4
REMARK    3  A    between atoms: C_4  and  C_5
REMARK    4  A    between atoms: C_13  and  C_14
REMARK    5  A    between atoms: C_14  and  S_15
REMARK    6  A    between atoms: S_15  and  C_17
REMARK    7  A    between atoms: C_17  and  C_18
REMARK                            x       y       z     vdW  Elec       q    Type
REMARK                         _______ _______ _______ _____ _____    ______ ____
ROOT
ATOM      1  C   UNL     1       1.957   8.137  19.279  0.00  0.00    +0.000 A 
ATOM      2  C   UNL     1       2.658   8.108  18.088  0.00  0.00    +0.000 A 
ATOM      3  C   UNL     1       3.304   6.859  18.017  0.00  0.00    +0.000 A 
ATOM      4  C   UNL     1       2.946   6.169  19.157  0.00  0.00    +0.000 A 
ATOM      5  O   UNL     1       2.153   6.955  19.957  0.00  0.00    +0.000 OA
ENDROOT
BRANCH   1   7
ATOM      6  O   UNL     1       0.585   9.139  20.903  0.00  0.00    +0.000 OA
ATOM      7  C   UNL     1       1.089   9.185  19.781  0.00  0.00    +0.000 C 
ATOM      8  N   UNL     1       0.828  10.243  18.934  0.00  0.00    +0.000 N 
ATOM      9  H   UNL     1       1.159  10.202  17.978  0.00  0.00    +0.000 HD
BRANCH   8  10
ATOM     10  C   UNL     1      -0.119  11.246  19.357  0.00  0.00    +0.000 C 
BRANCH  10  11
ATOM     11  C   UNL     1      -1.453  11.022  18.728  0.00  0.00    +0.000 A 
ATOM     12  C   UNL     1      -1.821  10.045  17.821  0.00  0.00    +0.000 A 
ATOM     13  C   UNL     1      -3.165  10.197  17.376  0.00  0.00    +0.000 A 
ATOM     14  C   UNL     1      -3.783  11.281  17.959  0.00  0.00    +0.000 A 
ATOM     15  S   UNL     1      -2.748  12.099  19.046  0.00  0.00    +0.000 S 
ENDBRANCH  10  11
ENDBRANCH   8  10
ENDBRANCH   1   7
BRANCH   4  16
ATOM     16  C   UNL     1       3.202   4.761  19.570  0.00  0.00    +0.000 C 
BRANCH  16  17
ATOM     17  S   UNL     1       4.835   4.255  18.925  0.00  0.00    +0.000 S 
ATOM     18  O   UNL     1       5.307   3.002  19.752  0.00  0.00    +0.000 OA
BRANCH  17  19
ATOM     19  C   UNL     1       4.278   3.641  17.296  0.00  0.00    +0.000 C 
BRANCH  19  20
ATOM     20  C   UNL     1       5.302   3.997  16.242  0.00  0.00    +0.000 A 
ATOM     21  C   UNL     1       6.410   4.797  16.569  0.00  0.00    +0.000 A 
ATOM     22  C   UNL     1       7.287   5.239  15.575  0.00  0.00    +0.000 A 
ATOM     23  C   UNL     1       7.068   4.881  14.248  0.00  0.00    +0.000 A 
ATOM     24 CL   UNL     1       8.119   5.463  13.016  0.00  0.00    +0.000 Cl
ATOM     25  C   UNL     1       5.986   4.069  13.910  0.00  0.00    +0.000 A 
ATOM     26  C   UNL     1       5.107   3.627  14.901  0.00  0.00    +0.000 A 
ENDBRANCH  19  20
ENDBRANCH  17  19
ENDBRANCH  16  17
ENDBRANCH   4  16
TORSDOF 7
ENDMDL
MODEL 2
REMARK VINA RESULT:      -7.0      4.266      8.479
REMARK  Name = 
REMARK  7 active torsions:
REMARK  status: ('A' for Active; 'I' for Inactive)
REMARK    1  A    between atoms: C_2  and  C_10
REMARK    2  A    between atoms: N_3  and  C_4
REMARK    3  A    between atoms: C_4  and  C_5
REMARK    4  A    between atoms: C_13  and  C_14
REMARK    5  A    between atoms: C_14  and  S_15
REMARK    6  A    between atoms: S_15  and  C_17
REMARK    7  A    between atoms: C_17  and  C_18
REMARK                            x       y       z     vdW  Elec       q    Type
REMARK                         _______ _______ _______ _____ _____    ______ ____
ROOT
ATOM      1  C   UNL     1       6.075   4.851  17.237  0.00  0.00    +0.000 A 
ATOM      2  C   UNL     1       6.437   5.442  18.434  0.00  0.00    +0.000 A 
ATOM      3  C   UNL     1       5.523   5.001  19.409  0.00  0.00    +0.000 A 
ATOM      4  C   UNL     1       4.657   4.137  18.770  0.00  0.00    +0.000 A 
ATOM      5  O   UNL     1       4.960   4.067  17.432  0.00  0.00    +0.000 OA
ENDROOT
BRANCH   1   7
ATOM      6  O   UNL     1       7.675   5.724  15.755  0.00  0.00    +0.000 OA
ATOM      7  C   UNL     1       6.741   4.949  15.953  0.00  0.00    +0.000 C 
ATOM      8  N   UNL     1       6.268   4.141  14.939  0.00  0.00    +0.000 N 
ATOM      9  H   UNL     1       5.428   3.597  15.092  0.00  0.00    +0.000 HD
BRANCH   8  10
ATOM     10  C   UNL     1       6.833   4.292  13.620  0.00  0.00    +0.000 C 
BRANCH  10  11
ATOM     11  C   UNL     1       6.007   3.582  12.600  0.00  0.00    +0.000 A 
ATOM     12  C   UNL     1       4.702   3.839  12.222  0.00  0.00    +0.000 A 
ATOM     13  C   UNL     1       4.217   2.894  11.272  0.00  0.00    +0.000 A 
ATOM     14  C   UNL     1       5.166   1.950  10.951  0.00  0.00    +0.000 A 
ATOM     15  S   UNL     1       6.637   2.212  11.783  0.00  0.00    +0.000 S 
ENDBRANCH  10  11
ENDBRANCH   8  10
ENDBRANCH   1   7
BRANCH   4  16
ATOM     16  C   UNL     1       3.578   3.261  19.304  0.00  0.00    +0.000 C 
BRANCH  16  17
ATOM     17  S   UNL     1       1.985   4.142  19.150  0.00  0.00    +0.000 S 
ATOM     18  O   UNL     1       0.842   3.135  19.548  0.00  0.00    +0.000 OA
BRANCH  17  19
ATOM     19  C   UNL     1       2.200   5.289  20.557  0.00  0.00    +0.000 C 
BRANCH  19  20
ATOM     20  C   UNL     1       2.033   6.714  20.080  0.00  0.00    +0.000 A 
ATOM     21  C   UNL     1       1.359   7.656  20.877  0.00  0.00    +0.000 A 
ATOM     22  C   UNL     1       1.085   8.935  20.388  0.00  0.00    +0.000 A 
ATOM     23  C   UNL     1       1.486   9.288  19.103  0.00  0.00    +0.000 A 
ATOM     24 CL   UNL     1       1.108  10.848  18.482  0.00  0.00    +0.000 Cl
ATOM     25  C   UNL     1       2.176   8.373  18.308  0.00  0.00    +0.000 A 
ATOM     26  C   UNL     1       2.449   7.092  18.793  0.00  0.00    +0.000 A 
ENDBRANCH  19  20
ENDBRANCH  17  19
ENDBRANCH  16  17
ENDBRANCH   4  16
TORSDOF 7
ENDMDL
MODEL 3
REMARK VINA RESULT:      -6.9      2.801      3.248
REMARK  Name = 
REMARK  7 active torsions:
REMARK  status: ('A' for Active; 'I' for Inactive)
REMARK    1  A    between atoms: C_2  and  C_10
REMARK    2  A    between atoms: N_3  and  C_4
REMARK    3  A    between atoms: C_4  and  C_5
REMARK    4  A    between atoms: C_13  and  C_14
REMARK    5  A    between atoms: C_14  and  S_15
REMARK    6  A    between atoms: S_15  and  C_17
REMARK    7  A    between atoms: C_17  and  C_18
REMARK                            x       y       z     vdW  Elec       q    Type
REMARK                         _______ _______ _______ _____ _____    ______ ____
ROOT
ATOM      1  C   UNL     1       2.119   7.082  18.818  0.00  0.00    +0.000 A 
ATOM      2  C   UNL     1       2.388   6.689  20.117  0.00  0.00    +0.000 A 
ATOM      3  C   UNL     1       2.385   5.281  20.133  0.00  0.00    +0.000 A 
ATOM      4  C   UNL     1       2.141   4.876  18.837  0.00  0.00    +0.000 A 
ATOM      5  O   UNL     1       1.938   5.968  18.030  0.00  0.00    +0.000 OA
ENDROOT
BRANCH   1   7
ATOM      6  O   UNL     1       2.649   8.742  17.242  0.00  0.00    +0.000 OA
ATOM      7  C   UNL     1       2.072   8.428  18.283  0.00  0.00    +0.000 C 
ATOM      8  N   UNL     1       1.362   9.366  19.005  0.00  0.00    +0.000 N 
ATOM      9  H   UNL     1       0.994   9.114  19.913  0.00  0.00    +0.000 HD
BRANCH   8  10
ATOM     10  C   UNL     1       1.387  10.739  18.561  0.00  0.00    +0.000 C 
BRANCH  10  11
ATOM     11  C   UNL     1       1.047  11.668  19.677  0.00  0.00    +0.000 A 
ATOM     12  C   UNL     1       0.051  11.540  20.628  0.00  0.00    +0.000 A 
ATOM     13  C   UNL     1      -0.026  12.673  21.489  0.00  0.00    +0.000 A 
ATOM     14  C   UNL     1       0.916  13.627  21.172  0.00  0.00    +0.000 A 
ATOM     15  S   UNL     1       1.893  13.149  19.853  0.00  0.00    +0.000 S 
ENDBRANCH  10  11
ENDBRANCH   8  10
ENDBRANCH   1   7
BRANCH   4  16
ATOM     16  C   UNL     1       2.159   3.522  18.216  0.00  0.00    +0.000 C 
BRANCH  16  17
ATOM     17  S   UNL     1       3.866   2.876  18.281  0.00  0.00    +0.000 S 
ATOM     18  O   UNL     1       3.791   1.312  18.111  0.00  0.00    +0.000 OA
BRANCH  17  19
ATOM     19  C   UNL     1       4.450   3.559  16.690  0.00  0.00    +0.000 C 
BRANCH  19  20
ATOM     20  C   UNL     1       5.429   4.684  16.949  0.00  0.00    +0.000 A 
ATOM     21  C   UNL     1       6.662   4.424  17.571  0.00  0.00    +0.000 A 
ATOM     22  C   UNL     1       7.511   5.472  17.932  0.00  0.00    +0.000 A 
ATOM     23  C   UNL     1       7.139   6.788  17.672  0.00  0.00    +0.000 A 
ATOM     24 CL   UNL     1       8.162   8.083  18.158  0.00  0.00    +0.000 Cl
ATOM     25  C   UNL     1       5.930   7.061  17.035  0.00  0.00    +0.000 A 
ATOM     26  C   UNL     1       5.077   6.015  16.674  0.00  0.00    +0.000 A 
ENDBRANCH  19  20
ENDBRANCH  17  19
ENDBRANCH  16  17
ENDBRANCH   4  16
TORSDOF 7
ENDMDL
MODEL 4
REMARK VINA RESULT:      -6.9      2.801      3.353
REMARK  Name = 
REMARK  7 active torsions:
REMARK  status: ('A' for Active; 'I' for Inactive)
REMARK    1  A    between atoms: C_2  and  C_10
REMARK    2  A    between atoms: N_3  and  C_4
REMARK    3  A    between atoms: C_4  and  C_5
REMARK    4  A    between atoms: C_13  and  C_14
REMARK    5  A    between atoms: C_14  and  S_15
REMARK    6  A    between atoms: S_15  and  C_17
REMARK    7  A    between atoms: C_17  and  C_18
REMARK                            x       y       z     vdW  Elec       q    Type
REMARK                         _______ _______ _______ _____ _____    ______ ____
ROOT
ATOM      1  C   UNL     1       2.157   6.636  19.031  0.00  0.00    +0.000 A 
ATOM      2  C   UNL     1       2.066   6.389  20.388  0.00  0.00    +0.000 A 
ATOM      3  C   UNL     1       1.922   4.998  20.549  0.00  0.00    +0.000 A 
ATOM      4  C   UNL     1       1.959   4.453  19.282  0.00  0.00    +0.000 A 
ATOM      5  O   UNL     1       2.064   5.448  18.341  0.00  0.00    +0.000 OA
ENDROOT
BRANCH   1   7
ATOM      6  O   UNL     1       3.293   8.083  17.570  0.00  0.00    +0.000 OA
ATOM      7  C   UNL     1       2.371   7.906  18.364  0.00  0.00    +0.000 C 
ATOM      8  N   UNL     1       1.499   8.931  18.674  0.00  0.00    +0.000 N 
ATOM      9  H   UNL     1       0.822   8.796  19.414  0.00  0.00    +0.000 HD
BRANCH   8  10
ATOM     10  C   UNL     1       1.750  10.237  18.115  0.00  0.00    +0.000 C 
BRANCH  10  11
ATOM     11  C   UNL     1       1.401  11.312  19.090  0.00  0.00    +0.000 A 
ATOM     12  C   UNL     1       0.578  11.231  20.198  0.00  0.00    +0.000 A 
ATOM     13  C   UNL     1       0.416  12.489  20.846  0.00  0.00    +0.000 A 
ATOM     14  C   UNL     1       1.123  13.489  20.217  0.00  0.00    +0.000 A 
ATOM     15  S   UNL     1       1.986  12.907  18.861  0.00  0.00    +0.000 S 
ENDBRANCH  10  11
ENDBRANCH   8  10
ENDBRANCH   1   7
BRANCH   4  16
ATOM     16  C   UNL     1       1.994   3.035  18.827  0.00  0.00    +0.000 C 
BRANCH  16  17
ATOM     17  S   UNL     1       3.735   2.484  18.781  0.00  0.00    +0.000 S 
ATOM     18  O   UNL     1       3.736   0.918  18.618  0.00  0.00    +0.000 OA
BRANCH  17  19
ATOM     19  C   UNL     1       4.175   3.190  17.153  0.00  0.00    +0.000 C 
BRANCH  19  20
ATOM     20  C   UNL     1       5.017   4.431  17.349  0.00  0.00    +0.000 A 
ATOM     21  C   UNL     1       5.198   5.340  16.293  0.00  0.00    +0.000 A 
ATOM     22  C   UNL     1       6.079   6.416  16.424  0.00  0.00    +0.000 A 
ATOM     23  C   UNL     1       6.782   6.597  17.611  0.00  0.00    +0.000 A 
ATOM     24 CL   UNL     1       7.903   7.895  17.758  0.00  0.00    +0.000 Cl
ATOM     25  C   UNL     1       6.596   5.717  18.676  0.00  0.00    +0.000 A 
ATOM     26  C   UNL     1       5.718   4.639  18.548  0.00  0.00    +0.000 A 
ENDBRANCH  19  20
ENDBRANCH  17  19
ENDBRANCH  16  17
ENDBRANCH   4  16
TORSDOF 7
ENDMDL
MODEL 5
REMARK VINA RESULT:      -6.9      2.212      2.826
REMARK  Name = 
REMARK  7 active torsions:
REMARK  status: ('A' for Active; 'I' for Inactive)
REMARK    1  A    between atoms: C_2  and  C_10
REMARK    2  A    between atoms: N_3  and  C_4
REMARK    3  A    between atoms: C_4  and  C_5
REMARK    4  A    between atoms: C_13  and  C_14
REMARK    5  A    between atoms: C_14  and  S_15
REMARK    6  A    between atoms: S_15  and  C_17
REMARK    7  A    between atoms: C_17  and  C_18
REMARK                            x       y       z     vdW  Elec       q    Type
REMARK                         _______ _______ _______ _____ _____    ______ ____
ROOT
ATOM      1  C   UNL     1       2.144   6.615  19.172  0.00  0.00    +0.000 A 
ATOM      2  C   UNL     1       2.141   6.339  20.527  0.00  0.00    +0.000 A 
ATOM      3  C   UNL     1       2.029   4.943  20.666  0.00  0.00    +0.000 A 
ATOM      4  C   UNL     1       1.997   4.424  19.388  0.00  0.00    +0.000 A 
ATOM      5  O   UNL     1       2.028   5.440  18.464  0.00  0.00    +0.000 OA
ENDROOT
BRANCH   1   7
ATOM      6  O   UNL     1       3.105   8.086  17.612  0.00  0.00    +0.000 OA
ATOM      7  C   UNL     1       2.296   7.901  18.521  0.00  0.00    +0.000 C 
ATOM      8  N   UNL     1       1.501   8.933  18.978  0.00  0.00    +0.000 N 
ATOM      9  H   UNL     1       0.928   8.788  19.800  0.00  0.00    +0.000 HD
BRANCH   8  10
ATOM     10  C   UNL     1       1.705  10.252  18.430  0.00  0.00    +0.000 C 
BRANCH  10  11
ATOM     11  C   UNL     1       0.492  11.101  18.614  0.00  0.00    +0.000 A 
ATOM     12  C   UNL     1       0.410  12.380  19.133  0.00  0.00    +0.000 A 
ATOM     13  C   UNL     1      -0.935  12.840  19.232  0.00  0.00    +0.000 A 
ATOM     14  C   UNL     1      -1.836  11.901  18.782  0.00  0.00    +0.000 A 
ATOM     15  S   UNL     1      -1.060  10.481  18.233  0.00  0.00    +0.000 S 
ENDBRANCH  10  11
ENDBRANCH   8  10
ENDBRANCH   1   7
BRANCH   4  16
ATOM     16  C   UNL     1       2.027   3.016  18.902  0.00  0.00    +0.000 C 
BRANCH  16  17
ATOM     17  S   UNL     1       3.769   2.475  18.800  0.00  0.00    +0.000 S 
ATOM     18  O   UNL     1       3.773   0.911  18.614  0.00  0.00    +0.000 OA
BRANCH  17  19
ATOM     19  C   UNL     1       4.161   3.208  17.172  0.00  0.00    +0.000 C 
BRANCH  19  20
ATOM     20  C   UNL     1       5.197   4.297  17.342  0.00  0.00    +0.000 A 
ATOM     21  C   UNL     1       5.708   4.599  18.615  0.00  0.00    +0.000 A 
ATOM     22  C   UNL     1       6.563   5.689  18.798  0.00  0.00    +0.000 A 
ATOM     23  C   UNL     1       6.920   6.481  17.711  0.00  0.00    +0.000 A 
ATOM     24 CL   UNL     1       7.935   7.851  17.941  0.00  0.00    +0.000 Cl
ATOM     25  C   UNL     1       6.440   6.180  16.437  0.00  0.00    +0.000 A 
ATOM     26  C   UNL     1       5.583   5.093  16.251  0.00  0.00    +0.000 A 
ENDBRANCH  19  20
ENDBRANCH  17  19
ENDBRANCH  16  17
ENDBRANCH   4  16
TORSDOF 7
ENDMDL
MODEL 6
REMARK VINA RESULT:      -6.8      2.095      2.529
REMARK  Name = 
REMARK  7 active torsions:
REMARK  status: ('A' for Active; 'I' for Inactive)
REMARK    1  A    between atoms: C_2  and  C_10
REMARK    2  A    between atoms: N_3  and  C_4
REMARK    3  A    between atoms: C_4  and  C_5
REMARK    4  A    between atoms: C_13  and  C_14
REMARK    5  A    between atoms: C_14  and  S_15
REMARK    6  A    between atoms: S_15  and  C_17
REMARK    7  A    between atoms: C_17  and  C_18
REMARK                            x       y       z     vdW  Elec       q    Type
REMARK                         _______ _______ _______ _____ _____    ______ ____
ROOT
ATOM      1  C   UNL     1       1.652   7.716  20.415  0.00  0.00    +0.000 A 
ATOM      2  C   UNL     1       2.329   7.526  19.224  0.00  0.00    +0.000 A 
ATOM      3  C   UNL     1       2.348   6.141  18.972  0.00  0.00    +0.000 A 
ATOM      4  C   UNL     1       1.656   5.547  20.008  0.00  0.00    +0.000 A 
ATOM      5  O   UNL     1       1.258   6.496  20.917  0.00  0.00    +0.000 OA
ENDROOT
BRANCH   1   7
ATOM      6  O   UNL     1       1.296   9.084  22.291  0.00  0.00    +0.000 OA
ATOM      7  C   UNL     1       1.322   8.968  21.067  0.00  0.00    +0.000 C 
ATOM      8  N   UNL     1       1.013  10.038  20.251  0.00  0.00    +0.000 N 
ATOM      9  H   UNL     1       0.929   9.889  19.253  0.00  0.00    +0.000 HD
BRANCH   8  10
ATOM     10  C   UNL     1       0.572  11.266  20.865  0.00  0.00    +0.000 C 
BRANCH  10  11
ATOM     11  C   UNL     1      -0.797  11.635  20.401  0.00  0.00    +0.000 A 
ATOM     12  C   UNL     1      -1.412  11.317  19.204  0.00  0.00    +0.000 A 
ATOM     13  C   UNL     1      -2.697  11.918  19.078  0.00  0.00    +0.000 A 
ATOM     14  C   UNL     1      -3.025  12.672  20.183  0.00  0.00    +0.000 A 
ATOM     15  S   UNL     1      -1.793  12.642  21.367  0.00  0.00    +0.000 S 
ENDBRANCH  10  11
ENDBRANCH   8  10
ENDBRANCH   1   7
BRANCH   4  16
ATOM     16  C   UNL     1       1.228   4.136  20.216  0.00  0.00    +0.000 C 
BRANCH  16  17
ATOM     17  S   UNL     1       2.572   3.242  21.070  0.00  0.00    +0.000 S 
ATOM     18  O   UNL     1       1.908   2.261  22.109  0.00  0.00    +0.000 OA
BRANCH  17  19
ATOM     19  C   UNL     1       3.130   2.225  19.658  0.00  0.00    +0.000 C 
BRANCH  19  20
ATOM     20  C   UNL     1       4.033   3.048  18.765  0.00  0.00    +0.000 A 
ATOM     21  C   UNL     1       5.048   3.845  19.322  0.00  0.00    +0.000 A 
ATOM     22  C   UNL     1       5.797   4.707  18.518  0.00  0.00    +0.000 A 
ATOM     23  C   UNL     1       5.543   4.777  17.151  0.00  0.00    +0.000 A 
ATOM     24 CL   UNL     1       6.433   5.872  16.166  0.00  0.00    +0.000 Cl
ATOM     25  C   UNL     1       4.555   3.976  16.579  0.00  0.00    +0.000 A 
ATOM     26  C   UNL     1       3.803   3.115  17.381  0.00  0.00    +0.000 A 
ENDBRANCH  19  20
ENDBRANCH  17  19
ENDBRANCH  16  17
ENDBRANCH   4  16
TORSDOF 7
ENDMDL
MODEL 7
REMARK VINA RESULT:      -6.7      1.823      2.202
REMARK  Name = 
REMARK  7 active torsions:
REMARK  status: ('A' for Active; 'I' for Inactive)
REMARK    1  A    between atoms: C_2  and  C_10
REMARK    2  A    between atoms: N_3  and  C_4
REMARK    3  A    between atoms: C_4  and  C_5
REMARK    4  A    between atoms: C_13  and  C_14
REMARK    5  A    between atoms: C_14  and  S_15
REMARK    6  A    between atoms: S_15  and  C_17
REMARK    7  A    between atoms: C_17  and  C_18
REMARK                            x       y       z     vdW  Elec       q    Type
REMARK                         _______ _______ _______ _____ _____    ______ ____
ROOT
ATOM      1  C   UNL     1       1.813   8.649  18.746  0.00  0.00    +0.000 A 
ATOM      2  C   UNL     1       2.771   8.228  17.842  0.00  0.00    +0.000 A 
ATOM      3  C   UNL     1       3.256   6.988  18.298  0.00  0.00    +0.000 A 
ATOM      4  C   UNL     1       2.553   6.692  19.448  0.00  0.00    +0.000 A 
ATOM      5  O   UNL     1       1.693   7.719  19.754  0.00  0.00    +0.000 OA
ENDROOT
BRANCH   1   7
ATOM      6  O   UNL     1       1.431  10.931  18.338  0.00  0.00    +0.000 OA
ATOM      7  C   UNL     1       0.986   9.838  18.685  0.00  0.00    +0.000 C 
ATOM      8  N   UNL     1      -0.337   9.701  19.055  0.00  0.00    +0.000 N 
ATOM      9  H   UNL     1      -0.652   8.822  19.446  0.00  0.00    +0.000 HD
BRANCH   8  10
ATOM     10  C   UNL     1      -1.160  10.885  19.113  0.00  0.00    +0.000 C 
BRANCH  10  11
ATOM     11  C   UNL     1      -2.243  10.834  18.087  0.00  0.00    +0.000 A 
ATOM     12  C   UNL     1      -2.215  10.239  16.840  0.00  0.00    +0.000 A 
ATOM     13  C   UNL     1      -3.412  10.470  16.102  0.00  0.00    +0.000 A 
ATOM     14  C   UNL     1      -4.317  11.228  16.811  0.00  0.00    +0.000 A 
ATOM     15  S   UNL     1      -3.727  11.647  18.360  0.00  0.00    +0.000 S 
ENDBRANCH  10  11
ENDBRANCH   8  10
ENDBRANCH   1   7
BRANCH   4  16
ATOM     16  C   UNL     1       2.527   5.464  20.290  0.00  0.00    +0.000 C 
BRANCH  16  17
ATOM     17  S   UNL     1       1.549   4.188  19.425  0.00  0.00    +0.000 S 
ATOM     18  O   UNL     1       1.275   4.705  17.963  0.00  0.00    +0.000 OA
BRANCH  17  19
ATOM     19  C   UNL     1       2.855   2.914  19.304  0.00  0.00    +0.000 C 
BRANCH  19  20
ATOM     20  C   UNL     1       3.992   3.433  18.453  0.00  0.00    +0.000 A 
ATOM     21  C   UNL     1       5.151   3.953  19.056  0.00  0.00    +0.000 A 
ATOM     22  C   UNL     1       6.146   4.553  18.282  0.00  0.00    +0.000 A 
ATOM     23  C   UNL     1       5.997   4.636  16.901  0.00  0.00    +0.000 A 
ATOM     24 CL   UNL     1       7.200   5.417  15.950  0.00  0.00    +0.000 Cl
ATOM     25  C   UNL     1       4.864   4.104  16.285  0.00  0.00    +0.000 A 
ATOM     26  C   UNL     1       3.866   3.505  17.056  0.00  0.00    +0.000 A 
ENDBRANCH  19  20
ENDBRANCH  17  19
ENDBRANCH  16  17
ENDBRANCH   4  16
TORSDOF 7
ENDMDL
MODEL 8
REMARK VINA RESULT:      -6.7      2.834      3.365
REMARK  Name = 
REMARK  7 active torsions:
REMARK  status: ('A' for Active; 'I' for Inactive)
REMARK    1  A    between atoms: C_2  and  C_10
REMARK    2  A    between atoms: N_3  and  C_4
REMARK    3  A    between atoms: C_4  and  C_5
REMARK    4  A    between atoms: C_13  and  C_14
REMARK    5  A    between atoms: C_14  and  S_15
REMARK    6  A    between atoms: S_15  and  C_17
REMARK    7  A    between atoms: C_17  and  C_18
REMARK                            x       y       z     vdW  Elec       q    Type
REMARK                         _______ _______ _______ _____ _____    ______ ____
ROOT
ATOM      1  C   UNL     1       2.197   6.710  19.844  0.00  0.00    +0.000 A 
ATOM      2  C   UNL     1       1.655   5.856  20.787  0.00  0.00    +0.000 A 
ATOM      3  C   UNL     1       2.333   4.628  20.674  0.00  0.00    +0.000 A 
ATOM      4  C   UNL     1       3.279   4.794  19.683  0.00  0.00    +0.000 A 
ATOM      5  O   UNL     1       3.181   6.051  19.141  0.00  0.00    +0.000 OA
ENDROOT
BRANCH   1   7
ATOM      6  O   UNL     1       2.140   8.668  18.547  0.00  0.00    +0.000 OA
ATOM      7  C   UNL     1       1.874   8.103  19.607  0.00  0.00    +0.000 C 
ATOM      8  N   UNL     1       1.265   8.789  20.639  0.00  0.00    +0.000 N 
ATOM      9  H   UNL     1       1.161   8.337  21.538  0.00  0.00    +0.000 HD
BRANCH   8  10
ATOM     10  C   UNL     1       1.031  10.204  20.479  0.00  0.00    +0.000 C 
BRANCH  10  11
ATOM     11  C   UNL     1       0.090  10.711  21.520  0.00  0.00    +0.000 A 
ATOM     12  C   UNL     1      -0.487  10.017  22.567  0.00  0.00    +0.000 A 
ATOM     13  C   UNL     1      -1.403  10.817  23.309  0.00  0.00    +0.000 A 
ATOM     14  C   UNL     1      -1.491  12.097  22.811  0.00  0.00    +0.000 A 
ATOM     15  S   UNL     1      -0.466  12.332  21.464  0.00  0.00    +0.000 S 
ENDBRANCH  10  11
ENDBRANCH   8  10
ENDBRANCH   1   7
BRANCH   4  16
ATOM     16  C   UNL     1       4.375   3.900  19.218  0.00  0.00    +0.000 C 
BRANCH  16  17
ATOM     17  S   UNL     1       3.782   2.961  17.767  0.00  0.00    +0.000 S 
ATOM     18  O   UNL     1       2.527   3.717  17.190  0.00  0.00    +0.000 OA
BRANCH  17  19
ATOM     19  C   UNL     1       5.183   3.323  16.649  0.00  0.00    +0.000 C 
BRANCH  19  20
ATOM     20  C   UNL     1       5.813   4.642  17.035  0.00  0.00    +0.000 A 
ATOM     21  C   UNL     1       5.278   5.852  16.559  0.00  0.00    +0.000 A 
ATOM     22  C   UNL     1       5.931   7.062  16.801  0.00  0.00    +0.000 A 
ATOM     23  C   UNL     1       7.120   7.077  17.524  0.00  0.00    +0.000 A 
ATOM     24 CL   UNL     1       7.950   8.562  17.783  0.00  0.00    +0.000 Cl
ATOM     25  C   UNL     1       7.652   5.889  18.023  0.00  0.00    +0.000 A 
ATOM     26  C   UNL     1       7.003   4.676  17.781  0.00  0.00    +0.000 A 
ENDBRANCH  19  20
ENDBRANCH  17  19
ENDBRANCH  16  17
ENDBRANCH   4  16
TORSDOF 7
ENDMDL
MODEL 9
REMARK VINA RESULT:      -6.7      2.660      3.669
REMARK  Name = 
REMARK  7 active torsions:
REMARK  status: ('A' for Active; 'I' for Inactive)
REMARK    1  A    between atoms: C_2  and  C_10
REMARK    2  A    between atoms: N_3  and  C_4
REMARK    3  A    between atoms: C_4  and  C_5
REMARK    4  A    between atoms: C_13  and  C_14
REMARK    5  A    between atoms: C_14  and  S_15
REMARK    6  A    between atoms: S_15  and  C_17
REMARK    7  A    between atoms: C_17  and  C_18
REMARK                            x       y       z     vdW  Elec       q    Type
REMARK                         _______ _______ _______ _____ _____    ______ ____
ROOT
ATOM      1  C   UNL     1       3.276   5.154  19.849  0.00  0.00    +0.000 A 
ATOM      2  C   UNL     1       3.541   3.803  19.717  0.00  0.00    +0.000 A 
ATOM      3  C   UNL     1       4.826   3.686  19.156  0.00  0.00    +0.000 A 
ATOM      4  C   UNL     1       5.302   4.971  18.995  0.00  0.00    +0.000 A 
ATOM      5  O   UNL     1       4.347   5.880  19.379  0.00  0.00    +0.000 OA
ENDROOT
BRANCH   1   7
ATOM      6  O   UNL     1       1.074   5.159  20.667  0.00  0.00    +0.000 OA
ATOM      7  C   UNL     1       2.106   5.784  20.428  0.00  0.00    +0.000 C 
ATOM      8  N   UNL     1       2.186   7.138  20.688  0.00  0.00    +0.000 N 
ATOM      9  H   UNL     1       3.000   7.652  20.377  0.00  0.00    +0.000 HD
BRANCH   8  10
ATOM     10  C   UNL     1       1.004   7.818  21.160  0.00  0.00    +0.000 C 
BRANCH  10  11
ATOM     11  C   UNL     1       0.753   9.061  20.373  0.00  0.00    +0.000 A 
ATOM     12  C   UNL     1      -0.063  10.130  20.695  0.00  0.00    +0.000 A 
ATOM     13  C   UNL     1      -0.117  11.103  19.656  0.00  0.00    +0.000 A 
ATOM     14  C   UNL     1       0.664  10.750  18.577  0.00  0.00    +0.000 A 
ATOM     15  S   UNL     1       1.463   9.260  18.825  0.00  0.00    +0.000 S 
ENDBRANCH  10  11
ENDBRANCH   8  10
ENDBRANCH   1   7
BRANCH   4  16
ATOM     16  C   UNL     1       6.642   5.474  18.582  0.00  0.00    +0.000 C 
BRANCH  16  17
ATOM     17  S   UNL     1       6.472   6.326  16.975  0.00  0.00    +0.000 S 
ATOM     18  O   UNL     1       7.226   7.704  17.083  0.00  0.00    +0.000 OA
BRANCH  17  19
ATOM     19  C   UNL     1       7.535   5.212  15.991  0.00  0.00    +0.000 C 
BRANCH  19  20
ATOM     20  C   UNL     1       6.778   4.733  14.771  0.00  0.00    +0.000 A 
ATOM     21  C   UNL     1       5.451   4.285  14.889  0.00  0.00    +0.000 A 
ATOM     22  C   UNL     1       4.792   3.719  13.795  0.00  0.00    +0.000 A 
ATOM     23  C   UNL     1       5.449   3.601  12.574  0.00  0.00    +0.000 A 
ATOM     24 CL   UNL     1       4.655   2.861  11.239  0.00  0.00    +0.000 Cl
ATOM     25  C   UNL     1       6.758   4.061  12.435  0.00  0.00    +0.000 A 
ATOM     26  C   UNL     1       7.421   4.626  13.527  0.00  0.00    +0.000 A 
ENDBRANCH  19  20
ENDBRANCH  17  19
ENDBRANCH  16  17
ENDBRANCH   4  16
TORSDOF 7
ENDMDL
