MODEL 1
REMARK VINA RESULT:      -7.9      0.000      0.000
REMARK  Name = 
REMARK  5 active torsions:
REMARK  status: ('A' for Active; 'I' for Inactive)
REMARK    1  A    between atoms: C_1  and  O_2
REMARK    2  A    between atoms: O_2  and  C_3
REMARK    3  A    between atoms: C_5  and  C_6
REMARK    4  A    between atoms: C_11  and  N_12
REMARK    5  A    between atoms: C_26  and  C_27
REMARK                            x       y       z     vdW  Elec       q    Type
REMARK                         _______ _______ _______ _____ _____    ______ ____
ROOT
ATOM      1  C   UNL     1       3.012   7.335  18.044  0.00  0.00    +0.000 C 
ATOM      2  O   UNL     1       3.440   7.534  16.903  0.00  0.00    +0.000 OA
ATOM      3  N   UNL     1       2.171   8.276  18.674  0.00  0.00    +0.000 N 
ATOM      4  C   UNL     1       1.791   9.419  17.839  0.00  0.00    +0.000 C 
ATOM      5  C   UNL     1       1.597  10.686  18.646  0.00  0.00    +0.000 C 
ATOM      6  C   UNL     1       0.671  10.511  19.851  0.00  0.00    +0.000 C 
ATOM      7  C   UNL     1       0.915   9.209  20.621  0.00  0.00    +0.000 C 
ATOM      8  C   UNL     1       1.227   7.983  19.758  0.00  0.00    +0.000 C 
ENDROOT
BRANCH   6   9
ATOM      9  N   UNL     1      -0.708  10.991  19.709  0.00  0.00    +0.000 N 
ATOM     10  C   UNL     1      -1.222  11.886  20.675  0.00  0.00    +0.000 C 
ATOM     11  O   UNL     1      -0.793  12.083  21.803  0.00  0.00    +0.000 OA
ATOM     12  C   UNL     1      -2.394  12.619  20.048  0.00  0.00    +0.000 C 
ATOM     13  C   UNL     1      -2.693  11.761  18.865  0.00  0.00    +0.000 A 
ATOM     14  C   UNL     1      -3.824  11.822  18.065  0.00  0.00    +0.000 A 
ATOM     15  C   UNL     1      -3.971  10.849  17.087  0.00  0.00    +0.000 A 
ATOM     16  C   UNL     1      -2.973   9.884  16.912  0.00  0.00    +0.000 A 
ATOM     17  C   UNL     1      -1.796   9.870  17.688  0.00  0.00    +0.000 A 
ATOM     18  C   UNL     1      -1.669  10.813  18.686  0.00  0.00    +0.000 A 
ENDBRANCH   6   9
BRANCH   1  21
ATOM     19  C   UNL     1       2.792   3.837  19.450  0.00  0.00    +0.000 A 
ATOM     20  C   UNL     1       2.469   5.124  19.006  0.00  0.00    +0.000 A 
ATOM     21  C   UNL     1       3.470   6.062  18.674  0.00  0.00    +0.000 A 
ATOM     22  C   UNL     1       4.807   5.678  18.778  0.00  0.00    +0.000 A 
ATOM     23  C   UNL     1       5.137   4.400  19.257  0.00  0.00    +0.000 A 
ATOM     24  C   UNL     1       4.138   3.473  19.598  0.00  0.00    +0.000 A 
ATOM     25  C   UNL     1       4.507   2.090  20.065  0.00  0.00    +0.000 C 
BRANCH  19  27
ATOM     26  C   UNL     1       0.942   2.521  18.762  0.00  0.00    +0.000 C 
ATOM     27  O   UNL     1       1.860   2.888  19.786  0.00  0.00    +0.000 OA
ENDBRANCH  19  27
ENDBRANCH   1  21
TORSDOF 3
ENDMDL
MODEL 2
REMARK VINA RESULT:      -7.8      2.445      4.256
REMARK  Name = 
REMARK  5 active torsions:
REMARK  status: ('A' for Active; 'I' for Inactive)
REMARK    1  A    between atoms: C_1  and  O_2
REMARK    2  A    between atoms: O_2  and  C_3
REMARK    3  A    between atoms: C_5  and  C_6
REMARK    4  A    between atoms: C_11  and  N_12
REMARK    5  A    between atoms: C_26  and  C_27
REMARK                            x       y       z     vdW  Elec       q    Type
REMARK                         _______ _______ _______ _____ _____    ______ ____
ROOT
ATOM      1  C   UNL     1       2.736   6.517  19.338  0.00  0.00    +0.000 C 
ATOM      2  O   UNL     1       2.788   5.910  20.413  0.00  0.00    +0.000 OA
ATOM      3  N   UNL     1       2.053   7.747  19.236  0.00  0.00    +0.000 N 
ATOM      4  C   UNL     1       1.517   8.260  20.499  0.00  0.00    +0.000 C 
ATOM      5  C   UNL     1       0.239   9.050  20.307  0.00  0.00    +0.000 C 
ATOM      6  C   UNL     1       0.341  10.134  19.232  0.00  0.00    +0.000 C 
ATOM      7  C   UNL     1       1.090   9.676  17.976  0.00  0.00    +0.000 C 
ATOM      8  C   UNL     1       2.305   8.779  18.225  0.00  0.00    +0.000 C 
ENDROOT
BRANCH   6   9
ATOM      9  N   UNL     1       0.529  11.515  19.693  0.00  0.00    +0.000 N 
ATOM     10  C   UNL     1      -0.344  12.029  20.679  0.00  0.00    +0.000 C 
ATOM     11  O   UNL     1      -1.445  11.600  20.989  0.00  0.00    +0.000 OA
ATOM     12  C   UNL     1       0.353  13.204  21.343  0.00  0.00    +0.000 C 
ATOM     13  C   UNL     1       1.443  13.503  20.369  0.00  0.00    +0.000 A 
ATOM     14  C   UNL     1       2.243  14.635  20.348  0.00  0.00    +0.000 A 
ATOM     15  C   UNL     1       3.119  14.781  19.282  0.00  0.00    +0.000 A 
ATOM     16  C   UNL     1       3.197  13.780  18.306  0.00  0.00    +0.000 A 
ATOM     17  C   UNL     1       2.426  12.602  18.373  0.00  0.00    +0.000 A 
ATOM     18  C   UNL     1       1.528  12.477  19.410  0.00  0.00    +0.000 A 
ENDBRANCH   6   9
BRANCH   1  21
ATOM     19  C   UNL     1       5.419   5.808  16.776  0.00  0.00    +0.000 A 
ATOM     20  C   UNL     1       4.608   6.439  17.727  0.00  0.00    +0.000 A 
ATOM     21  C   UNL     1       3.422   5.838  18.200  0.00  0.00    +0.000 A 
ATOM     22  C   UNL     1       3.070   4.578  17.714  0.00  0.00    +0.000 A 
ATOM     23  C   UNL     1       3.861   3.957  16.734  0.00  0.00    +0.000 A 
ATOM     24  C   UNL     1       5.035   4.563  16.257  0.00  0.00    +0.000 A 
ATOM     25  C   UNL     1       5.898   3.863  15.241  0.00  0.00    +0.000 C 
BRANCH  19  27
ATOM     26  C   UNL     1       7.427   6.985  17.233  0.00  0.00    +0.000 C 
ATOM     27  O   UNL     1       6.579   6.346  16.283  0.00  0.00    +0.000 OA
ENDBRANCH  19  27
ENDBRANCH   1  21
TORSDOF 3
ENDMDL
MODEL 3
REMARK VINA RESULT:      -7.6      1.168      1.966
REMARK  Name = 
REMARK  5 active torsions:
REMARK  status: ('A' for Active; 'I' for Inactive)
REMARK    1  A    between atoms: C_1  and  O_2
REMARK    2  A    between atoms: O_2  and  C_3
REMARK    3  A    between atoms: C_5  and  C_6
REMARK    4  A    between atoms: C_11  and  N_12
REMARK    5  A    between atoms: C_26  and  C_27
REMARK                            x       y       z     vdW  Elec       q    Type
REMARK                         _______ _______ _______ _____ _____    ______ ____
ROOT
ATOM      1  C   UNL     1       2.861   7.589  17.799  0.00  0.00    +0.000 C 
ATOM      2  O   UNL     1       3.256   7.922  16.677  0.00  0.00    +0.000 OA
ATOM      3  N   UNL     1       2.125   8.485  18.601  0.00  0.00    +0.000 N 
ATOM      4  C   UNL     1       1.803   9.763  17.960  0.00  0.00    +0.000 C 
ATOM      5  C   UNL     1       1.745  10.908  18.950  0.00  0.00    +0.000 C 
ATOM      6  C   UNL     1       0.860  10.626  20.165  0.00  0.00    +0.000 C 
ATOM      7  C   UNL     1       1.030   9.210  20.726  0.00  0.00    +0.000 C 
ATOM      8  C   UNL     1       1.207   8.106  19.680  0.00  0.00    +0.000 C 
ENDROOT
BRANCH   6   9
ATOM      9  N   UNL     1      -0.481  11.221  20.167  0.00  0.00    +0.000 N 
ATOM     10  C   UNL     1      -0.797  12.189  21.148  0.00  0.00    +0.000 C 
ATOM     11  O   UNL     1      -0.220  12.384  22.207  0.00  0.00    +0.000 OA
ATOM     12  C   UNL     1      -1.971  13.002  20.633  0.00  0.00    +0.000 C 
ATOM     13  C   UNL     1      -2.483  12.135  19.531  0.00  0.00    +0.000 A 
ATOM     14  C   UNL     1      -3.694  12.270  18.869  0.00  0.00    +0.000 A 
ATOM     15  C   UNL     1      -4.040  11.283  17.958  0.00  0.00    +0.000 A 
ATOM     16  C   UNL     1      -3.154  10.228  17.708  0.00  0.00    +0.000 A 
ATOM     17  C   UNL     1      -1.897  10.136  18.338  0.00  0.00    +0.000 A 
ATOM     18  C   UNL     1      -1.572  11.095  19.273  0.00  0.00    +0.000 A 
ENDBRANCH   6   9
BRANCH   1  21
ATOM     19  C   UNL     1       5.040   4.785  19.085  0.00  0.00    +0.000 A 
ATOM     20  C   UNL     1       4.600   5.993  18.532  0.00  0.00    +0.000 A 
ATOM     21  C   UNL     1       3.242   6.206  18.214  0.00  0.00    +0.000 A 
ATOM     22  C   UNL     1       2.325   5.189  18.478  0.00  0.00    +0.000 A 
ATOM     23  C   UNL     1       2.766   3.962  18.999  0.00  0.00    +0.000 A 
ATOM     24  C   UNL     1       4.121   3.749  19.304  0.00  0.00    +0.000 A 
ATOM     25  C   UNL     1       4.572   2.445  19.907  0.00  0.00    +0.000 C 
BRANCH  19  27
ATOM     26  C   UNL     1       7.255   5.612  19.274  0.00  0.00    +0.000 C 
ATOM     27  O   UNL     1       6.346   4.525  19.412  0.00  0.00    +0.000 OA
ENDBRANCH  19  27
ENDBRANCH   1  21
TORSDOF 3
ENDMDL
MODEL 4
REMARK VINA RESULT:      -7.3      1.700      2.604
REMARK  Name = 
REMARK  5 active torsions:
REMARK  status: ('A' for Active; 'I' for Inactive)
REMARK    1  A    between atoms: C_1  and  O_2
REMARK    2  A    between atoms: O_2  and  C_3
REMARK    3  A    between atoms: C_5  and  C_6
REMARK    4  A    between atoms: C_11  and  N_12
REMARK    5  A    between atoms: C_26  and  C_27
REMARK                            x       y       z     vdW  Elec       q    Type
REMARK                         _______ _______ _______ _____ _____    ______ ____
ROOT
ATOM      1  C   UNL     1       2.356   7.869  18.108  0.00  0.00    +0.000 C 
ATOM      2  O   UNL     1       2.447   8.332  16.966  0.00  0.00    +0.000 OA
ATOM      3  N   UNL     1       1.788   8.630  19.151  0.00  0.00    +0.000 N 
ATOM      4  C   UNL     1       1.250   9.930  18.743  0.00  0.00    +0.000 C 
ATOM      5  C   UNL     1       1.370  10.974  19.834  0.00  0.00    +0.000 C 
ATOM      6  C   UNL     1       0.823  10.515  21.187  0.00  0.00    +0.000 C 
ATOM      7  C   UNL     1       1.204   9.073  21.538  0.00  0.00    +0.000 C 
ATOM      8  C   UNL     1       1.182   8.084  20.370  0.00  0.00    +0.000 C 
ENDROOT
BRANCH   6   9
ATOM      9  N   UNL     1      -0.508  11.000  21.568  0.00  0.00    +0.000 N 
ATOM     10  C   UNL     1      -0.870  10.994  22.935  0.00  0.00    +0.000 C 
ATOM     11  O   UNL     1      -0.355  10.346  23.834  0.00  0.00    +0.000 OA
ATOM     12  C   UNL     1      -2.001  11.990  23.116  0.00  0.00    +0.000 C 
ATOM     13  C   UNL     1      -2.456  12.195  21.710  0.00  0.00    +0.000 A 
ATOM     14  C   UNL     1      -3.624  12.824  21.303  0.00  0.00    +0.000 A 
ATOM     15  C   UNL     1      -3.926  12.800  19.949  0.00  0.00    +0.000 A 
ATOM     16  C   UNL     1      -3.040  12.194  19.050  0.00  0.00    +0.000 A 
ATOM     17  C   UNL     1      -1.824  11.616  19.467  0.00  0.00    +0.000 A 
ATOM     18  C   UNL     1      -1.544  11.604  20.817  0.00  0.00    +0.000 A 
ENDBRANCH   6   9
BRANCH   1  21
ATOM     19  C   UNL     1       4.718   5.139  19.217  0.00  0.00    +0.000 A 
ATOM     20  C   UNL     1       4.178   6.382  18.867  0.00  0.00    +0.000 A 
ATOM     21  C   UNL     1       2.902   6.490  18.273  0.00  0.00    +0.000 A 
ATOM     22  C   UNL     1       2.166   5.326  18.051  0.00  0.00    +0.000 A 
ATOM     23  C   UNL     1       2.718   4.074  18.367  0.00  0.00    +0.000 A 
ATOM     24  C   UNL     1       3.993   3.970  18.947  0.00  0.00    +0.000 A 
ATOM     25  C   UNL     1       4.552   2.623  19.325  0.00  0.00    +0.000 C 
BRANCH  19  27
ATOM     26  C   UNL     1       7.054   5.532  19.084  0.00  0.00    +0.000 C 
ATOM     27  O   UNL     1       5.951   4.977  19.795  0.00  0.00    +0.000 OA
ENDBRANCH  19  27
ENDBRANCH   1  21
TORSDOF 3
ENDMDL
MODEL 5
REMARK VINA RESULT:      -7.3      1.607      2.077
REMARK  Name = 
REMARK  5 active torsions:
REMARK  status: ('A' for Active; 'I' for Inactive)
REMARK    1  A    between atoms: C_1  and  O_2
REMARK    2  A    between atoms: O_2  and  C_3
REMARK    3  A    between atoms: C_5  and  C_6
REMARK    4  A    between atoms: C_11  and  N_12
REMARK    5  A    between atoms: C_26  and  C_27
REMARK                            x       y       z     vdW  Elec       q    Type
REMARK                         _______ _______ _______ _____ _____    ______ ____
ROOT
ATOM      1  C   UNL     1       2.348   7.995  18.000  0.00  0.00    +0.000 C 
ATOM      2  O   UNL     1       2.449   8.519  16.886  0.00  0.00    +0.000 OA
ATOM      3  N   UNL     1       1.787   8.703  19.083  0.00  0.00    +0.000 N 
ATOM      4  C   UNL     1       1.266  10.031  18.746  0.00  0.00    +0.000 C 
ATOM      5  C   UNL     1       1.396  11.011  19.894  0.00  0.00    +0.000 C 
ATOM      6  C   UNL     1       0.839  10.485  21.218  0.00  0.00    +0.000 C 
ATOM      7  C   UNL     1       1.200   9.021  21.489  0.00  0.00    +0.000 C 
ATOM      8  C   UNL     1       1.170   8.098  20.268  0.00  0.00    +0.000 C 
ENDROOT
BRANCH   6   9
ATOM      9  N   UNL     1      -0.487  10.964  21.622  0.00  0.00    +0.000 N 
ATOM     10  C   UNL     1      -0.841  10.919  22.990  0.00  0.00    +0.000 C 
ATOM     11  O   UNL     1      -0.324  10.242  23.866  0.00  0.00    +0.000 OA
ATOM     12  C   UNL     1      -1.966  11.916  23.208  0.00  0.00    +0.000 C 
ATOM     13  C   UNL     1      -2.429  12.164  21.812  0.00  0.00    +0.000 A 
ATOM     14  C   UNL     1      -3.595  12.811  21.431  0.00  0.00    +0.000 A 
ATOM     15  C   UNL     1      -3.906  12.829  20.079  0.00  0.00    +0.000 A 
ATOM     16  C   UNL     1      -3.029  12.246  19.157  0.00  0.00    +0.000 A 
ATOM     17  C   UNL     1      -1.813  11.649  19.549  0.00  0.00    +0.000 A 
ATOM     18  C   UNL     1      -1.525  11.596  20.896  0.00  0.00    +0.000 A 
ENDBRANCH   6   9
BRANCH   1  21
ATOM     19  C   UNL     1       2.330   4.220  17.890  0.00  0.00    +0.000 A 
ATOM     20  C   UNL     1       1.932   5.559  17.982  0.00  0.00    +0.000 A 
ATOM     21  C   UNL     1       2.877   6.602  18.089  0.00  0.00    +0.000 A 
ATOM     22  C   UNL     1       4.234   6.280  18.084  0.00  0.00    +0.000 A 
ATOM     23  C   UNL     1       4.637   4.935  18.028  0.00  0.00    +0.000 A 
ATOM     24  C   UNL     1       3.694   3.899  17.933  0.00  0.00    +0.000 A 
ATOM     25  C   UNL     1       4.142   2.465  17.826  0.00  0.00    +0.000 C 
BRANCH  19  27
ATOM     26  C   UNL     1       0.776   2.798  18.981  0.00  0.00    +0.000 C 
ATOM     27  O   UNL     1       1.455   3.169  17.786  0.00  0.00    +0.000 OA
ENDBRANCH  19  27
ENDBRANCH   1  21
TORSDOF 3
ENDMDL
MODEL 6
REMARK VINA RESULT:      -7.3      2.636      4.154
REMARK  Name = 
REMARK  5 active torsions:
REMARK  status: ('A' for Active; 'I' for Inactive)
REMARK    1  A    between atoms: C_1  and  O_2
REMARK    2  A    between atoms: O_2  and  C_3
REMARK    3  A    between atoms: C_5  and  C_6
REMARK    4  A    between atoms: C_11  and  N_12
REMARK    5  A    between atoms: C_26  and  C_27
REMARK                            x       y       z     vdW  Elec       q    Type
REMARK                         _______ _______ _______ _____ _____    ______ ____
ROOT
ATOM      1  C   UNL     1       2.710   6.422  19.379  0.00  0.00    +0.000 C 
ATOM      2  O   UNL     1       2.745   5.768  20.427  0.00  0.00    +0.000 OA
ATOM      3  N   UNL     1       2.026   7.653  19.319  0.00  0.00    +0.000 N 
ATOM      4  C   UNL     1       1.466   8.110  20.594  0.00  0.00    +0.000 C 
ATOM      5  C   UNL     1       0.189   8.904  20.414  0.00  0.00    +0.000 C 
ATOM      6  C   UNL     1       0.308  10.035  19.391  0.00  0.00    +0.000 C 
ATOM      7  C   UNL     1       1.079   9.634  18.129  0.00  0.00    +0.000 C 
ATOM      8  C   UNL     1       2.293   8.730  18.359  0.00  0.00    +0.000 C 
ENDROOT
BRANCH   6   9
ATOM      9  N   UNL     1       0.483  11.394  19.915  0.00  0.00    +0.000 N 
ATOM     10  C   UNL     1       1.332  12.288  19.224  0.00  0.00    +0.000 C 
ATOM     11  O   UNL     1       2.204  12.004  18.416  0.00  0.00    +0.000 OA
ATOM     12  C   UNL     1       0.938  13.699  19.621  0.00  0.00    +0.000 C 
ATOM     13  C   UNL     1       0.124  13.455  20.847  0.00  0.00    +0.000 A 
ATOM     14  C   UNL     1      -0.291  14.407  21.766  0.00  0.00    +0.000 A 
ATOM     15  C   UNL     1      -0.936  13.958  22.909  0.00  0.00    +0.000 A 
ATOM     16  C   UNL     1      -1.181  12.589  23.075  0.00  0.00    +0.000 A 
ATOM     17  C   UNL     1      -0.813  11.636  22.103  0.00  0.00    +0.000 A 
ATOM     18  C   UNL     1      -0.137  12.080  20.987  0.00  0.00    +0.000 A 
ENDBRANCH   6   9
BRANCH   1  21
ATOM     19  C   UNL     1       5.423   5.855  16.814  0.00  0.00    +0.000 A 
ATOM     20  C   UNL     1       4.593   6.437  17.779  0.00  0.00    +0.000 A 
ATOM     21  C   UNL     1       3.418   5.795  18.225  0.00  0.00    +0.000 A 
ATOM     22  C   UNL     1       3.098   4.544  17.697  0.00  0.00    +0.000 A 
ATOM     23  C   UNL     1       3.908   3.972  16.702  0.00  0.00    +0.000 A 
ATOM     24  C   UNL     1       5.071   4.620  16.253  0.00  0.00    +0.000 A 
ATOM     25  C   UNL     1       5.956   3.971  15.221  0.00  0.00    +0.000 C 
BRANCH  19  27
ATOM     26  C   UNL     1       7.454   6.967  17.331  0.00  0.00    +0.000 C 
ATOM     27  O   UNL     1       6.574   6.435  16.345  0.00  0.00    +0.000 OA
ENDBRANCH  19  27
ENDBRANCH   1  21
TORSDOF 3
ENDMDL
MODEL 7
REMARK VINA RESULT:      -7.1      1.614      2.236
REMARK  Name = 
REMARK  5 active torsions:
REMARK  status: ('A' for Active; 'I' for Inactive)
REMARK    1  A    between atoms: C_1  and  O_2
REMARK    2  A    between atoms: O_2  and  C_3
REMARK    3  A    between atoms: C_5  and  C_6
REMARK    4  A    between atoms: C_11  and  N_12
REMARK    5  A    between atoms: C_26  and  C_27
REMARK                            x       y       z     vdW  Elec       q    Type
REMARK                         _______ _______ _______ _____ _____    ______ ____
ROOT
ATOM      1  C   UNL     1       2.229   8.358  18.262  0.00  0.00    +0.000 C 
ATOM      2  O   UNL     1       2.489   8.733  17.114  0.00  0.00    +0.000 OA
ATOM      3  N   UNL     1       1.552   9.206  19.163  0.00  0.00    +0.000 N 
ATOM      4  C   UNL     1       1.117  10.485  18.597  0.00  0.00    +0.000 C 
ATOM      5  C   UNL     1       1.124  11.603  19.619  0.00  0.00    +0.000 C 
ATOM      6  C   UNL     1       0.385  11.257  20.913  0.00  0.00    +0.000 C 
ATOM      7  C   UNL     1       0.666   9.836  21.412  0.00  0.00    +0.000 C 
ATOM      8  C   UNL     1       0.769   8.764  20.323  0.00  0.00    +0.000 C 
ENDROOT
BRANCH   6   9
ATOM      9  N   UNL     1      -0.969  11.799  21.074  0.00  0.00    +0.000 N 
ATOM     10  C   UNL     1      -1.304  12.448  22.284  0.00  0.00    +0.000 C 
ATOM     11  O   UNL     1      -0.730  12.352  23.359  0.00  0.00    +0.000 OA
ATOM     12  C   UNL     1      -2.497  13.347  22.010  0.00  0.00    +0.000 C 
ATOM     13  C   UNL     1      -2.991  12.811  20.709  0.00  0.00    +0.000 A 
ATOM     14  C   UNL     1      -4.205  13.100  20.104  0.00  0.00    +0.000 A 
ATOM     15  C   UNL     1      -4.531  12.399  18.952  0.00  0.00    +0.000 A 
ATOM     16  C   UNL     1      -3.623  11.474  18.422  0.00  0.00    +0.000 A 
ATOM     17  C   UNL     1      -2.363  11.237  19.008  0.00  0.00    +0.000 A 
ATOM     18  C   UNL     1      -2.057  11.904  20.175  0.00  0.00    +0.000 A 
ENDBRANCH   6   9
BRANCH   1  21
ATOM     19  C   UNL     1       4.360   5.244  18.101  0.00  0.00    +0.000 A 
ATOM     20  C   UNL     1       3.730   6.453  17.785  0.00  0.00    +0.000 A 
ATOM     21  C   UNL     1       2.702   6.982  18.595  0.00  0.00    +0.000 A 
ATOM     22  C   UNL     1       2.328   6.283  19.744  0.00  0.00    +0.000 A 
ATOM     23  C   UNL     1       2.932   5.052  20.046  0.00  0.00    +0.000 A 
ATOM     24  C   UNL     1       3.947   4.523  19.231  0.00  0.00    +0.000 A 
ATOM     25  C   UNL     1       4.619   3.225  19.594  0.00  0.00    +0.000 C 
BRANCH  19  27
ATOM     26  C   UNL     1       5.103   4.559  15.955  0.00  0.00    +0.000 C 
ATOM     27  O   UNL     1       5.362   4.685  17.350  0.00  0.00    +0.000 OA
ENDBRANCH  19  27
ENDBRANCH   1  21
TORSDOF 3
ENDMDL
MODEL 8
REMARK VINA RESULT:      -7.1      2.440      3.876
REMARK  Name = 
REMARK  5 active torsions:
REMARK  status: ('A' for Active; 'I' for Inactive)
REMARK    1  A    between atoms: C_1  and  O_2
REMARK    2  A    between atoms: O_2  and  C_3
REMARK    3  A    between atoms: C_5  and  C_6
REMARK    4  A    between atoms: C_11  and  N_12
REMARK    5  A    between atoms: C_26  and  C_27
REMARK                            x       y       z     vdW  Elec       q    Type
REMARK                         _______ _______ _______ _____ _____    ______ ____
ROOT
ATOM      1  C   UNL     1       2.068   7.125  20.036  0.00  0.00    +0.000 C 
ATOM      2  O   UNL     1       2.097   6.818  21.232  0.00  0.00    +0.000 OA
ATOM      3  N   UNL     1       1.405   8.292  19.605  0.00  0.00    +0.000 N 
ATOM      4  C   UNL     1       0.860   9.123  20.682  0.00  0.00    +0.000 C 
ATOM      5  C   UNL     1      -0.404   9.849  20.269  0.00  0.00    +0.000 C 
ATOM      6  C   UNL     1      -0.272  10.614  18.951  0.00  0.00    +0.000 C 
ATOM      7  C   UNL     1       0.486   9.836  17.871  0.00  0.00    +0.000 C 
ATOM      8  C   UNL     1       1.685   9.022  18.364  0.00  0.00    +0.000 C 
ENDROOT
BRANCH   6   9
ATOM      9  N   UNL     1      -0.070  12.065  19.039  0.00  0.00    +0.000 N 
ATOM     10  C   UNL     1      -1.161  12.884  19.412  0.00  0.00    +0.000 C 
ATOM     11  O   UNL     1      -2.348  12.599  19.369  0.00  0.00    +0.000 OA
ATOM     12  C   UNL     1      -0.596  14.192  19.936  0.00  0.00    +0.000 C 
ATOM     13  C   UNL     1       0.806  14.144  19.432  0.00  0.00    +0.000 A 
ATOM     14  C   UNL     1       1.712  15.194  19.410  0.00  0.00    +0.000 A 
ATOM     15  C   UNL     1       2.931  14.977  18.782  0.00  0.00    +0.000 A 
ATOM     16  C   UNL     1       3.218  13.717  18.242  0.00  0.00    +0.000 A 
ATOM     17  C   UNL     1       2.315  12.638  18.327  0.00  0.00    +0.000 A 
ATOM     18  C   UNL     1       1.090  12.867  18.916  0.00  0.00    +0.000 A 
ENDBRANCH   6   9
BRANCH   1  21
ATOM     19  C   UNL     1       4.795   4.849  18.750  0.00  0.00    +0.000 A 
ATOM     20  C   UNL     1       4.101   5.853  19.435  0.00  0.00    +0.000 A 
ATOM     21  C   UNL     1       2.760   6.165  19.125  0.00  0.00    +0.000 A 
ATOM     22  C   UNL     1       2.117   5.436  18.124  0.00  0.00    +0.000 A 
ATOM     23  C   UNL     1       2.820   4.452  17.409  0.00  0.00    +0.000 A 
ATOM     24  C   UNL     1       4.158   4.153  17.713  0.00  0.00    +0.000 A 
ATOM     25  C   UNL     1       4.884   3.062  16.970  0.00  0.00    +0.000 C 
BRANCH  19  27
ATOM     26  C   UNL     1       7.057   5.551  18.881  0.00  0.00    +0.000 C 
ATOM     27  O   UNL     1       6.097   4.506  19.009  0.00  0.00    +0.000 OA
ENDBRANCH  19  27
ENDBRANCH   1  21
TORSDOF 3
ENDMDL
MODEL 9
REMARK VINA RESULT:      -7.0      2.156      8.542
REMARK  Name = 
REMARK  5 active torsions:
REMARK  status: ('A' for Active; 'I' for Inactive)
REMARK    1  A    between atoms: C_1  and  O_2
REMARK    2  A    between atoms: O_2  and  C_3
REMARK    3  A    between atoms: C_5  and  C_6
REMARK    4  A    between atoms: C_11  and  N_12
REMARK    5  A    between atoms: C_26  and  C_27
REMARK                            x       y       z     vdW  Elec       q    Type
REMARK                         _______ _______ _______ _____ _____    ______ ____
ROOT
ATOM      1  C   UNL     1       0.861  10.240  19.496  0.00  0.00    +0.000 C 
ATOM      2  O   UNL     1       1.044  11.044  18.575  0.00  0.00    +0.000 OA
ATOM      3  N   UNL     1       1.372   8.928  19.421  0.00  0.00    +0.000 N 
ATOM      4  C   UNL     1       2.190   8.652  18.237  0.00  0.00    +0.000 C 
ATOM      5  C   UNL     1       2.076   7.214  17.776  0.00  0.00    +0.000 C 
ATOM      6  C   UNL     1       2.300   6.191  18.891  0.00  0.00    +0.000 C 
ATOM      7  C   UNL     1       1.619   6.571  20.210  0.00  0.00    +0.000 C 
ATOM      8  C   UNL     1       1.660   8.060  20.567  0.00  0.00    +0.000 C 
ENDROOT
BRANCH   6   9
ATOM      9  N   UNL     1       3.613   5.539  18.945  0.00  0.00    +0.000 N 
ATOM     10  C   UNL     1       3.746   4.333  19.669  0.00  0.00    +0.000 C 
ATOM     11  O   UNL     1       2.997   3.902  20.534  0.00  0.00    +0.000 OA
ATOM     12  C   UNL     1       4.978   3.615  19.147  0.00  0.00    +0.000 C 
ATOM     13  C   UNL     1       5.679   4.708  18.412  0.00  0.00    +0.000 A 
ATOM     14  C   UNL     1       6.982   4.680  17.937  0.00  0.00    +0.000 A 
ATOM     15  C   UNL     1       7.489   5.849  17.388  0.00  0.00    +0.000 A 
ATOM     16  C   UNL     1       6.673   6.982  17.292  0.00  0.00    +0.000 A 
ATOM     17  C   UNL     1       5.329   6.980  17.718  0.00  0.00    +0.000 A 
ATOM     18  C   UNL     1       4.839   5.830  18.300  0.00  0.00    +0.000 A 
ENDBRANCH   6   9
BRANCH   1  21
ATOM     19  C   UNL     1      -1.832  12.181  21.296  0.00  0.00    +0.000 A 
ATOM     20  C   UNL     1      -0.918  11.736  20.333  0.00  0.00    +0.000 A 
ATOM     21  C   UNL     1       0.061  10.768  20.640  0.00  0.00    +0.000 A 
ATOM     22  C   UNL     1       0.098  10.237  21.930  0.00  0.00    +0.000 A 
ATOM     23  C   UNL     1      -0.793  10.707  22.909  0.00  0.00    +0.000 A 
ATOM     24  C   UNL     1      -1.759  11.679  22.603  0.00  0.00    +0.000 A 
ATOM     25  C   UNL     1      -2.740  12.137  23.651  0.00  0.00    +0.000 C 
BRANCH  19  27
ATOM     26  C   UNL     1      -3.849  12.724  20.171  0.00  0.00    +0.000 C 
ATOM     27  O   UNL     1      -2.803  13.119  21.053  0.00  0.00    +0.000 OA
ENDBRANCH  19  27
ENDBRANCH   1  21
TORSDOF 3
ENDMDL
