MODEL 1
REMARK VINA RESULT:      -8.5      0.000      0.000
REMARK  Name = 
REMARK  5 active torsions:
REMARK  status: ('A' for Active; 'I' for Inactive)
REMARK    1  A    between atoms: C_2  and  C_3
REMARK    2  A    between atoms: C_3  and  N_4
REMARK    3  A    between atoms: N_16  and  C_17
REMARK    4  A    between atoms: C_17  and  C_18
REMARK    5  A    between atoms: C_18  and  C_19
REMARK                            x       y       z     vdW  Elec       q    Type
REMARK                         _______ _______ _______ _____ _____    ______ ____
ROOT
ATOM      1  C   UNL     1       7.108   5.728  16.944  0.00  0.00    +0.000 C 
ENDROOT
BRANCH   1   2
ATOM      2  N   UNL     1       5.666   6.007  16.719  0.00  0.00    +0.000 NA
ATOM      3  C   UNL     1       4.920   4.792  16.287  0.00  0.00    +0.000 C 
ATOM      4  C   UNL     1       4.751   3.690  17.349  0.00  0.00    +0.000 C 
ATOM      5  N   UNL     1       4.206   4.227  18.595  0.00  0.00    +0.000 N 
ATOM      6  C   UNL     1       2.983   3.771  19.039  0.00  0.00    +0.000 A 
ATOM      7  C   UNL     1       2.646   3.821  20.393  0.00  0.00    +0.000 A 
ATOM      8  C   UNL     1       1.442   3.278  20.840  0.00  0.00    +0.000 A 
ATOM      9  C   UNL     1       0.579   2.702  19.925  0.00  0.00    +0.000 A 
ATOM     10  C   UNL     1       0.964   2.696  18.599  0.00  0.00    +0.000 A 
ATOM     11  N   UNL     1       2.134   3.206  18.151  0.00  0.00    +0.000 NA
ATOM     12  C   UNL     1       4.820   5.453  19.106  0.00  0.00    +0.000 C 
ATOM     13  C   UNL     1       5.030   6.497  17.974  0.00  0.00    +0.000 C 
ENDBRANCH   1   2
BRANCH   1  15
ATOM     14  O   UNL     1       8.093   6.194  19.105  0.00  0.00    +0.000 OA
ATOM     15  C   UNL     1       7.731   6.638  18.020  0.00  0.00    +0.000 C 
ATOM     16  N   UNL     1       7.805   7.977  17.690  0.00  0.00    +0.000 N 
ATOM     17  H   UNL     1       7.614   8.199  16.717  0.00  0.00    +0.000 HD
BRANCH  16  18
ATOM     18  C   UNL     1       8.475   8.927  18.564  0.00  0.00    +0.000 C 
BRANCH  18  19
ATOM     19  C   UNL     1       8.716  10.284  17.898  0.00  0.00    +0.000 C 
BRANCH  19  20
ATOM     20  C   UNL     1       9.834  11.065  18.551  0.00  0.00    +0.000 A 
ATOM     21  C   UNL     1      10.850  11.636  17.771  0.00  0.00    +0.000 A 
ATOM     22  C   UNL     1      11.894  12.349  18.371  0.00  0.00    +0.000 A 
ATOM     23  C   UNL     1      11.933  12.499  19.754  0.00  0.00    +0.000 A 
ATOM     24  C   UNL     1      10.929  11.936  20.541  0.00  0.00    +0.000 A 
ATOM     25  C   UNL     1       9.884  11.222  19.941  0.00  0.00    +0.000 A 
ENDBRANCH  19  20
ENDBRANCH  18  19
ENDBRANCH  16  18
ENDBRANCH   1  15
TORSDOF 5
ENDMDL
MODEL 2
REMARK VINA RESULT:      -8.3      0.909      1.557
REMARK  Name = 
REMARK  5 active torsions:
REMARK  status: ('A' for Active; 'I' for Inactive)
REMARK    1  A    between atoms: C_2  and  C_3
REMARK    2  A    between atoms: C_3  and  N_4
REMARK    3  A    between atoms: N_16  and  C_17
REMARK    4  A    between atoms: C_17  and  C_18
REMARK    5  A    between atoms: C_18  and  C_19
REMARK                            x       y       z     vdW  Elec       q    Type
REMARK                         _______ _______ _______ _____ _____    ______ ____
ROOT
ATOM      1  C   UNL     1       7.049   6.300  16.941  0.00  0.00    +0.000 C 
ENDROOT
BRANCH   1   2
ATOM      2  N   UNL     1       6.844   4.907  17.419  0.00  0.00    +0.000 NA
ATOM      3  C   UNL     1       6.367   4.862  18.829  0.00  0.00    +0.000 C 
ATOM      4  C   UNL     1       4.936   5.374  19.075  0.00  0.00    +0.000 C 
ATOM      5  N   UNL     1       3.977   4.735  18.175  0.00  0.00    +0.000 N 
ATOM      6  C   UNL     1       2.968   3.965  18.713  0.00  0.00    +0.000 A 
ATOM      7  C   UNL     1       1.772   3.763  18.022  0.00  0.00    +0.000 A 
ATOM      8  C   UNL     1       0.728   3.053  18.614  0.00  0.00    +0.000 A 
ATOM      9  C   UNL     1       0.896   2.540  19.888  0.00  0.00    +0.000 A 
ATOM     10  C   UNL     1       2.108   2.761  20.512  0.00  0.00    +0.000 A 
ATOM     11  N   UNL     1       3.125   3.459  19.957  0.00  0.00    +0.000 NA
ATOM     12  C   UNL     1       4.348   4.669  16.760  0.00  0.00    +0.000 C 
ATOM     13  C   UNL     1       5.824   4.216  16.582  0.00  0.00    +0.000 C 
ENDBRANCH   1   2
BRANCH   1  15
ATOM     14  O   UNL     1       8.349   6.684  18.946  0.00  0.00    +0.000 OA
ATOM     15  C   UNL     1       7.806   7.173  17.960  0.00  0.00    +0.000 C 
ATOM     16  N   UNL     1       7.786   8.530  17.706  0.00  0.00    +0.000 N 
ATOM     17  H   UNL     1       7.436   8.798  16.789  0.00  0.00    +0.000 HD
BRANCH  16  18
ATOM     18  C   UNL     1       8.556   9.456  18.520  0.00  0.00    +0.000 C 
BRANCH  18  19
ATOM     19  C   UNL     1       8.796  10.802  17.831  0.00  0.00    +0.000 C 
BRANCH  19  20
ATOM     20  C   UNL     1      10.026  11.512  18.349  0.00  0.00    +0.000 A 
ATOM     21  C   UNL     1      10.790  12.321  17.495  0.00  0.00    +0.000 A 
ATOM     22  C   UNL     1      11.936  12.971  17.967  0.00  0.00    +0.000 A 
ATOM     23  C   UNL     1      12.330  12.820  19.292  0.00  0.00    +0.000 A 
ATOM     24  C   UNL     1      11.578  12.020  20.152  0.00  0.00    +0.000 A 
ATOM     25  C   UNL     1      10.432  11.368  19.681  0.00  0.00    +0.000 A 
ENDBRANCH  19  20
ENDBRANCH  18  19
ENDBRANCH  16  18
ENDBRANCH   1  15
TORSDOF 5
ENDMDL
MODEL 3
REMARK VINA RESULT:      -8.1      1.233      1.667
REMARK  Name = 
REMARK  5 active torsions:
REMARK  status: ('A' for Active; 'I' for Inactive)
REMARK    1  A    between atoms: C_2  and  C_3
REMARK    2  A    between atoms: C_3  and  N_4
REMARK    3  A    between atoms: N_16  and  C_17
REMARK    4  A    between atoms: C_17  and  C_18
REMARK    5  A    between atoms: C_18  and  C_19
REMARK                            x       y       z     vdW  Elec       q    Type
REMARK                         _______ _______ _______ _____ _____    ______ ____
ROOT
ATOM      1  C   UNL     1       7.339   6.388  18.418  0.00  0.00    +0.000 C 
ENDROOT
BRANCH   1   2
ATOM      2  N   UNL     1       6.310   5.850  17.490  0.00  0.00    +0.000 NA
ATOM      3  C   UNL     1       6.099   4.387  17.673  0.00  0.00    +0.000 C 
ATOM      4  C   UNL     1       5.427   3.961  18.991  0.00  0.00    +0.000 C 
ATOM      5  N   UNL     1       4.190   4.705  19.225  0.00  0.00    +0.000 N 
ATOM      6  C   UNL     1       2.998   4.013  19.290  0.00  0.00    +0.000 A 
ATOM      7  C   UNL     1       1.907   4.528  19.991  0.00  0.00    +0.000 A 
ATOM      8  C   UNL     1       0.737   3.780  20.121  0.00  0.00    +0.000 A 
ATOM      9  C   UNL     1       0.666   2.528  19.536  0.00  0.00    +0.000 A 
ATOM     10  C   UNL     1       1.775   2.082  18.845  0.00  0.00    +0.000 A 
ATOM     11  N   UNL     1       2.922   2.789  18.720  0.00  0.00    +0.000 NA
ATOM     12  C   UNL     1       4.247   6.154  19.030  0.00  0.00    +0.000 C 
ATOM     13  C   UNL     1       5.000   6.521  17.721  0.00  0.00    +0.000 C 
ENDBRANCH   1   2
BRANCH   1  15
ATOM     14  O   UNL     1       7.829   8.105  16.785  0.00  0.00    +0.000 OA
ATOM     15  C   UNL     1       7.908   7.743  17.954  0.00  0.00    +0.000 C 
ATOM     16  N   UNL     1       8.542   8.484  18.932  0.00  0.00    +0.000 N 
ATOM     17  H   UNL     1       8.413   8.152  19.884  0.00  0.00    +0.000 HD
BRANCH  16  18
ATOM     18  C   UNL     1       9.021   9.829  18.660  0.00  0.00    +0.000 C 
BRANCH  18  19
ATOM     19  C   UNL     1       9.591  10.523  19.900  0.00  0.00    +0.000 C 
BRANCH  19  20
ATOM     20  C   UNL     1      10.486  11.693  19.554  0.00  0.00    +0.000 A 
ATOM     21  C   UNL     1      10.536  12.818  20.390  0.00  0.00    +0.000 A 
ATOM     22  C   UNL     1      11.352  13.908  20.069  0.00  0.00    +0.000 A 
ATOM     23  C   UNL     1      12.126  13.885  18.914  0.00  0.00    +0.000 A 
ATOM     24  C   UNL     1      12.087  12.771  18.075  0.00  0.00    +0.000 A 
ATOM     25  C   UNL     1      11.269  11.680  18.394  0.00  0.00    +0.000 A 
ENDBRANCH  19  20
ENDBRANCH  18  19
ENDBRANCH  16  18
ENDBRANCH   1  15
TORSDOF 5
ENDMDL
MODEL 4
REMARK VINA RESULT:      -7.9      1.260      1.973
REMARK  Name = 
REMARK  5 active torsions:
REMARK  status: ('A' for Active; 'I' for Inactive)
REMARK    1  A    between atoms: C_2  and  C_3
REMARK    2  A    between atoms: C_3  and  N_4
REMARK    3  A    between atoms: N_16  and  C_17
REMARK    4  A    between atoms: C_17  and  C_18
REMARK    5  A    between atoms: C_18  and  C_19
REMARK                            x       y       z     vdW  Elec       q    Type
REMARK                         _______ _______ _______ _____ _____    ______ ____
ROOT
ATOM      1  C   UNL     1       5.721   7.000  17.018  0.00  0.00    +0.000 C 
ENDROOT
BRANCH   1   2
ATOM      2  N   UNL     1       5.653   5.527  17.201  0.00  0.00    +0.000 NA
ATOM      3  C   UNL     1       5.865   5.127  18.620  0.00  0.00    +0.000 C 
ATOM      4  C   UNL     1       4.741   5.506  19.603  0.00  0.00    +0.000 C 
ATOM      5  N   UNL     1       3.435   5.060  19.120  0.00  0.00    +0.000 N 
ATOM      6  C   UNL     1       2.725   4.142  19.864  0.00  0.00    +0.000 A 
ATOM      7  C   UNL     1       1.335   4.061  19.770  0.00  0.00    +0.000 A 
ATOM      8  C   UNL     1       0.623   3.188  20.592  0.00  0.00    +0.000 A 
ATOM      9  C   UNL     1       1.311   2.393  21.491  0.00  0.00    +0.000 A 
ATOM     10  C   UNL     1       2.687   2.510  21.526  0.00  0.00    +0.000 A 
ATOM     11  N   UNL     1       3.391   3.362  20.745  0.00  0.00    +0.000 NA
ATOM     12  C   UNL     1       3.119   5.348  17.720  0.00  0.00    +0.000 C 
ATOM     13  C   UNL     1       4.317   5.013  16.788  0.00  0.00    +0.000 C 
ENDBRANCH   1   2
BRANCH   1  15
ATOM     14  O   UNL     1       8.065   6.965  16.418  0.00  0.00    +0.000 OA
ATOM     15  C   UNL     1       7.166   7.536  17.028  0.00  0.00    +0.000 C 
ATOM     16  N   UNL     1       7.374   8.662  17.799  0.00  0.00    +0.000 N 
ATOM     17  H   UNL     1       6.533   9.125  18.132  0.00  0.00    +0.000 HD
BRANCH  16  18
ATOM     18  C   UNL     1       8.661   9.338  17.804  0.00  0.00    +0.000 C 
BRANCH  18  19
ATOM     19  C   UNL     1       8.956  10.051  19.127  0.00  0.00    +0.000 C 
BRANCH  19  20
ATOM     20  C   UNL     1      10.082  11.054  19.010  0.00  0.00    +0.000 A 
ATOM     21  C   UNL     1      10.698  11.565  20.163  0.00  0.00    +0.000 A 
ATOM     22  C   UNL     1      11.732  12.501  20.061  0.00  0.00    +0.000 A 
ATOM     23  C   UNL     1      12.162  12.936  18.812  0.00  0.00    +0.000 A 
ATOM     24  C   UNL     1      11.559  12.434  17.658  0.00  0.00    +0.000 A 
ATOM     25  C   UNL     1      10.523  11.497  17.758  0.00  0.00    +0.000 A 
ENDBRANCH  19  20
ENDBRANCH  18  19
ENDBRANCH  16  18
ENDBRANCH   1  15
TORSDOF 5
ENDMDL
MODEL 5
REMARK VINA RESULT:      -7.9      4.396      7.634
REMARK  Name = 
REMARK  5 active torsions:
REMARK  status: ('A' for Active; 'I' for Inactive)
REMARK    1  A    between atoms: C_2  and  C_3
REMARK    2  A    between atoms: C_3  and  N_4
REMARK    3  A    between atoms: N_16  and  C_17
REMARK    4  A    between atoms: C_17  and  C_18
REMARK    5  A    between atoms: C_18  and  C_19
REMARK                            x       y       z     vdW  Elec       q    Type
REMARK                         _______ _______ _______ _____ _____    ______ ____
ROOT
ATOM      1  C   UNL     1       5.194   5.244  19.273  0.00  0.00    +0.000 C 
ENDROOT
BRANCH   1   2
ATOM      2  N   UNL     1       5.313   6.189  18.132  0.00  0.00    +0.000 NA
ATOM      3  C   UNL     1       6.691   6.218  17.567  0.00  0.00    +0.000 C 
ATOM      4  C   UNL     1       7.143   4.946  16.825  0.00  0.00    +0.000 C 
ATOM      5  N   UNL     1       6.168   4.542  15.814  0.00  0.00    +0.000 N 
ATOM      6  C   UNL     1       6.550   4.521  14.489  0.00  0.00    +0.000 A 
ATOM      7  C   UNL     1       5.903   3.697  13.567  0.00  0.00    +0.000 A 
ATOM      8  C   UNL     1       6.354   3.621  12.250  0.00  0.00    +0.000 A 
ATOM      9  C   UNL     1       7.443   4.383  11.864  0.00  0.00    +0.000 A 
ATOM     10  C   UNL     1       8.031   5.189  12.820  0.00  0.00    +0.000 A 
ATOM     11  N   UNL     1       7.613   5.263  14.105  0.00  0.00    +0.000 NA
ATOM     12  C   UNL     1       4.764   4.519  16.227  0.00  0.00    +0.000 C 
ATOM     13  C   UNL     1       4.389   5.794  17.032  0.00  0.00    +0.000 C 
ENDBRANCH   1   2
BRANCH   1  15
ATOM     14  O   UNL     1       3.227   4.045  20.012  0.00  0.00    +0.000 OA
ATOM     15  C   UNL     1       3.753   5.134  19.807  0.00  0.00    +0.000 C 
ATOM     16  N   UNL     1       3.097   6.335  19.990  0.00  0.00    +0.000 N 
ATOM     17  H   UNL     1       3.680   7.165  19.930  0.00  0.00    +0.000 HD
BRANCH  16  18
ATOM     18  C   UNL     1       1.777   6.382  20.598  0.00  0.00    +0.000 C 
BRANCH  18  19
ATOM     19  C   UNL     1       1.489   7.713  21.298  0.00  0.00    +0.000 C 
BRANCH  19  20
ATOM     20  C   UNL     1       0.928   8.756  20.358  0.00  0.00    +0.000 A 
ATOM     21  C   UNL     1       1.427   8.876  19.052  0.00  0.00    +0.000 A 
ATOM     22  C   UNL     1       0.920   9.847  18.182  0.00  0.00    +0.000 A 
ATOM     23  C   UNL     1      -0.088  10.707  18.605  0.00  0.00    +0.000 A 
ATOM     24  C   UNL     1      -0.595  10.597  19.900  0.00  0.00    +0.000 A 
ATOM     25  C   UNL     1      -0.088   9.626  20.772  0.00  0.00    +0.000 A 
ENDBRANCH  19  20
ENDBRANCH  18  19
ENDBRANCH  16  18
ENDBRANCH   1  15
TORSDOF 5
ENDMDL
MODEL 6
REMARK VINA RESULT:      -7.8      1.512      2.052
REMARK  Name = 
REMARK  5 active torsions:
REMARK  status: ('A' for Active; 'I' for Inactive)
REMARK    1  A    between atoms: C_2  and  C_3
REMARK    2  A    between atoms: C_3  and  N_4
REMARK    3  A    between atoms: N_16  and  C_17
REMARK    4  A    between atoms: C_17  and  C_18
REMARK    5  A    between atoms: C_18  and  C_19
REMARK                            x       y       z     vdW  Elec       q    Type
REMARK                         _______ _______ _______ _____ _____    ______ ____
ROOT
ATOM      1  C   UNL     1       7.895   6.866  18.492  0.00  0.00    +0.000 C 
ENDROOT
BRANCH   1   2
ATOM      2  N   UNL     1       7.224   6.096  17.412  0.00  0.00    +0.000 NA
ATOM      3  C   UNL     1       7.081   4.654  17.756  0.00  0.00    +0.000 C 
ATOM      4  C   UNL     1       6.089   4.324  18.888  0.00  0.00    +0.000 C 
ATOM      5  N   UNL     1       4.785   4.941  18.652  0.00  0.00    +0.000 N 
ATOM      6  C   UNL     1       3.682   4.129  18.493  0.00  0.00    +0.000 A 
ATOM      7  C   UNL     1       2.398   4.597  18.776  0.00  0.00    +0.000 A 
ATOM      8  C   UNL     1       1.301   3.741  18.694  0.00  0.00    +0.000 A 
ATOM      9  C   UNL     1       1.498   2.424  18.316  0.00  0.00    +0.000 A 
ATOM     10  C   UNL     1       2.791   2.026  18.035  0.00  0.00    +0.000 A 
ATOM     11  N   UNL     1       3.867   2.842  18.123  0.00  0.00    +0.000 NA
ATOM     12  C   UNL     1       4.786   6.350  18.257  0.00  0.00    +0.000 C 
ATOM     13  C   UNL     1       5.856   6.633  17.166  0.00  0.00    +0.000 C 
ENDBRANCH   1   2
BRANCH   1  15
ATOM     14  O   UNL     1       7.927   8.743  16.966  0.00  0.00    +0.000 OA
ATOM     15  C   UNL     1       8.203   8.319  18.084  0.00  0.00    +0.000 C 
ATOM     16  N   UNL     1       8.843   9.080  19.042  0.00  0.00    +0.000 N 
ATOM     17  H   UNL     1       8.883   8.669  19.971  0.00  0.00    +0.000 HD
BRANCH  16  18
ATOM     18  C   UNL     1       9.087  10.497  18.832  0.00  0.00    +0.000 C 
BRANCH  18  19
ATOM     19  C   UNL     1      10.394  10.979  19.469  0.00  0.00    +0.000 C 
BRANCH  19  20
ATOM     20  C   UNL     1      10.915  12.252  18.840  0.00  0.00    +0.000 A 
ATOM     21  C   UNL     1      11.109  12.329  17.453  0.00  0.00    +0.000 A 
ATOM     22  C   UNL     1      11.602  13.500  16.867  0.00  0.00    +0.000 A 
ATOM     23  C   UNL     1      11.905  14.603  17.657  0.00  0.00    +0.000 A 
ATOM     24  C   UNL     1      11.715  14.540  19.038  0.00  0.00    +0.000 A 
ATOM     25  C   UNL     1      11.223  13.369  19.626  0.00  0.00    +0.000 A 
ENDBRANCH  19  20
ENDBRANCH  18  19
ENDBRANCH  16  18
ENDBRANCH   1  15
TORSDOF 5
ENDMDL
MODEL 7
REMARK VINA RESULT:      -7.7      1.174      1.853
REMARK  Name = 
REMARK  5 active torsions:
REMARK  status: ('A' for Active; 'I' for Inactive)
REMARK    1  A    between atoms: C_2  and  C_3
REMARK    2  A    between atoms: C_3  and  N_4
REMARK    3  A    between atoms: N_16  and  C_17
REMARK    4  A    between atoms: C_17  and  C_18
REMARK    5  A    between atoms: C_18  and  C_19
REMARK                            x       y       z     vdW  Elec       q    Type
REMARK                         _______ _______ _______ _____ _____    ______ ____
ROOT
ATOM      1  C   UNL     1       6.365   6.185  16.584  0.00  0.00    +0.000 C 
ENDROOT
BRANCH   1   2
ATOM      2  N   UNL     1       6.133   4.767  16.965  0.00  0.00    +0.000 NA
ATOM      3  C   UNL     1       6.206   4.563  18.439  0.00  0.00    +0.000 C 
ATOM      4  C   UNL     1       5.063   5.184  19.264  0.00  0.00    +0.000 C 
ATOM      5  N   UNL     1       3.754   4.795  18.742  0.00  0.00    +0.000 N 
ATOM      6  C   UNL     1       2.905   4.066  19.547  0.00  0.00    +0.000 A 
ATOM      7  C   UNL     1       1.524   4.100  19.352  0.00  0.00    +0.000 A 
ATOM      8  C   UNL     1       0.671   3.427  20.226  0.00  0.00    +0.000 A 
ATOM      9  C   UNL     1       1.212   2.713  21.282  0.00  0.00    +0.000 A 
ATOM     10  C   UNL     1       2.587   2.706  21.412  0.00  0.00    +0.000 A 
ATOM     11  N   UNL     1       3.426   3.365  20.580  0.00  0.00    +0.000 NA
ATOM     12  C   UNL     1       3.566   4.901  17.294  0.00  0.00    +0.000 C 
ATOM     13  C   UNL     1       4.783   4.324  16.520  0.00  0.00    +0.000 C 
ENDBRANCH   1   2
BRANCH   1  15
ATOM     14  O   UNL     1       8.215   6.221  18.143  0.00  0.00    +0.000 OA
ATOM     15  C   UNL     1       7.429   6.872  17.462  0.00  0.00    +0.000 C 
ATOM     16  N   UNL     1       7.400   8.252  17.456  0.00  0.00    +0.000 N 
ATOM     17  H   UNL     1       6.808   8.674  16.745  0.00  0.00    +0.000 HD
BRANCH  16  18
ATOM     18  C   UNL     1       8.419   9.025  18.146  0.00  0.00    +0.000 C 
BRANCH  18  19
ATOM     19  C   UNL     1       8.488  10.480  17.673  0.00  0.00    +0.000 C 
BRANCH  19  20
ATOM     20  C   UNL     1       9.221  11.376  18.646  0.00  0.00    +0.000 A 
ATOM     21  C   UNL     1       9.603  10.891  19.906  0.00  0.00    +0.000 A 
ATOM     22  C   UNL     1      10.271  11.719  20.815  0.00  0.00    +0.000 A 
ATOM     23  C   UNL     1      10.562  13.036  20.477  0.00  0.00    +0.000 A 
ATOM     24  C   UNL     1      10.189  13.531  19.227  0.00  0.00    +0.000 A 
ATOM     25  C   UNL     1       9.520  12.703  18.316  0.00  0.00    +0.000 A 
ENDBRANCH  19  20
ENDBRANCH  18  19
ENDBRANCH  16  18
ENDBRANCH   1  15
TORSDOF 5
ENDMDL
MODEL 8
REMARK VINA RESULT:      -7.6      4.543      7.926
REMARK  Name = 
REMARK  5 active torsions:
REMARK  status: ('A' for Active; 'I' for Inactive)
REMARK    1  A    between atoms: C_2  and  C_3
REMARK    2  A    between atoms: C_3  and  N_4
REMARK    3  A    between atoms: N_16  and  C_17
REMARK    4  A    between atoms: C_17  and  C_18
REMARK    5  A    between atoms: C_18  and  C_19
REMARK                            x       y       z     vdW  Elec       q    Type
REMARK                         _______ _______ _______ _____ _____    ______ ____
ROOT
ATOM      1  C   UNL     1       4.703   5.307  19.211  0.00  0.00    +0.000 C 
ENDROOT
BRANCH   1   2
ATOM      2  N   UNL     1       4.955   6.247  18.088  0.00  0.00    +0.000 NA
ATOM      3  C   UNL     1       6.374   6.215  17.636  0.00  0.00    +0.000 C 
ATOM      4  C   UNL     1       6.827   4.925  16.927  0.00  0.00    +0.000 C 
ATOM      5  N   UNL     1       5.919   4.567  15.838  0.00  0.00    +0.000 N 
ATOM      6  C   UNL     1       6.406   4.531  14.548  0.00  0.00    +0.000 A 
ATOM      7  C   UNL     1       5.798   3.739  13.573  0.00  0.00    +0.000 A 
ATOM      8  C   UNL     1       6.351   3.645  12.296  0.00  0.00    +0.000 A 
ATOM      9  C   UNL     1       7.501   4.357  12.003  0.00  0.00    +0.000 A 
ATOM     10  C   UNL     1       8.045   5.134  13.007  0.00  0.00    +0.000 A 
ATOM     11  N   UNL     1       7.529   5.225  14.254  0.00  0.00    +0.000 NA
ATOM     12  C   UNL     1       4.487   4.607  16.136  0.00  0.00    +0.000 C 
ATOM     13  C   UNL     1       4.106   5.897  16.915  0.00  0.00    +0.000 C 
ENDBRANCH   1   2
BRANCH   1  15
ATOM     14  O   UNL     1       2.800   4.746  20.597  0.00  0.00    +0.000 OA
ATOM     15  C   UNL     1       3.391   5.612  19.960  0.00  0.00    +0.000 C 
ATOM     16  N   UNL     1       2.919   6.902  19.822  0.00  0.00    +0.000 N 
ATOM     17  H   UNL     1       3.566   7.562  19.399  0.00  0.00    +0.000 HD
BRANCH  16  18
ATOM     18  C   UNL     1       1.757   7.357  20.568  0.00  0.00    +0.000 C 
BRANCH  18  19
ATOM     19  C   UNL     1       1.129   8.625  19.982  0.00  0.00    +0.000 C 
BRANCH  19  20
ATOM     20  C   UNL     1       0.400   9.449  21.020  0.00  0.00    +0.000 A 
ATOM     21  C   UNL     1       0.005  10.764  20.733  0.00  0.00    +0.000 A 
ATOM     22  C   UNL     1      -0.659  11.534  21.693  0.00  0.00    +0.000 A 
ATOM     23  C   UNL     1      -0.936  11.001  22.948  0.00  0.00    +0.000 A 
ATOM     24  C   UNL     1      -0.550   9.694  23.246  0.00  0.00    +0.000 A 
ATOM     25  C   UNL     1       0.116   8.922  22.286  0.00  0.00    +0.000 A 
ENDBRANCH  19  20
ENDBRANCH  18  19
ENDBRANCH  16  18
ENDBRANCH   1  15
TORSDOF 5
ENDMDL
MODEL 9
REMARK VINA RESULT:      -7.6      1.804      2.429
REMARK  Name = 
REMARK  5 active torsions:
REMARK  status: ('A' for Active; 'I' for Inactive)
REMARK    1  A    between atoms: C_2  and  C_3
REMARK    2  A    between atoms: C_3  and  N_4
REMARK    3  A    between atoms: N_16  and  C_17
REMARK    4  A    between atoms: C_17  and  C_18
REMARK    5  A    between atoms: C_18  and  C_19
REMARK                            x       y       z     vdW  Elec       q    Type
REMARK                         _______ _______ _______ _____ _____    ______ ____
ROOT
ATOM      1  C   UNL     1       8.021   6.927  18.454  0.00  0.00    +0.000 C 
ENDROOT
BRANCH   1   2
ATOM      2  N   UNL     1       7.379   6.150  17.362  0.00  0.00    +0.000 NA
ATOM      3  C   UNL     1       7.219   4.712  17.715  0.00  0.00    +0.000 C 
ATOM      4  C   UNL     1       6.193   4.398  18.819  0.00  0.00    +0.000 C 
ATOM      5  N   UNL     1       4.898   5.018  18.538  0.00  0.00    +0.000 N 
ATOM      6  C   UNL     1       3.797   4.209  18.353  0.00  0.00    +0.000 A 
ATOM      7  C   UNL     1       2.508   4.686  18.593  0.00  0.00    +0.000 A 
ATOM      8  C   UNL     1       1.410   3.833  18.486  0.00  0.00    +0.000 A 
ATOM      9  C   UNL     1       1.612   2.512  18.126  0.00  0.00    +0.000 A 
ATOM     10  C   UNL     1       2.911   2.106  17.888  0.00  0.00    +0.000 A 
ATOM     11  N   UNL     1       3.987   2.917  18.001  0.00  0.00    +0.000 NA
ATOM     12  C   UNL     1       4.918   6.423  18.130  0.00  0.00    +0.000 C 
ATOM     13  C   UNL     1       6.022   6.690  17.069  0.00  0.00    +0.000 C 
ENDBRANCH   1   2
BRANCH   1  15
ATOM     14  O   UNL     1       7.667   8.903  17.103  0.00  0.00    +0.000 OA
ATOM     15  C   UNL     1       8.175   8.421  18.111  0.00  0.00    +0.000 C 
ATOM     16  N   UNL     1       8.952   9.152  18.987  0.00  0.00    +0.000 N 
ATOM     17  H   UNL     1       9.192   8.682  19.856  0.00  0.00    +0.000 HD
BRANCH  16  18
ATOM     18  C   UNL     1       9.084  10.593  18.848  0.00  0.00    +0.000 C 
BRANCH  18  19
ATOM     19  C   UNL     1      10.203  11.001  17.885  0.00  0.00    +0.000 C 
BRANCH  19  20
ATOM     20  C   UNL     1      10.335  12.501  17.746  0.00  0.00    +0.000 A 
ATOM     21  C   UNL     1       9.288  13.345  18.145  0.00  0.00    +0.000 A 
ATOM     22  C   UNL     1       9.400  14.733  18.008  0.00  0.00    +0.000 A 
ATOM     23  C   UNL     1      10.556  15.291  17.473  0.00  0.00    +0.000 A 
ATOM     24  C   UNL     1      11.605  14.464  17.073  0.00  0.00    +0.000 A 
ATOM     25  C   UNL     1      11.494  13.074  17.209  0.00  0.00    +0.000 A 
ENDBRANCH  19  20
ENDBRANCH  18  19
ENDBRANCH  16  18
ENDBRANCH   1  15
TORSDOF 5
ENDMDL
