MODEL 1
REMARK VINA RESULT:      -6.3      0.000      0.000
REMARK  Name = 
REMARK  11 active torsions:
REMARK  status: ('A' for Active; 'I' for Inactive)
REMARK    1  A    between atoms: C_1  and  N_2
REMARK    2  A    between atoms: N_2  and  C_3
REMARK    3  A    between atoms: N_2  and  C_4
REMARK    4  A    between atoms: C_4  and  C_5
REMARK    5  A    between atoms: C_5  and  C_6
REMARK    6  A    between atoms: C_6  and  N_7
REMARK    7  A    between atoms: N_7  and  C_8
REMARK    8  A    between atoms: C_8  and  C_9
REMARK    9  A    between atoms: C_9  and  C_10
REMARK   10  A    between atoms: C_10  and  N_11
REMARK   11  A    between atoms: C_12  and  C_14
REMARK                            x       y       z     vdW  Elec       q    Type
REMARK                         _______ _______ _______ _____ _____    ______ ____
ROOT
ATOM      1  C   UNL     1       6.344   4.931  18.494  0.00  0.00    +0.000 C 
ENDROOT
BRANCH   1   2
ATOM      2  N   UNL     1       6.433   4.619  17.089  0.00  0.00    +0.000 N 
ATOM      3  C   UNL     1       6.970   5.495  16.175  0.00  0.00    +0.000 C 
ATOM      4  O   UNL     1       7.424   6.596  16.471  0.00  0.00    +0.000 OA
ATOM      5  H   UNL     1       6.139   3.712  16.739  0.00  0.00    +0.000 HD
BRANCH   3   6
ATOM      6  C   UNL     1       6.955   5.009  14.763  0.00  0.00    +0.000 A 
ATOM      7  C   UNL     1       6.006   4.068  14.386  0.00  0.00    +0.000 A 
ATOM      8  C   UNL     1       6.017   3.622  13.067  0.00  0.00    +0.000 A 
ATOM      9  C   UNL     1       6.971   4.125  12.189  0.00  0.00    +0.000 A 
ATOM     10  C   UNL     1       7.883   5.059  12.656  0.00  0.00    +0.000 A 
ATOM     11  N   UNL     1       7.902   5.522  13.928  0.00  0.00    +0.000 NA
ENDBRANCH   3   6
ENDBRANCH   1   2
BRANCH   1  12
ATOM     12  C   UNL     1       4.979   4.568  19.073  0.00  0.00    +0.000 C 
BRANCH  12  13
ATOM     13  C   UNL     1       3.980   4.155  17.992  0.00  0.00    +0.000 C 
BRANCH  13  14
ATOM     14  N   UNL     1       4.215   2.772  17.571  0.00  0.00    +0.000 NA
ATOM     15  H   UNL     1       3.997   2.672  16.581  0.00  0.00    +0.000 HD
BRANCH  14  16
ATOM     16  C   UNL     1       3.354   1.842  18.304  0.00  0.00    +0.000 C 
BRANCH  16  17
ATOM     17  C   UNL     1       1.971   2.480  18.446  0.00  0.00    +0.000 C 
BRANCH  17  18
ATOM     18  C   UNL     1       1.263   2.046  19.735  0.00  0.00    +0.000 C 
BRANCH  18  20
ATOM     19  C   UNL     1       2.206   3.063  21.741  0.00  0.00    +0.000 C 
ATOM     20  N   UNL     1       1.141   3.117  20.738  0.00  0.00    +0.000 NA
ATOM     21  C   UNL     1       1.141   4.426  20.082  0.00  0.00    +0.000 C 
ENDBRANCH  18  20
ENDBRANCH  17  18
ENDBRANCH  16  17
ENDBRANCH  14  16
ENDBRANCH  13  14
ENDBRANCH  12  13
ENDBRANCH   1  12
TORSDOF 9
ENDMDL
MODEL 2
REMARK VINA RESULT:      -5.9      1.143      1.393
REMARK  Name = 
REMARK  11 active torsions:
REMARK  status: ('A' for Active; 'I' for Inactive)
REMARK    1  A    between atoms: C_1  and  N_2
REMARK    2  A    between atoms: N_2  and  C_3
REMARK    3  A    between atoms: N_2  and  C_4
REMARK    4  A    between atoms: C_4  and  C_5
REMARK    5  A    between atoms: C_5  and  C_6
REMARK    6  A    between atoms: C_6  and  N_7
REMARK    7  A    between atoms: N_7  and  C_8
REMARK    8  A    between atoms: C_8  and  C_9
REMARK    9  A    between atoms: C_9  and  C_10
REMARK   10  A    between atoms: C_10  and  N_11
REMARK   11  A    between atoms: C_12  and  C_14
REMARK                            x       y       z     vdW  Elec       q    Type
REMARK                         _______ _______ _______ _____ _____    ______ ____
ROOT
ATOM      1  C   UNL     1       6.307   4.646  18.335  0.00  0.00    +0.000 C 
ENDROOT
BRANCH   1   2
ATOM      2  N   UNL     1       6.390   4.410  16.914  0.00  0.00    +0.000 N 
ATOM      3  C   UNL     1       7.039   5.274  16.063  0.00  0.00    +0.000 C 
ATOM      4  O   UNL     1       7.606   6.297  16.433  0.00  0.00    +0.000 OA
ATOM      5  H   UNL     1       6.005   3.564  16.506  0.00  0.00    +0.000 HD
BRANCH   3   6
ATOM      6  C   UNL     1       7.000   4.876  14.625  0.00  0.00    +0.000 A 
ATOM      7  C   UNL     1       6.123   3.876  14.227  0.00  0.00    +0.000 A 
ATOM      8  C   UNL     1       6.110   3.516  12.882  0.00  0.00    +0.000 A 
ATOM      9  C   UNL     1       6.970   4.159  11.998  0.00  0.00    +0.000 A 
ATOM     10  C   UNL     1       7.815   5.144  12.487  0.00  0.00    +0.000 A 
ATOM     11  N   UNL     1       7.853   5.527  13.785  0.00  0.00    +0.000 NA
ENDBRANCH   3   6
ENDBRANCH   1   2
BRANCH   1  12
ATOM     12  C   UNL     1       4.956   5.231  18.737  0.00  0.00    +0.000 C 
BRANCH  12  13
ATOM     13  C   UNL     1       3.930   5.157  17.606  0.00  0.00    +0.000 C 
BRANCH  13  14
ATOM     14  N   UNL     1       2.606   5.567  18.079  0.00  0.00    +0.000 NA
ATOM     15  H   UNL     1       2.593   5.575  19.097  0.00  0.00    +0.000 HD
BRANCH  14  16
ATOM     16  C   UNL     1       1.572   4.631  17.635  0.00  0.00    +0.000 C 
BRANCH  16  17
ATOM     17  C   UNL     1       1.677   3.362  18.483  0.00  0.00    +0.000 C 
BRANCH  17  18
ATOM     18  C   UNL     1       1.051   3.541  19.871  0.00  0.00    +0.000 C 
BRANCH  18  20
ATOM     19  C   UNL     1       1.424   2.431  22.010  0.00  0.00    +0.000 C 
ATOM     20  N   UNL     1       1.988   3.308  20.983  0.00  0.00    +0.000 NA
ATOM     21  C   UNL     1       3.241   2.742  20.478  0.00  0.00    +0.000 C 
ENDBRANCH  18  20
ENDBRANCH  17  18
ENDBRANCH  16  17
ENDBRANCH  14  16
ENDBRANCH  13  14
ENDBRANCH  12  13
ENDBRANCH   1  12
TORSDOF 9
ENDMDL
MODEL 3
REMARK VINA RESULT:      -5.9      0.837      1.166
REMARK  Name = 
REMARK  11 active torsions:
REMARK  status: ('A' for Active; 'I' for Inactive)
REMARK    1  A    between atoms: C_1  and  N_2
REMARK    2  A    between atoms: N_2  and  C_3
REMARK    3  A    between atoms: N_2  and  C_4
REMARK    4  A    between atoms: C_4  and  C_5
REMARK    5  A    between atoms: C_5  and  C_6
REMARK    6  A    between atoms: C_6  and  N_7
REMARK    7  A    between atoms: N_7  and  C_8
REMARK    8  A    between atoms: C_8  and  C_9
REMARK    9  A    between atoms: C_9  and  C_10
REMARK   10  A    between atoms: C_10  and  N_11
REMARK   11  A    between atoms: C_12  and  C_14
REMARK                            x       y       z     vdW  Elec       q    Type
REMARK                         _______ _______ _______ _____ _____    ______ ____
ROOT
ATOM      1  C   UNL     1       6.315   5.333  18.407  0.00  0.00    +0.000 C 
ENDROOT
BRANCH   1   2
ATOM      2  N   UNL     1       6.519   4.908  17.044  0.00  0.00    +0.000 N 
ATOM      3  C   UNL     1       6.205   5.709  15.971  0.00  0.00    +0.000 C 
ATOM      4  O   UNL     1       5.744   6.841  16.077  0.00  0.00    +0.000 OA
ATOM      5  H   UNL     1       6.948   4.011  16.839  0.00  0.00    +0.000 HD
BRANCH   3   6
ATOM      6  C   UNL     1       6.462   5.090  14.637  0.00  0.00    +0.000 A 
ATOM      7  C   UNL     1       5.562   4.155  14.144  0.00  0.00    +0.000 A 
ATOM      8  C   UNL     1       5.827   3.584  12.902  0.00  0.00    +0.000 A 
ATOM      9  C   UNL     1       6.973   3.963  12.211  0.00  0.00    +0.000 A 
ATOM     10  C   UNL     1       7.817   4.903  12.784  0.00  0.00    +0.000 A 
ATOM     11  N   UNL     1       7.592   5.485  13.985  0.00  0.00    +0.000 NA
ENDBRANCH   3   6
ENDBRANCH   1   2
BRANCH   1  12
ATOM     12  C   UNL     1       5.401   4.379  19.171  0.00  0.00    +0.000 C 
BRANCH  12  13
ATOM     13  C   UNL     1       4.541   3.526  18.238  0.00  0.00    +0.000 C 
BRANCH  13  14
ATOM     14  N   UNL     1       3.444   4.316  17.676  0.00  0.00    +0.000 NA
ATOM     15  H   UNL     1       3.063   4.932  18.393  0.00  0.00    +0.000 HD
BRANCH  14  16
ATOM     16  C   UNL     1       2.353   3.454  17.216  0.00  0.00    +0.000 C 
BRANCH  16  17
ATOM     17  C   UNL     1       2.259   2.254  18.159  0.00  0.00    +0.000 C 
BRANCH  17  18
ATOM     18  C   UNL     1       1.283   2.502  19.315  0.00  0.00    +0.000 C 
BRANCH  18  20
ATOM     19  C   UNL     1       1.288   4.655  20.462  0.00  0.00    +0.000 C 
ATOM     20  N   UNL     1       1.850   3.304  20.413  0.00  0.00    +0.000 NA
ATOM     21  C   UNL     1       1.636   2.628  21.695  0.00  0.00    +0.000 C 
ENDBRANCH  18  20
ENDBRANCH  17  18
ENDBRANCH  16  17
ENDBRANCH  14  16
ENDBRANCH  13  14
ENDBRANCH  12  13
ENDBRANCH   1  12
TORSDOF 9
ENDMDL
MODEL 4
REMARK VINA RESULT:      -5.9      2.680      4.235
REMARK  Name = 
REMARK  11 active torsions:
REMARK  status: ('A' for Active; 'I' for Inactive)
REMARK    1  A    between atoms: C_1  and  N_2
REMARK    2  A    between atoms: N_2  and  C_3
REMARK    3  A    between atoms: N_2  and  C_4
REMARK    4  A    between atoms: C_4  and  C_5
REMARK    5  A    between atoms: C_5  and  C_6
REMARK    6  A    between atoms: C_6  and  N_7
REMARK    7  A    between atoms: N_7  and  C_8
REMARK    8  A    between atoms: C_8  and  C_9
REMARK    9  A    between atoms: C_9  and  C_10
REMARK   10  A    between atoms: C_10  and  N_11
REMARK   11  A    between atoms: C_12  and  C_14
REMARK                            x       y       z     vdW  Elec       q    Type
REMARK                         _______ _______ _______ _____ _____    ______ ____
ROOT
ATOM      1  C   UNL     1       3.694   2.302  17.713  0.00  0.00    +0.000 C 
ENDROOT
BRANCH   1   2
ATOM      2  N   UNL     1       4.644   3.335  18.049  0.00  0.00    +0.000 N 
ATOM      3  C   UNL     1       5.321   4.050  17.089  0.00  0.00    +0.000 C 
ATOM      4  O   UNL     1       5.170   3.884  15.882  0.00  0.00    +0.000 OA
ATOM      5  H   UNL     1       4.805   3.597  19.017  0.00  0.00    +0.000 HD
BRANCH   3   6
ATOM      6  C   UNL     1       6.280   5.061  17.626  0.00  0.00    +0.000 A 
ATOM      7  C   UNL     1       6.498   6.229  16.909  0.00  0.00    +0.000 A 
ATOM      8  C   UNL     1       7.404   7.153  17.425  0.00  0.00    +0.000 A 
ATOM      9  C   UNL     1       8.052   6.871  18.623  0.00  0.00    +0.000 A 
ATOM     10  C   UNL     1       7.773   5.676  19.268  0.00  0.00    +0.000 A 
ATOM     11  N   UNL     1       6.896   4.756  18.803  0.00  0.00    +0.000 NA
ENDBRANCH   3   6
ENDBRANCH   1   2
BRANCH   1  12
ATOM     12  C   UNL     1       2.268   2.840  17.643  0.00  0.00    +0.000 C 
BRANCH  12  13
ATOM     13  C   UNL     1       1.362   2.227  18.712  0.00  0.00    +0.000 C 
BRANCH  13  14
ATOM     14  N   UNL     1       0.931   3.245  19.673  0.00  0.00    +0.000 NA
ATOM     15  H   UNL     1       0.934   4.160  19.227  0.00  0.00    +0.000 HD
BRANCH  14  16
ATOM     16  C   UNL     1       1.843   3.312  20.816  0.00  0.00    +0.000 C 
BRANCH  16  17
ATOM     17  C   UNL     1       2.114   4.785  21.128  0.00  0.00    +0.000 C 
BRANCH  17  18
ATOM     18  C   UNL     1       2.962   5.459  20.043  0.00  0.00    +0.000 C 
BRANCH  18  20
ATOM     19  C   UNL     1       1.942   7.672  20.134  0.00  0.00    +0.000 C 
ATOM     20  N   UNL     1       2.251   6.510  19.297  0.00  0.00    +0.000 NA
ATOM     21  C   UNL     1       3.041   6.929  18.137  0.00  0.00    +0.000 C 
ENDBRANCH  18  20
ENDBRANCH  17  18
ENDBRANCH  16  17
ENDBRANCH  14  16
ENDBRANCH  13  14
ENDBRANCH  12  13
ENDBRANCH   1  12
TORSDOF 9
ENDMDL
MODEL 5
REMARK VINA RESULT:      -5.8      1.295      1.558
REMARK  Name = 
REMARK  11 active torsions:
REMARK  status: ('A' for Active; 'I' for Inactive)
REMARK    1  A    between atoms: C_1  and  N_2
REMARK    2  A    between atoms: N_2  and  C_3
REMARK    3  A    between atoms: N_2  and  C_4
REMARK    4  A    between atoms: C_4  and  C_5
REMARK    5  A    between atoms: C_5  and  C_6
REMARK    6  A    between atoms: C_6  and  N_7
REMARK    7  A    between atoms: N_7  and  C_8
REMARK    8  A    between atoms: C_8  and  C_9
REMARK    9  A    between atoms: C_9  and  C_10
REMARK   10  A    between atoms: C_10  and  N_11
REMARK   11  A    between atoms: C_12  and  C_14
REMARK                            x       y       z     vdW  Elec       q    Type
REMARK                         _______ _______ _______ _____ _____    ______ ____
ROOT
ATOM      1  C   UNL     1       5.285   6.939  17.306  0.00  0.00    +0.000 C 
ENDROOT
BRANCH   1   2
ATOM      2  N   UNL     1       5.566   6.328  16.029  0.00  0.00    +0.000 N 
ATOM      3  C   UNL     1       6.636   5.487  15.837  0.00  0.00    +0.000 C 
ATOM      4  O   UNL     1       7.426   5.175  16.723  0.00  0.00    +0.000 OA
ATOM      5  H   UNL     1       4.944   6.471  15.238  0.00  0.00    +0.000 HD
BRANCH   3   6
ATOM      6  C   UNL     1       6.779   4.971  14.443  0.00  0.00    +0.000 A 
ATOM      7  C   UNL     1       5.939   3.952  14.013  0.00  0.00    +0.000 A 
ATOM      8  C   UNL     1       6.098   3.481  12.712  0.00  0.00    +0.000 A 
ATOM      9  C   UNL     1       7.083   4.037  11.904  0.00  0.00    +0.000 A 
ATOM     10  C   UNL     1       7.878   5.048  12.421  0.00  0.00    +0.000 A 
ATOM     11  N   UNL     1       7.753   5.538  13.677  0.00  0.00    +0.000 NA
ENDBRANCH   3   6
ENDBRANCH   1   2
BRANCH   1  12
ATOM     12  C   UNL     1       3.974   6.434  17.903  0.00  0.00    +0.000 C 
BRANCH  12  13
ATOM     13  C   UNL     1       3.932   4.909  18.007  0.00  0.00    +0.000 C 
BRANCH  13  14
ATOM     14  N   UNL     1       5.105   4.406  18.723  0.00  0.00    +0.000 NA
ATOM     15  H   UNL     1       5.832   4.152  18.056  0.00  0.00    +0.000 HD
BRANCH  14  16
ATOM     16  C   UNL     1       4.779   3.204  19.494  0.00  0.00    +0.000 C 
BRANCH  16  17
ATOM     17  C   UNL     1       3.384   2.733  19.080  0.00  0.00    +0.000 C 
BRANCH  17  18
ATOM     18  C   UNL     1       2.502   2.405  20.290  0.00  0.00    +0.000 C 
BRANCH  18  20
ATOM     19  C   UNL     1       0.928   4.263  20.419  0.00  0.00    +0.000 C 
ATOM     20  N   UNL     1       1.101   2.836  20.143  0.00  0.00    +0.000 NA
ATOM     21  C   UNL     1       0.617   2.527  18.795  0.00  0.00    +0.000 C 
ENDBRANCH  18  20
ENDBRANCH  17  18
ENDBRANCH  16  17
ENDBRANCH  14  16
ENDBRANCH  13  14
ENDBRANCH  12  13
ENDBRANCH   1  12
TORSDOF 9
ENDMDL
MODEL 6
REMARK VINA RESULT:      -5.8      1.554      1.814
REMARK  Name = 
REMARK  11 active torsions:
REMARK  status: ('A' for Active; 'I' for Inactive)
REMARK    1  A    between atoms: C_1  and  N_2
REMARK    2  A    between atoms: N_2  and  C_3
REMARK    3  A    between atoms: N_2  and  C_4
REMARK    4  A    between atoms: C_4  and  C_5
REMARK    5  A    between atoms: C_5  and  C_6
REMARK    6  A    between atoms: C_6  and  N_7
REMARK    7  A    between atoms: N_7  and  C_8
REMARK    8  A    between atoms: C_8  and  C_9
REMARK    9  A    between atoms: C_9  and  C_10
REMARK   10  A    between atoms: C_10  and  N_11
REMARK   11  A    between atoms: C_12  and  C_14
REMARK                            x       y       z     vdW  Elec       q    Type
REMARK                         _______ _______ _______ _____ _____    ______ ____
ROOT
ATOM      1  C   UNL     1       6.146   6.735  17.666  0.00  0.00    +0.000 C 
ENDROOT
BRANCH   1   2
ATOM      2  N   UNL     1       6.291   6.278  16.305  0.00  0.00    +0.000 N 
ATOM      3  C   UNL     1       6.871   5.071  15.994  0.00  0.00    +0.000 C 
ATOM      4  O   UNL     1       7.299   4.284  16.833  0.00  0.00    +0.000 OA
ATOM      5  H   UNL     1       5.921   6.824  15.533  0.00  0.00    +0.000 HD
BRANCH   3   6
ATOM      6  C   UNL     1       6.956   4.780  14.532  0.00  0.00    +0.000 A 
ATOM      7  C   UNL     1       6.154   3.780  13.998  0.00  0.00    +0.000 A 
ATOM      8  C   UNL     1       6.257   3.519  12.634  0.00  0.00    +0.000 A 
ATOM      9  C   UNL     1       7.151   4.259  11.867  0.00  0.00    +0.000 A 
ATOM     10  C   UNL     1       7.913   5.236  12.488  0.00  0.00    +0.000 A 
ATOM     11  N   UNL     1       7.840   5.523  13.809  0.00  0.00    +0.000 NA
ENDBRANCH   3   6
ENDBRANCH   1   2
BRANCH   1  12
ATOM     12  C   UNL     1       5.080   5.947  18.422  0.00  0.00    +0.000 C 
BRANCH  12  13
ATOM     13  C   UNL     1       3.689   6.113  17.807  0.00  0.00    +0.000 C 
BRANCH  13  14
ATOM     14  N   UNL     1       2.680   5.425  18.615  0.00  0.00    +0.000 NA
ATOM     15  H   UNL     1       3.138   4.809  19.284  0.00  0.00    +0.000 HD
BRANCH  14  16
ATOM     16  C   UNL     1       1.809   4.596  17.780  0.00  0.00    +0.000 C 
BRANCH  16  17
ATOM     17  C   UNL     1       2.342   3.162  17.808  0.00  0.00    +0.000 C 
BRANCH  17  18
ATOM     18  C   UNL     1       2.137   2.495  19.173  0.00  0.00    +0.000 C 
BRANCH  18  20
ATOM     19  C   UNL     1       2.616   2.631  21.561  0.00  0.00    +0.000 C 
ATOM     20  N   UNL     1       3.077   2.955  20.209  0.00  0.00    +0.000 NA
ATOM     21  C   UNL     1       4.402   2.373  19.983  0.00  0.00    +0.000 C 
ENDBRANCH  18  20
ENDBRANCH  17  18
ENDBRANCH  16  17
ENDBRANCH  14  16
ENDBRANCH  13  14
ENDBRANCH  12  13
ENDBRANCH   1  12
TORSDOF 9
ENDMDL
MODEL 7
REMARK VINA RESULT:      -5.8      1.598      2.462
REMARK  Name = 
REMARK  11 active torsions:
REMARK  status: ('A' for Active; 'I' for Inactive)
REMARK    1  A    between atoms: C_1  and  N_2
REMARK    2  A    between atoms: N_2  and  C_3
REMARK    3  A    between atoms: N_2  and  C_4
REMARK    4  A    between atoms: C_4  and  C_5
REMARK    5  A    between atoms: C_5  and  C_6
REMARK    6  A    between atoms: C_6  and  N_7
REMARK    7  A    between atoms: N_7  and  C_8
REMARK    8  A    between atoms: C_8  and  C_9
REMARK    9  A    between atoms: C_9  and  C_10
REMARK   10  A    between atoms: C_10  and  N_11
REMARK   11  A    between atoms: C_12  and  C_14
REMARK                            x       y       z     vdW  Elec       q    Type
REMARK                         _______ _______ _______ _____ _____    ______ ____
ROOT
ATOM      1  C   UNL     1       7.412   6.871  17.544  0.00  0.00    +0.000 C 
ENDROOT
BRANCH   1   2
ATOM      2  N   UNL     1       7.397   6.170  16.283  0.00  0.00    +0.000 N 
ATOM      3  C   UNL     1       6.231   5.725  15.704  0.00  0.00    +0.000 C 
ATOM      4  O   UNL     1       5.119   5.894  16.194  0.00  0.00    +0.000 OA
ATOM      5  H   UNL     1       8.255   6.024  15.761  0.00  0.00    +0.000 HD
BRANCH   3   6
ATOM      6  C   UNL     1       6.416   4.999  14.413  0.00  0.00    +0.000 A 
ATOM      7  C   UNL     1       7.504   5.317  13.611  0.00  0.00    +0.000 A 
ATOM      8  C   UNL     1       7.650   4.634  12.407  0.00  0.00    +0.000 A 
ATOM      9  C   UNL     1       6.709   3.673  12.054  0.00  0.00    +0.000 A 
ATOM     10  C   UNL     1       5.653   3.424  12.916  0.00  0.00    +0.000 A 
ATOM     11  N   UNL     1       5.478   4.062  14.097  0.00  0.00    +0.000 NA
ENDBRANCH   3   6
ENDBRANCH   1   2
BRANCH   1  12
ATOM     12  C   UNL     1       7.772   5.949  18.705  0.00  0.00    +0.000 C 
BRANCH  12  13
ATOM     13  C   UNL     1       6.536   5.360  19.385  0.00  0.00    +0.000 C 
BRANCH  13  14
ATOM     14  N   UNL     1       6.114   4.128  18.716  0.00  0.00    +0.000 NA
ATOM     15  H   UNL     1       5.991   4.303  17.720  0.00  0.00    +0.000 HD
BRANCH  14  16
ATOM     16  C   UNL     1       4.831   3.655  19.238  0.00  0.00    +0.000 C 
BRANCH  16  17
ATOM     17  C   UNL     1       3.821   4.801  19.141  0.00  0.00    +0.000 C 
BRANCH  17  18
ATOM     18  C   UNL     1       2.597   4.571  20.035  0.00  0.00    +0.000 C 
BRANCH  18  20
ATOM     19  C   UNL     1       1.548   4.294  17.851  0.00  0.00    +0.000 C 
ATOM     20  N   UNL     1       1.392   4.152  19.300  0.00  0.00    +0.000 NA
ATOM     21  C   UNL     1       1.054   2.766  19.631  0.00  0.00    +0.000 C 
ENDBRANCH  18  20
ENDBRANCH  17  18
ENDBRANCH  16  17
ENDBRANCH  14  16
ENDBRANCH  13  14
ENDBRANCH  12  13
ENDBRANCH   1  12
TORSDOF 9
ENDMDL
MODEL 8
REMARK VINA RESULT:      -5.8      1.197      1.559
REMARK  Name = 
REMARK  11 active torsions:
REMARK  status: ('A' for Active; 'I' for Inactive)
REMARK    1  A    between atoms: C_1  and  N_2
REMARK    2  A    between atoms: N_2  and  C_3
REMARK    3  A    between atoms: N_2  and  C_4
REMARK    4  A    between atoms: C_4  and  C_5
REMARK    5  A    between atoms: C_5  and  C_6
REMARK    6  A    between atoms: C_6  and  N_7
REMARK    7  A    between atoms: N_7  and  C_8
REMARK    8  A    between atoms: C_8  and  C_9
REMARK    9  A    between atoms: C_9  and  C_10
REMARK   10  A    between atoms: C_10  and  N_11
REMARK   11  A    between atoms: C_12  and  C_14
REMARK                            x       y       z     vdW  Elec       q    Type
REMARK                         _______ _______ _______ _____ _____    ______ ____
ROOT
ATOM      1  C   UNL     1       4.748   5.530  17.550  0.00  0.00    +0.000 C 
ENDROOT
BRANCH   1   2
ATOM      2  N   UNL     1       5.176   5.265  16.198  0.00  0.00    +0.000 N 
ATOM      3  C   UNL     1       6.466   4.900  15.894  0.00  0.00    +0.000 C 
ATOM      4  O   UNL     1       7.350   4.758  16.734  0.00  0.00    +0.000 OA
ATOM      5  H   UNL     1       4.513   5.298  15.428  0.00  0.00    +0.000 HD
BRANCH   3   6
ATOM      6  C   UNL     1       6.728   4.692  14.439  0.00  0.00    +0.000 A 
ATOM      7  C   UNL     1       6.034   3.695  13.767  0.00  0.00    +0.000 A 
ATOM      8  C   UNL     1       6.301   3.513  12.412  0.00  0.00    +0.000 A 
ATOM      9  C   UNL     1       7.246   4.323  11.792  0.00  0.00    +0.000 A 
ATOM     10  C   UNL     1       7.893   5.290  12.545  0.00  0.00    +0.000 A 
ATOM     11  N   UNL     1       7.658   5.503  13.861  0.00  0.00    +0.000 NA
ENDBRANCH   3   6
ENDBRANCH   1   2
BRANCH   1  12
ATOM     12  C   UNL     1       3.610   4.609  17.978  0.00  0.00    +0.000 C 
BRANCH  12  13
ATOM     13  C   UNL     1       4.080   3.171  18.203  0.00  0.00    +0.000 C 
BRANCH  13  14
ATOM     14  N   UNL     1       4.965   3.091  19.367  0.00  0.00    +0.000 NA
ATOM     15  H   UNL     1       5.870   2.719  19.084  0.00  0.00    +0.000 HD
BRANCH  14  16
ATOM     16  C   UNL     1       4.420   2.191  20.385  0.00  0.00    +0.000 C 
BRANCH  16  17
ATOM     17  C   UNL     1       3.327   2.939  21.151  0.00  0.00    +0.000 C 
BRANCH  17  18
ATOM     18  C   UNL     1       1.967   2.241  21.046  0.00  0.00    +0.000 C 
BRANCH  18  20
ATOM     19  C   UNL     1       1.222   4.520  20.603  0.00  0.00    +0.000 C 
ATOM     20  N   UNL     1       0.897   3.096  20.505  0.00  0.00    +0.000 NA
ATOM     21  C   UNL     1       0.625   2.743  19.109  0.00  0.00    +0.000 C 
ENDBRANCH  18  20
ENDBRANCH  17  18
ENDBRANCH  16  17
ENDBRANCH  14  16
ENDBRANCH  13  14
ENDBRANCH  12  13
ENDBRANCH   1  12
TORSDOF 9
ENDMDL
MODEL 9
REMARK VINA RESULT:      -5.8      1.646      2.446
REMARK  Name = 
REMARK  11 active torsions:
REMARK  status: ('A' for Active; 'I' for Inactive)
REMARK    1  A    between atoms: C_1  and  N_2
REMARK    2  A    between atoms: N_2  and  C_3
REMARK    3  A    between atoms: N_2  and  C_4
REMARK    4  A    between atoms: C_4  and  C_5
REMARK    5  A    between atoms: C_5  and  C_6
REMARK    6  A    between atoms: C_6  and  N_7
REMARK    7  A    between atoms: N_7  and  C_8
REMARK    8  A    between atoms: C_8  and  C_9
REMARK    9  A    between atoms: C_9  and  C_10
REMARK   10  A    between atoms: C_10  and  N_11
REMARK   11  A    between atoms: C_12  and  C_14
REMARK                            x       y       z     vdW  Elec       q    Type
REMARK                         _______ _______ _______ _____ _____    ______ ____
ROOT
ATOM      1  C   UNL     1       4.964   6.922  17.269  0.00  0.00    +0.000 C 
ENDROOT
BRANCH   1   2
ATOM      2  N   UNL     1       5.388   6.378  16.002  0.00  0.00    +0.000 N 
ATOM      3  C   UNL     1       6.174   5.253  15.912  0.00  0.00    +0.000 C 
ATOM      4  O   UNL     1       6.566   4.616  16.885  0.00  0.00    +0.000 OA
ATOM      5  H   UNL     1       5.074   6.791  15.129  0.00  0.00    +0.000 HD
BRANCH   3   6
ATOM      6  C   UNL     1       6.531   4.854  14.519  0.00  0.00    +0.000 A 
ATOM      7  C   UNL     1       5.797   3.853  13.896  0.00  0.00    +0.000 A 
ATOM      8  C   UNL     1       6.154   3.491  12.600  0.00  0.00    +0.000 A 
ATOM      9  C   UNL     1       7.225   4.133  11.986  0.00  0.00    +0.000 A 
ATOM     10  C   UNL     1       7.903   5.118  12.688  0.00  0.00    +0.000 A 
ATOM     11  N   UNL     1       7.583   5.503  13.946  0.00  0.00    +0.000 NA
ENDBRANCH   3   6
ENDBRANCH   1   2
BRANCH   1  12
ATOM     12  C   UNL     1       3.788   6.148  17.857  0.00  0.00    +0.000 C 
BRANCH  12  13
ATOM     13  C   UNL     1       4.058   5.678  19.288  0.00  0.00    +0.000 C 
BRANCH  13  14
ATOM     14  N   UNL     1       3.020   6.168  20.198  0.00  0.00    +0.000 NA
ATOM     15  H   UNL     1       3.395   6.233  21.143  0.00  0.00    +0.000 HD
BRANCH  14  16
ATOM     16  C   UNL     1       1.880   5.251  20.241  0.00  0.00    +0.000 C 
BRANCH  16  17
ATOM     17  C   UNL     1       2.380   3.885  20.713  0.00  0.00    +0.000 C 
BRANCH  17  18
ATOM     18  C   UNL     1       1.938   2.753  19.778  0.00  0.00    +0.000 C 
BRANCH  18  20
ATOM     19  C   UNL     1       3.255   2.190  17.805  0.00  0.00    +0.000 C 
ATOM     20  N   UNL     1       3.052   1.957  19.236  0.00  0.00    +0.000 NA
ATOM     21  C   UNL     1       4.286   2.251  19.968  0.00  0.00    +0.000 C 
ENDBRANCH  18  20
ENDBRANCH  17  18
ENDBRANCH  16  17
ENDBRANCH  14  16
ENDBRANCH  13  14
ENDBRANCH  12  13
ENDBRANCH   1  12
TORSDOF 9
ENDMDL
