MODEL 1
REMARK VINA RESULT:      -7.6      0.000      0.000
REMARK  Name = 
REMARK  6 active torsions:
REMARK  status: ('A' for Active; 'I' for Inactive)
REMARK    1  A    between atoms: C_1  and  N_2
REMARK    2  A    between atoms: N_2  and  C_3
REMARK    3  A    between atoms: N_2  and  C_11
REMARK    4  A    between atoms: C_3  and  C_4
REMARK    5  A    between atoms: C_5  and  C_6
REMARK    6  A    between atoms: C_11  and  C_12
REMARK                            x       y       z     vdW  Elec       q    Type
REMARK                         _______ _______ _______ _____ _____    ______ ____
ROOT
ATOM      1  C   UNL     1       5.888   5.655  17.102  0.00  0.00    +0.000 C 
ENDROOT
BRANCH   1   2
ATOM      2  C   UNL     1       4.426   5.740  17.518  0.00  0.00    +0.000 A 
ATOM      3  C   UNL     1       3.859   7.022  17.647  0.00  0.00    +0.000 A 
ATOM      4  C   UNL     1       2.520   7.178  17.986  0.00  0.00    +0.000 A 
ATOM      5  C   UNL     1       1.724   6.057  18.198  0.00  0.00    +0.000 A 
ATOM      6  C   UNL     1       2.255   4.764  18.084  0.00  0.00    +0.000 A 
ATOM      7  C   UNL     1       1.427   3.646  18.280  0.00  0.00    +0.000 A 
ATOM      8  C   UNL     1       1.924   2.349  18.158  0.00  0.00    +0.000 A 
ATOM      9  C   UNL     1       3.266   2.155  17.858  0.00  0.00    +0.000 A 
ATOM     10  C   UNL     1       4.104   3.257  17.669  0.00  0.00    +0.000 A 
ATOM     11  C   UNL     1       3.623   4.585  17.758  0.00  0.00    +0.000 A 
ENDBRANCH   1   2
BRANCH   1  13
ATOM     12  C   UNL     1       7.744   5.418  18.653  0.00  0.00    +0.000 C 
ATOM     13  N   UNL     1       6.824   6.359  18.006  0.00  0.00    +0.000 NA
BRANCH  13  14
ATOM     14  C   UNL     1       7.602   7.380  17.294  0.00  0.00    +0.000 C 
BRANCH  14  15
ATOM     15  C   UNL     1       8.177   8.431  18.199  0.00  0.00    +0.000 C 
ATOM     16  C   UNL     1       8.470   9.681  17.798  0.00  0.00    +0.000 C 
BRANCH  16  17
ATOM     17  C   UNL     1       9.034  10.700  18.628  0.00  0.00    +0.000 A 
ATOM     18  C   UNL     1       9.563  10.521  19.942  0.00  0.00    +0.000 A 
ATOM     19  C   UNL     1      10.047  11.695  20.475  0.00  0.00    +0.000 A 
ATOM     20  S   UNL     1       9.866  13.012  19.400  0.00  0.00    +0.000 S 
ATOM     21  C   UNL     1       9.148  12.010  18.210  0.00  0.00    +0.000 A 
ENDBRANCH  16  17
ENDBRANCH  14  15
ENDBRANCH  13  14
ENDBRANCH   1  13
TORSDOF 5
ENDMDL
MODEL 2
REMARK VINA RESULT:      -7.3      3.441      6.213
REMARK  Name = 
REMARK  6 active torsions:
REMARK  status: ('A' for Active; 'I' for Inactive)
REMARK    1  A    between atoms: C_1  and  N_2
REMARK    2  A    between atoms: N_2  and  C_3
REMARK    3  A    between atoms: N_2  and  C_11
REMARK    4  A    between atoms: C_3  and  C_4
REMARK    5  A    between atoms: C_5  and  C_6
REMARK    6  A    between atoms: C_11  and  C_12
REMARK                            x       y       z     vdW  Elec       q    Type
REMARK                         _______ _______ _______ _____ _____    ______ ____
ROOT
ATOM      1  C   UNL     1       4.291   2.950  17.832  0.00  0.00    +0.000 C 
ENDROOT
BRANCH   1   2
ATOM      2  C   UNL     1       5.060   3.982  17.019  0.00  0.00    +0.000 A 
ATOM      3  C   UNL     1       4.762   4.083  15.646  0.00  0.00    +0.000 A 
ATOM      4  C   UNL     1       5.395   5.028  14.847  0.00  0.00    +0.000 A 
ATOM      5  C   UNL     1       6.334   5.889  15.405  0.00  0.00    +0.000 A 
ATOM      6  C   UNL     1       6.662   5.815  16.767  0.00  0.00    +0.000 A 
ATOM      7  C   UNL     1       7.597   6.710  17.314  0.00  0.00    +0.000 A 
ATOM      8  C   UNL     1       7.930   6.667  18.667  0.00  0.00    +0.000 A 
ATOM      9  C   UNL     1       7.346   5.712  19.488  0.00  0.00    +0.000 A 
ATOM     10  C   UNL     1       6.421   4.810  18.957  0.00  0.00    +0.000 A 
ATOM     11  C   UNL     1       6.041   4.845  17.594  0.00  0.00    +0.000 A 
ENDBRANCH   1   2
BRANCH   1  13
ATOM     12  C   UNL     1       2.019   2.244  18.334  0.00  0.00    +0.000 C 
ATOM     13  N   UNL     1       2.940   3.384  18.251  0.00  0.00    +0.000 NA
BRANCH  13  14
ATOM     14  C   UNL     1       2.968   4.075  19.545  0.00  0.00    +0.000 C 
BRANCH  14  15
ATOM     15  C   UNL     1       2.301   5.419  19.520  0.00  0.00    +0.000 C 
ATOM     16  C   UNL     1       2.801   6.488  18.875  0.00  0.00    +0.000 C 
BRANCH  16  17
ATOM     17  C   UNL     1       2.201   7.786  18.844  0.00  0.00    +0.000 A 
ATOM     18  C   UNL     1       2.203   8.690  17.740  0.00  0.00    +0.000 A 
ATOM     19  C   UNL     1       1.528   9.858  18.017  0.00  0.00    +0.000 A 
ATOM     20  S   UNL     1       0.893   9.870  19.605  0.00  0.00    +0.000 S 
ATOM     21  C   UNL     1       1.510   8.303  19.921  0.00  0.00    +0.000 A 
ENDBRANCH  16  17
ENDBRANCH  14  15
ENDBRANCH  13  14
ENDBRANCH   1  13
TORSDOF 5
ENDMDL
MODEL 3
REMARK VINA RESULT:      -7.3      3.565      6.234
REMARK  Name = 
REMARK  6 active torsions:
REMARK  status: ('A' for Active; 'I' for Inactive)
REMARK    1  A    between atoms: C_1  and  N_2
REMARK    2  A    between atoms: N_2  and  C_3
REMARK    3  A    between atoms: N_2  and  C_11
REMARK    4  A    between atoms: C_3  and  C_4
REMARK    5  A    between atoms: C_5  and  C_6
REMARK    6  A    between atoms: C_11  and  C_12
REMARK                            x       y       z     vdW  Elec       q    Type
REMARK                         _______ _______ _______ _____ _____    ______ ____
ROOT
ATOM      1  C   UNL     1       3.998   3.263  19.490  0.00  0.00    +0.000 C 
ENDROOT
BRANCH   1   2
ATOM      2  C   UNL     1       4.558   3.957  18.255  0.00  0.00    +0.000 A 
ATOM      3  C   UNL     1       3.906   3.728  17.028  0.00  0.00    +0.000 A 
ATOM      4  C   UNL     1       4.335   4.356  15.865  0.00  0.00    +0.000 A 
ATOM      5  C   UNL     1       5.421   5.225  15.908  0.00  0.00    +0.000 A 
ATOM      6  C   UNL     1       6.100   5.473  17.110  0.00  0.00    +0.000 A 
ATOM      7  C   UNL     1       7.180   6.371  17.135  0.00  0.00    +0.000 A 
ATOM      8  C   UNL     1       7.863   6.647  18.318  0.00  0.00    +0.000 A 
ATOM      9  C   UNL     1       7.486   6.009  19.492  0.00  0.00    +0.000 A 
ATOM     10  C   UNL     1       6.420   5.106  19.482  0.00  0.00    +0.000 A 
ATOM     11  C   UNL     1       5.688   4.827  18.303  0.00  0.00    +0.000 A 
ENDBRANCH   1   2
BRANCH   1  13
ATOM     12  C   UNL     1       1.797   2.390  20.041  0.00  0.00    +0.000 C 
ATOM     13  N   UNL     1       2.590   3.600  19.795  0.00  0.00    +0.000 NA
BRANCH  13  14
ATOM     14  C   UNL     1       2.484   4.488  20.959  0.00  0.00    +0.000 C 
BRANCH  14  15
ATOM     15  C   UNL     1       2.009   5.869  20.614  0.00  0.00    +0.000 C 
ATOM     16  C   UNL     1       2.422   6.552  19.532  0.00  0.00    +0.000 C 
BRANCH  16  17
ATOM     17  C   UNL     1       2.004   7.874  19.183  0.00  0.00    +0.000 A 
ATOM     18  C   UNL     1       2.193   8.513  17.920  0.00  0.00    +0.000 A 
ATOM     19  C   UNL     1       1.664   9.784  17.892  0.00  0.00    +0.000 A 
ATOM     20  S   UNL     1       0.944  10.213  19.383  0.00  0.00    +0.000 S 
ATOM     21  C   UNL     1       1.327   8.689  20.067  0.00  0.00    +0.000 A 
ENDBRANCH  16  17
ENDBRANCH  14  15
ENDBRANCH  13  14
ENDBRANCH   1  13
TORSDOF 5
ENDMDL
MODEL 4
REMARK VINA RESULT:      -7.2      1.192      1.310
REMARK  Name = 
REMARK  6 active torsions:
REMARK  status: ('A' for Active; 'I' for Inactive)
REMARK    1  A    between atoms: C_1  and  N_2
REMARK    2  A    between atoms: N_2  and  C_3
REMARK    3  A    between atoms: N_2  and  C_11
REMARK    4  A    between atoms: C_3  and  C_4
REMARK    5  A    between atoms: C_5  and  C_6
REMARK    6  A    between atoms: C_11  and  C_12
REMARK                            x       y       z     vdW  Elec       q    Type
REMARK                         _______ _______ _______ _____ _____    ______ ____
ROOT
ATOM      1  C   UNL     1       4.601   6.118  17.489  0.00  0.00    +0.000 C 
ENDROOT
BRANCH   1   2
ATOM      2  C   UNL     1       3.505   5.781  18.492  0.00  0.00    +0.000 A 
ATOM      3  C   UNL     1       3.128   6.785  19.405  0.00  0.00    +0.000 A 
ATOM      4  C   UNL     1       2.110   6.566  20.324  0.00  0.00    +0.000 A 
ATOM      5  C   UNL     1       1.449   5.342  20.347  0.00  0.00    +0.000 A 
ATOM      6  C   UNL     1       1.801   4.316  19.457  0.00  0.00    +0.000 A 
ATOM      7  C   UNL     1       1.104   3.096  19.482  0.00  0.00    +0.000 A 
ATOM      8  C   UNL     1       1.423   2.065  18.600  0.00  0.00    +0.000 A 
ATOM      9  C   UNL     1       2.460   2.235  17.692  0.00  0.00    +0.000 A 
ATOM     10  C   UNL     1       3.167   3.439  17.662  0.00  0.00    +0.000 A 
ATOM     11  C   UNL     1       2.850   4.515  18.524  0.00  0.00    +0.000 A 
ENDBRANCH   1   2
BRANCH   1  13
ATOM     12  C   UNL     1       6.423   4.746  18.331  0.00  0.00    +0.000 C 
ATOM     13  N   UNL     1       5.969   6.113  18.051  0.00  0.00    +0.000 NA
BRANCH  13  14
ATOM     14  C   UNL     1       6.928   6.763  17.151  0.00  0.00    +0.000 C 
BRANCH  14  15
ATOM     15  C   UNL     1       7.810   7.764  17.840  0.00  0.00    +0.000 C 
ATOM     16  C   UNL     1       7.737   9.091  17.630  0.00  0.00    +0.000 C 
BRANCH  16  17
ATOM     17  C   UNL     1       8.572  10.070  18.255  0.00  0.00    +0.000 A 
ATOM     18  C   UNL     1       9.363   9.878  19.427  0.00  0.00    +0.000 A 
ATOM     19  C   UNL     1      10.069  11.009  19.773  0.00  0.00    +0.000 A 
ATOM     20  S   UNL     1       9.779  12.303  18.692  0.00  0.00    +0.000 S 
ATOM     21  C   UNL     1       8.717  11.345  17.749  0.00  0.00    +0.000 A 
ENDBRANCH  16  17
ENDBRANCH  14  15
ENDBRANCH  13  14
ENDBRANCH   1  13
TORSDOF 5
ENDMDL
MODEL 5
REMARK VINA RESULT:      -7.2      3.708      6.090
REMARK  Name = 
REMARK  6 active torsions:
REMARK  status: ('A' for Active; 'I' for Inactive)
REMARK    1  A    between atoms: C_1  and  N_2
REMARK    2  A    between atoms: N_2  and  C_3
REMARK    3  A    between atoms: N_2  and  C_11
REMARK    4  A    between atoms: C_3  and  C_4
REMARK    5  A    between atoms: C_5  and  C_6
REMARK    6  A    between atoms: C_11  and  C_12
REMARK                            x       y       z     vdW  Elec       q    Type
REMARK                         _______ _______ _______ _____ _____    ______ ____
ROOT
ATOM      1  C   UNL     1       4.702   3.339  19.162  0.00  0.00    +0.000 C 
ENDROOT
BRANCH   1   2
ATOM      2  C   UNL     1       5.650   4.359  18.544  0.00  0.00    +0.000 A 
ATOM      3  C   UNL     1       6.369   5.194  19.420  0.00  0.00    +0.000 A 
ATOM      4  C   UNL     1       7.281   6.122  18.933  0.00  0.00    +0.000 A 
ATOM      5  C   UNL     1       7.493   6.230  17.562  0.00  0.00    +0.000 A 
ATOM      6  C   UNL     1       6.791   5.419  16.657  0.00  0.00    +0.000 A 
ATOM      7  C   UNL     1       7.038   5.530  15.279  0.00  0.00    +0.000 A 
ATOM      8  C   UNL     1       6.365   4.726  14.359  0.00  0.00    +0.000 A 
ATOM      9  C   UNL     1       5.420   3.814  14.807  0.00  0.00    +0.000 A 
ATOM     10  C   UNL     1       5.157   3.700  16.174  0.00  0.00    +0.000 A 
ATOM     11  C   UNL     1       5.843   4.480  17.135  0.00  0.00    +0.000 A 
ENDBRANCH   1   2
BRANCH   1  13
ATOM     12  C   UNL     1       2.463   2.504  18.716  0.00  0.00    +0.000 C 
ATOM     13  N   UNL     1       3.269   3.686  19.044  0.00  0.00    +0.000 NA
BRANCH  13  14
ATOM     14  C   UNL     1       2.754   4.292  20.277  0.00  0.00    +0.000 C 
BRANCH  14  15
ATOM     15  C   UNL     1       2.115   5.633  20.062  0.00  0.00    +0.000 C 
ATOM     16  C   UNL     1       2.671   6.615  19.330  0.00  0.00    +0.000 C 
BRANCH  16  17
ATOM     17  C   UNL     1       2.099   7.908  19.118  0.00  0.00    +0.000 A 
ATOM     18  C   UNL     1       2.122   8.651  17.900  0.00  0.00    +0.000 A 
ATOM     19  C   UNL     1       1.472   9.860  18.011  0.00  0.00    +0.000 A 
ATOM     20  S   UNL     1       0.837  10.106  19.580  0.00  0.00    +0.000 S 
ATOM     21  C   UNL     1       1.420   8.585  20.111  0.00  0.00    +0.000 A 
ENDBRANCH  16  17
ENDBRANCH  14  15
ENDBRANCH  13  14
ENDBRANCH   1  13
TORSDOF 5
ENDMDL
MODEL 6
REMARK VINA RESULT:      -7.2      1.184      1.354
REMARK  Name = 
REMARK  6 active torsions:
REMARK  status: ('A' for Active; 'I' for Inactive)
REMARK    1  A    between atoms: C_1  and  N_2
REMARK    2  A    between atoms: N_2  and  C_3
REMARK    3  A    between atoms: N_2  and  C_11
REMARK    4  A    between atoms: C_3  and  C_4
REMARK    5  A    between atoms: C_5  and  C_6
REMARK    6  A    between atoms: C_11  and  C_12
REMARK                            x       y       z     vdW  Elec       q    Type
REMARK                         _______ _______ _______ _____ _____    ______ ____
ROOT
ATOM      1  C   UNL     1       6.004   5.470  17.880  0.00  0.00    +0.000 C 
ENDROOT
BRANCH   1   2
ATOM      2  C   UNL     1       4.534   5.632  18.246  0.00  0.00    +0.000 A 
ATOM      3  C   UNL     1       3.886   6.810  17.828  0.00  0.00    +0.000 A 
ATOM      4  C   UNL     1       2.537   7.013  18.092  0.00  0.00    +0.000 A 
ATOM      5  C   UNL     1       1.811   6.042  18.775  0.00  0.00    +0.000 A 
ATOM      6  C   UNL     1       2.424   4.858  19.212  0.00  0.00    +0.000 A 
ATOM      7  C   UNL     1       1.667   3.881  19.879  0.00  0.00    +0.000 A 
ATOM      8  C   UNL     1       2.247   2.689  20.312  0.00  0.00    +0.000 A 
ATOM      9  C   UNL     1       3.601   2.469  20.099  0.00  0.00    +0.000 A 
ATOM     10  C   UNL     1       4.369   3.435  19.445  0.00  0.00    +0.000 A 
ATOM     11  C   UNL     1       3.804   4.642  18.969  0.00  0.00    +0.000 A 
ENDBRANCH   1   2
BRANCH   1  13
ATOM     12  C   UNL     1       8.013   5.779  19.213  0.00  0.00    +0.000 C 
ATOM     13  N   UNL     1       6.907   6.450  18.520  0.00  0.00    +0.000 NA
BRANCH  13  14
ATOM     14  C   UNL     1       7.457   7.400  17.545  0.00  0.00    +0.000 C 
BRANCH  14  15
ATOM     15  C   UNL     1       8.468   8.340  18.132  0.00  0.00    +0.000 C 
ATOM     16  C   UNL     1       8.320   9.677  18.154  0.00  0.00    +0.000 C 
BRANCH  16  17
ATOM     17  C   UNL     1       9.270  10.602  18.689  0.00  0.00    +0.000 A 
ATOM     18  C   UNL     1      10.156  11.431  17.936  0.00  0.00    +0.000 A 
ATOM     19  C   UNL     1      10.941  12.225  18.741  0.00  0.00    +0.000 A 
ATOM     20  S   UNL     1      10.618  11.975  20.402  0.00  0.00    +0.000 S 
ATOM     21  C   UNL     1       9.413  10.809  20.045  0.00  0.00    +0.000 A 
ENDBRANCH  16  17
ENDBRANCH  14  15
ENDBRANCH  13  14
ENDBRANCH   1  13
TORSDOF 5
ENDMDL
MODEL 7
REMARK VINA RESULT:      -7.0      1.175      2.454
REMARK  Name = 
REMARK  6 active torsions:
REMARK  status: ('A' for Active; 'I' for Inactive)
REMARK    1  A    between atoms: C_1  and  N_2
REMARK    2  A    between atoms: N_2  and  C_3
REMARK    3  A    between atoms: N_2  and  C_11
REMARK    4  A    between atoms: C_3  and  C_4
REMARK    5  A    between atoms: C_5  and  C_6
REMARK    6  A    between atoms: C_11  and  C_12
REMARK                            x       y       z     vdW  Elec       q    Type
REMARK                         _______ _______ _______ _____ _____    ______ ____
ROOT
ATOM      1  C   UNL     1       5.089   6.223  17.126  0.00  0.00    +0.000 C 
ENDROOT
BRANCH   1   2
ATOM      2  C   UNL     1       4.241   5.030  17.544  0.00  0.00    +0.000 A 
ATOM      3  C   UNL     1       4.479   3.803  16.896  0.00  0.00    +0.000 A 
ATOM      4  C   UNL     1       3.772   2.660  17.250  0.00  0.00    +0.000 A 
ATOM      5  C   UNL     1       2.816   2.723  18.260  0.00  0.00    +0.000 A 
ATOM      6  C   UNL     1       2.547   3.928  18.925  0.00  0.00    +0.000 A 
ATOM      7  C   UNL     1       1.595   3.963  19.957  0.00  0.00    +0.000 A 
ATOM      8  C   UNL     1       1.318   5.144  20.644  0.00  0.00    +0.000 A 
ATOM      9  C   UNL     1       1.979   6.313  20.292  0.00  0.00    +0.000 A 
ATOM     10  C   UNL     1       2.922   6.297  19.261  0.00  0.00    +0.000 A 
ATOM     11  C   UNL     1       3.246   5.108  18.564  0.00  0.00    +0.000 A 
ENDBRANCH   1   2
BRANCH   1  13
ATOM     12  C   UNL     1       6.579   5.356  18.841  0.00  0.00    +0.000 C 
ATOM     13  N   UNL     1       6.207   6.531  18.044  0.00  0.00    +0.000 NA
BRANCH  13  14
ATOM     14  C   UNL     1       7.389   7.013  17.318  0.00  0.00    +0.000 C 
BRANCH  14  15
ATOM     15  C   UNL     1       7.731   8.443  17.617  0.00  0.00    +0.000 C 
ATOM     16  C   UNL     1       8.659   8.816  18.516  0.00  0.00    +0.000 C 
BRANCH  16  17
ATOM     17  C   UNL     1       8.998  10.168  18.837  0.00  0.00    +0.000 A 
ATOM     18  C   UNL     1       8.979  11.278  17.940  0.00  0.00    +0.000 A 
ATOM     19  C   UNL     1       9.345  12.455  18.555  0.00  0.00    +0.000 A 
ATOM     20  S   UNL     1       9.714  12.227  20.209  0.00  0.00    +0.000 S 
ATOM     21  C   UNL     1       9.371  10.551  20.109  0.00  0.00    +0.000 A 
ENDBRANCH  16  17
ENDBRANCH  14  15
ENDBRANCH  13  14
ENDBRANCH   1  13
TORSDOF 5
ENDMDL
MODEL 8
REMARK VINA RESULT:      -7.0      1.073      1.385
REMARK  Name = 
REMARK  6 active torsions:
REMARK  status: ('A' for Active; 'I' for Inactive)
REMARK    1  A    between atoms: C_1  and  N_2
REMARK    2  A    between atoms: N_2  and  C_3
REMARK    3  A    between atoms: N_2  and  C_11
REMARK    4  A    between atoms: C_3  and  C_4
REMARK    5  A    between atoms: C_5  and  C_6
REMARK    6  A    between atoms: C_11  and  C_12
REMARK                            x       y       z     vdW  Elec       q    Type
REMARK                         _______ _______ _______ _____ _____    ______ ____
ROOT
ATOM      1  C   UNL     1       6.414   5.532  19.047  0.00  0.00    +0.000 C 
ENDROOT
BRANCH   1   2
ATOM      2  C   UNL     1       4.935   5.528  18.681  0.00  0.00    +0.000 A 
ATOM      3  C   UNL     1       4.376   6.734  18.216  0.00  0.00    +0.000 A 
ATOM      4  C   UNL     1       3.044   6.798  17.826  0.00  0.00    +0.000 A 
ATOM      5  C   UNL     1       2.248   5.659  17.891  0.00  0.00    +0.000 A 
ATOM      6  C   UNL     1       2.768   4.441  18.354  0.00  0.00    +0.000 A 
ATOM      7  C   UNL     1       1.952   3.298  18.389  0.00  0.00    +0.000 A 
ATOM      8  C   UNL     1       2.446   2.072  18.830  0.00  0.00    +0.000 A 
ATOM      9  C   UNL     1       3.762   1.978  19.263  0.00  0.00    +0.000 A 
ATOM     10  C   UNL     1       4.583   3.108  19.243  0.00  0.00    +0.000 A 
ATOM     11  C   UNL     1       4.119   4.361  18.774  0.00  0.00    +0.000 A 
ENDBRANCH   1   2
BRANCH   1  13
ATOM     12  C   UNL     1       6.974   4.485  16.926  0.00  0.00    +0.000 C 
ATOM     13  N   UNL     1       7.332   5.534  17.888  0.00  0.00    +0.000 NA
BRANCH  13  14
ATOM     14  C   UNL     1       7.338   6.832  17.202  0.00  0.00    +0.000 C 
BRANCH  14  15
ATOM     15  C   UNL     1       7.872   7.951  18.048  0.00  0.00    +0.000 C 
ATOM     16  C   UNL     1       8.216   9.156  17.560  0.00  0.00    +0.000 C 
BRANCH  16  17
ATOM     17  C   UNL     1       8.742  10.238  18.333  0.00  0.00    +0.000 A 
ATOM     18  C   UNL     1       8.809  11.606  17.932  0.00  0.00    +0.000 A 
ATOM     19  C   UNL     1       9.357  12.411  18.906  0.00  0.00    +0.000 A 
ATOM     20  S   UNL     1       9.796  11.524  20.301  0.00  0.00    +0.000 S 
ATOM     21  C   UNL     1       9.238  10.059  19.608  0.00  0.00    +0.000 A 
ENDBRANCH  16  17
ENDBRANCH  14  15
ENDBRANCH  13  14
ENDBRANCH   1  13
TORSDOF 5
ENDMDL
MODEL 9
REMARK VINA RESULT:      -7.0      1.244      1.257
REMARK  Name = 
REMARK  6 active torsions:
REMARK  status: ('A' for Active; 'I' for Inactive)
REMARK    1  A    between atoms: C_1  and  N_2
REMARK    2  A    between atoms: N_2  and  C_3
REMARK    3  A    between atoms: N_2  and  C_11
REMARK    4  A    between atoms: C_3  and  C_4
REMARK    5  A    between atoms: C_5  and  C_6
REMARK    6  A    between atoms: C_11  and  C_12
REMARK                            x       y       z     vdW  Elec       q    Type
REMARK                         _______ _______ _______ _____ _____    ______ ____
ROOT
ATOM      1  C   UNL     1       5.608   5.949  17.312  0.00  0.00    +0.000 C 
ENDROOT
BRANCH   1   2
ATOM      2  C   UNL     1       4.277   6.274  17.977  0.00  0.00    +0.000 A 
ATOM      3  C   UNL     1       3.672   7.505  17.657  0.00  0.00    +0.000 A 
ATOM      4  C   UNL     1       2.439   7.854  18.194  0.00  0.00    +0.000 A 
ATOM      5  C   UNL     1       1.787   6.979  19.058  0.00  0.00    +0.000 A 
ATOM      6  C   UNL     1       2.360   5.747  19.404  0.00  0.00    +0.000 A 
ATOM      7  C   UNL     1       1.673   4.869  20.259  0.00  0.00    +0.000 A 
ATOM      8  C   UNL     1       2.213   3.632  20.608  0.00  0.00    +0.000 A 
ATOM      9  C   UNL     1       3.460   3.265  20.121  0.00  0.00    +0.000 A 
ATOM     10  C   UNL     1       4.159   4.132  19.277  0.00  0.00    +0.000 A 
ATOM     11  C   UNL     1       3.626   5.382  18.881  0.00  0.00    +0.000 A 
ENDBRANCH   1   2
BRANCH   1  13
ATOM     12  C   UNL     1       7.637   5.349  18.509  0.00  0.00    +0.000 C 
ATOM     13  N   UNL     1       6.794   6.454  18.038  0.00  0.00    +0.000 NA
BRANCH  13  14
ATOM     14  C   UNL     1       7.601   7.351  17.203  0.00  0.00    +0.000 C 
BRANCH  14  15
ATOM     15  C   UNL     1       7.763   8.724  17.787  0.00  0.00    +0.000 C 
ATOM     16  C   UNL     1       8.916   9.181  18.309  0.00  0.00    +0.000 C 
BRANCH  16  17
ATOM     17  C   UNL     1       9.101  10.475  18.888  0.00  0.00    +0.000 A 
ATOM     18  C   UNL     1       9.369  10.754  20.262  0.00  0.00    +0.000 A 
ATOM     19  C   UNL     1       9.512  12.102  20.506  0.00  0.00    +0.000 A 
ATOM     20  S   UNL     1       9.321  13.034  19.085  0.00  0.00    +0.000 S 
ATOM     21  C   UNL     1       9.060  11.631  18.136  0.00  0.00    +0.000 A 
ENDBRANCH  16  17
ENDBRANCH  14  15
ENDBRANCH  13  14
ENDBRANCH   1  13
TORSDOF 5
ENDMDL
