MODEL 1
REMARK VINA RESULT:      -6.5      0.000      0.000
REMARK  Name = 
REMARK  7 active torsions:
REMARK  status: ('A' for Active; 'I' for Inactive)
REMARK    1  A    between atoms: C_1  and  C_2
REMARK    2  A    between atoms: C_2  and  C_3
REMARK    3  A    between atoms: C_3  and  N_4
REMARK    4  A    between atoms: N_4  and  C_5
REMARK    5  A    between atoms: C_5  and  C_6
REMARK    6  A    between atoms: C_10  and  S_11
REMARK    7  A    between atoms: S_11  and  N_12
REMARK                            x       y       z     vdW  Elec       q    Type
REMARK                         _______ _______ _______ _____ _____    ______ ____
ROOT
ATOM      1  C   UNL     1       1.866   3.037  18.208  0.00  0.00    +0.000 A 
ATOM      2  C   UNL     1       2.153   4.313  17.704  0.00  0.00    +0.000 A 
ATOM      3  C   UNL     1       3.483   4.343  17.282  0.00  0.00    +0.000 A 
ATOM      4  C   UNL     1       4.324   5.293  16.719  0.00  0.00    +0.000 A 
ATOM      5  C   UNL     1       5.556   4.629  16.562  0.00  0.00    +0.000 A 
ATOM      6  O   UNL     1       5.425   3.316  17.026  0.00  0.00    +0.000 OA
ATOM      7  C   UNL     1       4.154   3.203  17.445  0.00  0.00    +0.000 A 
ATOM      8  S   UNL     1       3.263   1.974  18.118  0.00  0.00    +0.000 S 
ENDROOT
BRANCH   5   9
ATOM      9  S   UNL     1       7.130   5.185  15.912  0.00  0.00    +0.000 S 
ATOM     10  O   UNL     1       8.097   4.243  16.419  0.00  0.00    +0.000 OA
ATOM     11  O   UNL     1       6.893   5.410  14.506  0.00  0.00    +0.000 OA
BRANCH   9  12
ATOM     12  N   UNL     1       7.446   6.675  16.626  0.00  0.00    +0.000 NA
ATOM     13  H   UNL     1       6.997   6.756  17.537  0.00  0.00    +0.000 HD
ATOM     14  H   UNL     1       7.235   7.448  15.994  0.00  0.00    +0.000 HD
ENDBRANCH   9  12
ENDBRANCH   5   9
BRANCH   1  15
ATOM     15  C   UNL     1       0.601   2.501  18.822  0.00  0.00    +0.000 C 
BRANCH  15  16
ATOM     16  N   UNL     1       0.283   3.190  20.074  0.00  0.00    +0.000 NA
ATOM     17  H   UNL     1       0.352   4.195  19.932  0.00  0.00    +0.000 HD
BRANCH  16  18
ATOM     18  C   UNL     1       1.206   2.781  21.137  0.00  0.00    +0.000 C 
BRANCH  18  20
ATOM     19  C   UNL     1       1.696   5.252  20.999  0.00  0.00    +0.000 C 
ATOM     20  C   UNL     1       2.232   3.885  21.394  0.00  0.00    +0.000 C 
ENDBRANCH  18  20
ENDBRANCH  16  18
ENDBRANCH  15  16
ENDBRANCH   1  15
TORSDOF 6
ENDMDL
MODEL 2
REMARK VINA RESULT:      -6.4      3.517      6.827
REMARK  Name = 
REMARK  7 active torsions:
REMARK  status: ('A' for Active; 'I' for Inactive)
REMARK    1  A    between atoms: C_1  and  C_2
REMARK    2  A    between atoms: C_2  and  C_3
REMARK    3  A    between atoms: C_3  and  N_4
REMARK    4  A    between atoms: N_4  and  C_5
REMARK    5  A    between atoms: C_5  and  C_6
REMARK    6  A    between atoms: C_10  and  S_11
REMARK    7  A    between atoms: S_11  and  N_12
REMARK                            x       y       z     vdW  Elec       q    Type
REMARK                         _______ _______ _______ _____ _____    ______ ____
ROOT
ATOM      1  C   UNL     1       5.518   4.742  15.722  0.00  0.00    +0.000 A 
ATOM      2  C   UNL     1       4.959   3.642  16.386  0.00  0.00    +0.000 A 
ATOM      3  C   UNL     1       4.187   4.104  17.453  0.00  0.00    +0.000 A 
ATOM      4  C   UNL     1       3.418   3.517  18.449  0.00  0.00    +0.000 A 
ATOM      5  C   UNL     1       2.926   4.600  19.203  0.00  0.00    +0.000 A 
ATOM      6  O   UNL     1       3.404   5.792  18.649  0.00  0.00    +0.000 OA
ATOM      7  C   UNL     1       4.157   5.428  17.597  0.00  0.00    +0.000 A 
ATOM      8  S   UNL     1       5.045   6.261  16.468  0.00  0.00    +0.000 S 
ENDROOT
BRANCH   5   9
ATOM      9  S   UNL     1       1.870   4.657  20.649  0.00  0.00    +0.000 S 
ATOM     10  O   UNL     1       2.586   3.922  21.663  0.00  0.00    +0.000 OA
ATOM     11  O   UNL     1       1.496   6.045  20.781  0.00  0.00    +0.000 OA
BRANCH   9  12
ATOM     12  N   UNL     1       0.484   3.784  20.268  0.00  0.00    +0.000 NA
ATOM     13  H   UNL     1      -0.222   3.867  20.998  0.00  0.00    +0.000 HD
ATOM     14  H   UNL     1       0.704   2.819  20.017  0.00  0.00    +0.000 HD
ENDBRANCH   9  12
ENDBRANCH   5   9
BRANCH   1  15
ATOM     15  C   UNL     1       6.455   4.787  14.544  0.00  0.00    +0.000 C 
BRANCH  15  16
ATOM     16  N   UNL     1       6.477   3.509  13.832  0.00  0.00    +0.000 NA
ATOM     17  H   UNL     1       7.319   2.997  14.082  0.00  0.00    +0.000 HD
BRANCH  16  18
ATOM     18  C   UNL     1       6.447   3.724  12.383  0.00  0.00    +0.000 C 
BRANCH  18  20
ATOM     19  C   UNL     1       4.180   3.240  11.385  0.00  0.00    +0.000 C 
ATOM     20  C   UNL     1       5.555   2.677  11.714  0.00  0.00    +0.000 C 
ENDBRANCH  18  20
ENDBRANCH  16  18
ENDBRANCH  15  16
ENDBRANCH   1  15
TORSDOF 6
ENDMDL
MODEL 3
REMARK VINA RESULT:      -6.3      3.395      6.754
REMARK  Name = 
REMARK  7 active torsions:
REMARK  status: ('A' for Active; 'I' for Inactive)
REMARK    1  A    between atoms: C_1  and  C_2
REMARK    2  A    between atoms: C_2  and  C_3
REMARK    3  A    between atoms: C_3  and  N_4
REMARK    4  A    between atoms: N_4  and  C_5
REMARK    5  A    between atoms: C_5  and  C_6
REMARK    6  A    between atoms: C_10  and  S_11
REMARK    7  A    between atoms: S_11  and  N_12
REMARK                            x       y       z     vdW  Elec       q    Type
REMARK                         _______ _______ _______ _____ _____    ______ ____
ROOT
ATOM      1  C   UNL     1       5.645   4.416  15.813  0.00  0.00    +0.000 A 
ATOM      2  C   UNL     1       4.287   4.091  15.937  0.00  0.00    +0.000 A 
ATOM      3  C   UNL     1       3.961   4.027  17.293  0.00  0.00    +0.000 A 
ATOM      4  C   UNL     1       2.814   3.752  18.026  0.00  0.00    +0.000 A 
ATOM      5  C   UNL     1       3.218   3.856  19.371  0.00  0.00    +0.000 A 
ATOM      6  O   UNL     1       4.576   4.187  19.411  0.00  0.00    +0.000 OA
ATOM      7  C   UNL     1       4.967   4.278  18.129  0.00  0.00    +0.000 A 
ATOM      8  S   UNL     1       6.410   4.620  17.382  0.00  0.00    +0.000 S 
ENDROOT
BRANCH   5   9
ATOM      9  S   UNL     1       2.314   3.637  20.902  0.00  0.00    +0.000 S 
ATOM     10  O   UNL     1       3.014   2.587  21.601  0.00  0.00    +0.000 OA
ATOM     11  O   UNL     1       2.144   4.971  21.426  0.00  0.00    +0.000 OA
BRANCH   9  12
ATOM     12  N   UNL     1       0.795   3.049  20.484  0.00  0.00    +0.000 NA
ATOM     13  H   UNL     1       0.593   3.203  19.498  0.00  0.00    +0.000 HD
ATOM     14  H   UNL     1       0.070   3.400  21.111  0.00  0.00    +0.000 HD
ENDBRANCH   9  12
ENDBRANCH   5   9
BRANCH   1  15
ATOM     15  C   UNL     1       6.495   4.563  14.580  0.00  0.00    +0.000 C 
BRANCH  15  16
ATOM     16  N   UNL     1       6.490   3.337  13.781  0.00  0.00    +0.000 NA
ATOM     17  H   UNL     1       7.357   2.829  13.936  0.00  0.00    +0.000 HD
BRANCH  16  18
ATOM     18  C   UNL     1       6.354   3.650  12.355  0.00  0.00    +0.000 C 
BRANCH  18  20
ATOM     19  C   UNL     1       4.098   3.263  11.294  0.00  0.00    +0.000 C 
ATOM     20  C   UNL     1       5.429   2.636  11.681  0.00  0.00    +0.000 C 
ENDBRANCH  18  20
ENDBRANCH  16  18
ENDBRANCH  15  16
ENDBRANCH   1  15
TORSDOF 6
ENDMDL
MODEL 4
REMARK VINA RESULT:      -6.2      4.225      6.870
REMARK  Name = 
REMARK  7 active torsions:
REMARK  status: ('A' for Active; 'I' for Inactive)
REMARK    1  A    between atoms: C_1  and  C_2
REMARK    2  A    between atoms: C_2  and  C_3
REMARK    3  A    between atoms: C_3  and  N_4
REMARK    4  A    between atoms: N_4  and  C_5
REMARK    5  A    between atoms: C_5  and  C_6
REMARK    6  A    between atoms: C_10  and  S_11
REMARK    7  A    between atoms: S_11  and  N_12
REMARK                            x       y       z     vdW  Elec       q    Type
REMARK                         _______ _______ _______ _____ _____    ______ ____
ROOT
ATOM      1  C   UNL     1       7.036   7.010  17.693  0.00  0.00    +0.000 A 
ATOM      2  C   UNL     1       5.812   6.733  17.068  0.00  0.00    +0.000 A 
ATOM      3  C   UNL     1       5.295   5.547  17.593  0.00  0.00    +0.000 A 
ATOM      4  C   UNL     1       4.159   4.779  17.378  0.00  0.00    +0.000 A 
ATOM      5  C   UNL     1       4.293   3.691  18.261  0.00  0.00    +0.000 A 
ATOM      6  O   UNL     1       5.489   3.830  18.973  0.00  0.00    +0.000 OA
ATOM      7  C   UNL     1       6.047   4.968  18.528  0.00  0.00    +0.000 A 
ATOM      8  S   UNL     1       7.450   5.783  18.882  0.00  0.00    +0.000 S 
ENDROOT
BRANCH   5   9
ATOM      9  S   UNL     1       3.240   2.275  18.568  0.00  0.00    +0.000 S 
ATOM     10  O   UNL     1       2.863   2.384  19.956  0.00  0.00    +0.000 OA
ATOM     11  O   UNL     1       2.293   2.273  17.479  0.00  0.00    +0.000 OA
BRANCH   9  12
ATOM     12  N   UNL     1       4.210   0.910  18.408  0.00  0.00    +0.000 NA
ATOM     13  H   UNL     1       3.938   0.179  19.064  0.00  0.00    +0.000 HD
ATOM     14  H   UNL     1       5.202   1.146  18.444  0.00  0.00    +0.000 HD
ENDBRANCH   9  12
ENDBRANCH   5   9
BRANCH   1  15
ATOM     15  C   UNL     1       8.008   8.135  17.461  0.00  0.00    +0.000 C 
BRANCH  15  16
ATOM     16  N   UNL     1       8.587   8.606  18.719  0.00  0.00    +0.000 NA
ATOM     17  H   UNL     1       7.912   8.481  19.470  0.00  0.00    +0.000 HD
BRANCH  16  18
ATOM     18  C   UNL     1       8.954  10.022  18.622  0.00  0.00    +0.000 C 
BRANCH  18  20
ATOM     19  C   UNL     1      10.540  11.524  19.884  0.00  0.00    +0.000 C 
ATOM     20  C   UNL     1       9.375  10.551  19.993  0.00  0.00    +0.000 C 
ENDBRANCH  18  20
ENDBRANCH  16  18
ENDBRANCH  15  16
ENDBRANCH   1  15
TORSDOF 6
ENDMDL
MODEL 5
REMARK VINA RESULT:      -6.2      3.202      6.749
REMARK  Name = 
REMARK  7 active torsions:
REMARK  status: ('A' for Active; 'I' for Inactive)
REMARK    1  A    between atoms: C_1  and  C_2
REMARK    2  A    between atoms: C_2  and  C_3
REMARK    3  A    between atoms: C_3  and  N_4
REMARK    4  A    between atoms: N_4  and  C_5
REMARK    5  A    between atoms: C_5  and  C_6
REMARK    6  A    between atoms: C_10  and  S_11
REMARK    7  A    between atoms: S_11  and  N_12
REMARK                            x       y       z     vdW  Elec       q    Type
REMARK                         _______ _______ _______ _____ _____    ______ ____
ROOT
ATOM      1  C   UNL     1       6.037   4.400  16.480  0.00  0.00    +0.000 A 
ATOM      2  C   UNL     1       4.691   4.029  16.359  0.00  0.00    +0.000 A 
ATOM      3  C   UNL     1       4.082   4.128  17.611  0.00  0.00    +0.000 A 
ATOM      4  C   UNL     1       2.810   3.897  18.117  0.00  0.00    +0.000 A 
ATOM      5  C   UNL     1       2.914   4.196  19.490  0.00  0.00    +0.000 A 
ATOM      6  O   UNL     1       4.225   4.594  19.769  0.00  0.00    +0.000 OA
ATOM      7  C   UNL     1       4.881   4.535  18.597  0.00  0.00    +0.000 A 
ATOM      8  S   UNL     1       6.444   4.844  18.131  0.00  0.00    +0.000 S 
ENDROOT
BRANCH   5   9
ATOM      9  S   UNL     1       1.706   4.138  20.811  0.00  0.00    +0.000 S 
ATOM     10  O   UNL     1       2.370   3.452  21.893  0.00  0.00    +0.000 OA
ATOM     11  O   UNL     1       1.199   5.485  20.910  0.00  0.00    +0.000 OA
BRANCH   9  12
ATOM     12  N   UNL     1       0.453   3.153  20.275  0.00  0.00    +0.000 NA
ATOM     13  H   UNL     1       0.764   2.192  20.142  0.00  0.00    +0.000 HD
ATOM     14  H   UNL     1      -0.016   3.550  19.460  0.00  0.00    +0.000 HD
ENDBRANCH   9  12
ENDBRANCH   5   9
BRANCH   1  15
ATOM     15  C   UNL     1       7.130   4.424  15.445  0.00  0.00    +0.000 C 
BRANCH  15  16
ATOM     16  N   UNL     1       6.810   5.344  14.353  0.00  0.00    +0.000 NA
ATOM     17  H   UNL     1       5.846   5.655  14.446  0.00  0.00    +0.000 HD
BRANCH  16  18
ATOM     18  C   UNL     1       6.989   4.688  13.055  0.00  0.00    +0.000 C 
BRANCH  18  20
ATOM     19  C   UNL     1       5.081   3.459  11.952  0.00  0.00    +0.000 C 
ATOM     20  C   UNL     1       6.178   3.393  13.004  0.00  0.00    +0.000 C 
ENDBRANCH  18  20
ENDBRANCH  16  18
ENDBRANCH  15  16
ENDBRANCH   1  15
TORSDOF 6
ENDMDL
MODEL 6
REMARK VINA RESULT:      -6.1      5.132      6.377
REMARK  Name = 
REMARK  7 active torsions:
REMARK  status: ('A' for Active; 'I' for Inactive)
REMARK    1  A    between atoms: C_1  and  C_2
REMARK    2  A    between atoms: C_2  and  C_3
REMARK    3  A    between atoms: C_3  and  N_4
REMARK    4  A    between atoms: N_4  and  C_5
REMARK    5  A    between atoms: C_5  and  C_6
REMARK    6  A    between atoms: C_10  and  S_11
REMARK    7  A    between atoms: S_11  and  N_12
REMARK                            x       y       z     vdW  Elec       q    Type
REMARK                         _______ _______ _______ _____ _____    ______ ____
ROOT
ATOM      1  C   UNL     1       4.028   5.158  18.307  0.00  0.00    +0.000 A 
ATOM      2  C   UNL     1       3.886   6.242  17.430  0.00  0.00    +0.000 A 
ATOM      3  C   UNL     1       3.053   7.194  18.021  0.00  0.00    +0.000 A 
ATOM      4  C   UNL     1       2.550   8.435  17.655  0.00  0.00    +0.000 A 
ATOM      5  C   UNL     1       1.753   8.831  18.747  0.00  0.00    +0.000 A 
ATOM      6  O   UNL     1       1.797   7.832  19.726  0.00  0.00    +0.000 OA
ATOM      7  C   UNL     1       2.598   6.873  19.231  0.00  0.00    +0.000 A 
ATOM      8  S   UNL     1       3.121   5.401  19.793  0.00  0.00    +0.000 S 
ENDROOT
BRANCH   5   9
ATOM      9  S   UNL     1       0.772  10.302  19.029  0.00  0.00    +0.000 S 
ATOM     10  O   UNL     1      -0.463  10.069  18.320  0.00  0.00    +0.000 OA
ATOM     11  O   UNL     1       0.847  10.532  20.451  0.00  0.00    +0.000 OA
BRANCH   9  12
ATOM     12  N   UNL     1       1.570  11.568  18.260  0.00  0.00    +0.000 NA
ATOM     13  H   UNL     1       1.808  11.330  17.298  0.00  0.00    +0.000 HD
ATOM     14  H   UNL     1       2.363  11.901  18.808  0.00  0.00    +0.000 HD
ENDBRANCH   9  12
ENDBRANCH   5   9
BRANCH   1  15
ATOM     15  C   UNL     1       4.778   3.864  18.132  0.00  0.00    +0.000 C 
BRANCH  15  16
ATOM     16  N   UNL     1       6.123   3.948  18.701  0.00  0.00    +0.000 NA
ATOM     17  H   UNL     1       6.077   4.400  19.612  0.00  0.00    +0.000 HD
BRANCH  16  18
ATOM     18  C   UNL     1       7.010   4.713  17.821  0.00  0.00    +0.000 C 
BRANCH  18  20
ATOM     19  C   UNL     1       7.550   7.163  17.550  0.00  0.00    +0.000 C 
ATOM     20  C   UNL     1       7.470   5.993  18.520  0.00  0.00    +0.000 C 
ENDBRANCH  18  20
ENDBRANCH  16  18
ENDBRANCH  15  16
ENDBRANCH   1  15
TORSDOF 6
ENDMDL
MODEL 7
REMARK VINA RESULT:      -6.0      3.227      6.759
REMARK  Name = 
REMARK  7 active torsions:
REMARK  status: ('A' for Active; 'I' for Inactive)
REMARK    1  A    between atoms: C_1  and  C_2
REMARK    2  A    between atoms: C_2  and  C_3
REMARK    3  A    between atoms: C_3  and  N_4
REMARK    4  A    between atoms: N_4  and  C_5
REMARK    5  A    between atoms: C_5  and  C_6
REMARK    6  A    between atoms: C_10  and  S_11
REMARK    7  A    between atoms: S_11  and  N_12
REMARK                            x       y       z     vdW  Elec       q    Type
REMARK                         _______ _______ _______ _____ _____    ______ ____
ROOT
ATOM      1  C   UNL     1       6.103   4.600  16.570  0.00  0.00    +0.000 A 
ATOM      2  C   UNL     1       4.752   4.328  16.314  0.00  0.00    +0.000 A 
ATOM      3  C   UNL     1       4.064   4.277  17.527  0.00  0.00    +0.000 A 
ATOM      4  C   UNL     1       2.751   4.046  17.915  0.00  0.00    +0.000 A 
ATOM      5  C   UNL     1       2.775   4.134  19.320  0.00  0.00    +0.000 A 
ATOM      6  O   UNL     1       4.081   4.412  19.735  0.00  0.00    +0.000 OA
ATOM      7  C   UNL     1       4.812   4.488  18.610  0.00  0.00    +0.000 A 
ATOM      8  S   UNL     1       6.416   4.774  18.290  0.00  0.00    +0.000 S 
ENDROOT
BRANCH   5   9
ATOM      9  S   UNL     1       1.479   3.951  20.543  0.00  0.00    +0.000 S 
ATOM     10  O   UNL     1       1.055   5.297  20.842  0.00  0.00    +0.000 OA
ATOM     11  O   UNL     1       0.603   2.937  20.007  0.00  0.00    +0.000 OA
BRANCH   9  12
ATOM     12  N   UNL     1       2.205   3.326  21.925  0.00  0.00    +0.000 NA
ATOM     13  H   UNL     1       1.882   3.804  22.765  0.00  0.00    +0.000 HD
ATOM     14  H   UNL     1       3.221   3.294  21.835  0.00  0.00    +0.000 HD
ENDBRANCH   9  12
ENDBRANCH   5   9
BRANCH   1  15
ATOM     15  C   UNL     1       7.264   4.714  15.618  0.00  0.00    +0.000 C 
BRANCH  15  16
ATOM     16  N   UNL     1       6.876   5.398  14.384  0.00  0.00    +0.000 NA
ATOM     17  H   UNL     1       5.913   5.717  14.463  0.00  0.00    +0.000 HD
BRANCH  16  18
ATOM     18  C   UNL     1       7.001   4.500  13.233  0.00  0.00    +0.000 C 
BRANCH  18  20
ATOM     19  C   UNL     1       5.488   3.118  11.761  0.00  0.00    +0.000 C 
ATOM     20  C   UNL     1       5.814   3.537  13.187  0.00  0.00    +0.000 C 
ENDBRANCH  18  20
ENDBRANCH  16  18
ENDBRANCH  15  16
ENDBRANCH   1  15
TORSDOF 6
ENDMDL
MODEL 8
REMARK VINA RESULT:      -6.0      3.296      6.799
REMARK  Name = 
REMARK  7 active torsions:
REMARK  status: ('A' for Active; 'I' for Inactive)
REMARK    1  A    between atoms: C_1  and  C_2
REMARK    2  A    between atoms: C_2  and  C_3
REMARK    3  A    between atoms: C_3  and  N_4
REMARK    4  A    between atoms: N_4  and  C_5
REMARK    5  A    between atoms: C_5  and  C_6
REMARK    6  A    between atoms: C_10  and  S_11
REMARK    7  A    between atoms: S_11  and  N_12
REMARK                            x       y       z     vdW  Elec       q    Type
REMARK                         _______ _______ _______ _____ _____    ______ ____
ROOT
ATOM      1  C   UNL     1       6.166   4.977  16.674  0.00  0.00    +0.000 A 
ATOM      2  C   UNL     1       6.057   4.013  17.686  0.00  0.00    +0.000 A 
ATOM      3  C   UNL     1       4.871   4.229  18.390  0.00  0.00    +0.000 A 
ATOM      4  C   UNL     1       4.233   3.631  19.468  0.00  0.00    +0.000 A 
ATOM      5  C   UNL     1       3.061   4.388  19.653  0.00  0.00    +0.000 A 
ATOM      6  O   UNL     1       3.024   5.407  18.695  0.00  0.00    +0.000 OA
ATOM      7  C   UNL     1       4.140   5.259  17.962  0.00  0.00    +0.000 A 
ATOM      8  S   UNL     1       4.793   6.074  16.672  0.00  0.00    +0.000 S 
ENDROOT
BRANCH   5   9
ATOM      9  S   UNL     1       1.730   4.244  20.843  0.00  0.00    +0.000 S 
ATOM     10  O   UNL     1       2.305   3.537  21.961  0.00  0.00    +0.000 OA
ATOM     11  O   UNL     1       1.171   5.571  20.938  0.00  0.00    +0.000 OA
BRANCH   9  12
ATOM     12  N   UNL     1       0.569   3.244  20.148  0.00  0.00    +0.000 NA
ATOM     13  H   UNL     1       0.391   2.423  20.725  0.00  0.00    +0.000 HD
ATOM     14  H   UNL     1       0.793   3.024  19.178  0.00  0.00    +0.000 HD
ENDBRANCH   9  12
ENDBRANCH   5   9
BRANCH   1  15
ATOM     15  C   UNL     1       7.266   5.209  15.674  0.00  0.00    +0.000 C 
BRANCH  15  16
ATOM     16  N   UNL     1       6.755   5.177  14.303  0.00  0.00    +0.000 NA
ATOM     17  H   UNL     1       6.023   5.876  14.200  0.00  0.00    +0.000 HD
BRANCH  16  18
ATOM     18  C   UNL     1       6.215   3.853  13.983  0.00  0.00    +0.000 C 
BRANCH  18  20
ATOM     19  C   UNL     1       4.999   3.241  11.858  0.00  0.00    +0.000 C 
ATOM     20  C   UNL     1       6.344   3.582  12.483  0.00  0.00    +0.000 C 
ENDBRANCH  18  20
ENDBRANCH  16  18
ENDBRANCH  15  16
ENDBRANCH   1  15
TORSDOF 6
ENDMDL
MODEL 9
REMARK VINA RESULT:      -6.0      0.879      1.051
REMARK  Name = 
REMARK  7 active torsions:
REMARK  status: ('A' for Active; 'I' for Inactive)
REMARK    1  A    between atoms: C_1  and  C_2
REMARK    2  A    between atoms: C_2  and  C_3
REMARK    3  A    between atoms: C_3  and  N_4
REMARK    4  A    between atoms: N_4  and  C_5
REMARK    5  A    between atoms: C_5  and  C_6
REMARK    6  A    between atoms: C_10  and  S_11
REMARK    7  A    between atoms: S_11  and  N_12
REMARK                            x       y       z     vdW  Elec       q    Type
REMARK                         _______ _______ _______ _____ _____    ______ ____
ROOT
ATOM      1  C   UNL     1       1.773   3.168  18.269  0.00  0.00    +0.000 A 
ATOM      2  C   UNL     1       2.087   4.490  17.926  0.00  0.00    +0.000 A 
ATOM      3  C   UNL     1       3.383   4.527  17.410  0.00  0.00    +0.000 A 
ATOM      4  C   UNL     1       4.229   5.513  16.921  0.00  0.00    +0.000 A 
ATOM      5  C   UNL     1       5.412   4.829  16.578  0.00  0.00    +0.000 A 
ATOM      6  O   UNL     1       5.248   3.470  16.864  0.00  0.00    +0.000 OA
ATOM      7  C   UNL     1       4.006   3.350  17.362  0.00  0.00    +0.000 A 
ATOM      8  S   UNL     1       3.105   2.074  17.925  0.00  0.00    +0.000 S 
ENDROOT
BRANCH   5   9
ATOM      9  S   UNL     1       6.961   5.409  15.891  0.00  0.00    +0.000 S 
ATOM     10  O   UNL     1       6.838   5.205  14.468  0.00  0.00    +0.000 OA
ATOM     11  O   UNL     1       7.177   6.700  16.498  0.00  0.00    +0.000 OA
BRANCH   9  12
ATOM     12  N   UNL     1       8.157   4.368  16.454  0.00  0.00    +0.000 NA
ATOM     13  H   UNL     1       7.755   3.551  16.912  0.00  0.00    +0.000 HD
ATOM     14  H   UNL     1       8.846   4.860  17.023  0.00  0.00    +0.000 HD
ENDBRANCH   9  12
ENDBRANCH   5   9
BRANCH   1  15
ATOM     15  C   UNL     1       0.529   2.602  18.900  0.00  0.00    +0.000 C 
BRANCH  15  16
ATOM     16  N   UNL     1       0.309   3.158  20.235  0.00  0.00    +0.000 NA
ATOM     17  H   UNL     1       0.419   4.169  20.202  0.00  0.00    +0.000 HD
BRANCH  16  18
ATOM     18  C   UNL     1       1.262   2.593  21.194  0.00  0.00    +0.000 C 
BRANCH  18  20
ATOM     19  C   UNL     1       1.838   5.049  21.183  0.00  0.00    +0.000 C 
ATOM     20  C   UNL     1       2.274   3.658  21.619  0.00  0.00    +0.000 C 
ENDBRANCH  18  20
ENDBRANCH  16  18
ENDBRANCH  15  16
ENDBRANCH   1  15
TORSDOF 6
ENDMDL
