MODEL 1
REMARK VINA RESULT:      -8.1      0.000      0.000
REMARK  Name = 
REMARK  4 active torsions:
REMARK  status: ('A' for Active; 'I' for Inactive)
REMARK    1  A    between atoms: C_1  and  C_2
REMARK    2  A    between atoms: C_5  and  N_6
REMARK    3  A    between atoms: N_9  and  N_10
REMARK    4  A    between atoms: C_11  and  C_12
REMARK                            x       y       z     vdW  Elec       q    Type
REMARK                         _______ _______ _______ _____ _____    ______ ____
ROOT
ATOM      1  N   UNL     1       3.288   6.659  19.207  0.00  0.00    +0.000 N 
ATOM      2  C   UNL     1       4.062   6.659  18.052  0.00  0.00    +0.000 C 
ATOM      3  O   UNL     1       4.126   7.580  17.244  0.00  0.00    +0.000 OA
ATOM      4  N   UNL     1       4.817   5.489  17.950  0.00  0.00    +0.000 N 
ATOM      5  H   UNL     1       3.713   6.213  20.007  0.00  0.00    +0.000 HD
ATOM      6  H   UNL     1       4.327   4.657  18.253  0.00  0.00    +0.000 HD
ENDROOT
BRANCH   4   7
ATOM      7  N   UNL     1       5.525   5.293  16.724  0.00  0.00    +0.000 N 
ATOM      8  C   UNL     1       6.795   5.817  16.565  0.00  0.00    +0.000 A 
ATOM      9  C   UNL     1       7.429   6.596  17.690  0.00  0.00    +0.000 C 
ATOM     10  N   UNL     1       7.494   5.652  15.486  0.00  0.00    +0.000 NA
ATOM     11  C   UNL     1       6.934   4.926  14.426  0.00  0.00    +0.000 A 
ATOM     12  C   UNL     1       7.670   4.772  13.248  0.00  0.00    +0.000 A 
ATOM     13  C   UNL     1       7.152   4.040  12.175  0.00  0.00    +0.000 A 
ATOM     14  C   UNL     1       5.881   3.472  12.264  0.00  0.00    +0.000 A 
ATOM     15  C   UNL     1       5.138   3.615  13.434  0.00  0.00    +0.000 A 
ATOM     16  C   UNL     1       5.680   4.323  14.512  0.00  0.00    +0.000 A 
ATOM     17  C   UNL     1       4.970   4.409  15.801  0.00  0.00    +0.000 A 
ATOM     18  O   UNL     1       4.023   3.655  16.035  0.00  0.00    +0.000 OA
ENDBRANCH   4   7
BRANCH   1  23
ATOM     19  C   UNL     1      -0.709  10.581  20.432  0.00  0.00    +0.000 C 
ATOM     20  C   UNL     1       0.309   9.535  20.085  0.00  0.00    +0.000 A 
ATOM     21  C   UNL     1       0.901   9.502  18.820  0.00  0.00    +0.000 A 
ATOM     22  C   UNL     1       1.882   8.553  18.517  0.00  0.00    +0.000 A 
ATOM     23  C   UNL     1       2.283   7.616  19.473  0.00  0.00    +0.000 A 
ATOM     24  C   UNL     1       1.655   7.609  20.722  0.00  0.00    +0.000 A 
ATOM     25  C   UNL     1       0.690   8.576  21.034  0.00  0.00    +0.000 A 
ENDBRANCH   1  23
TORSDOF 2
ENDMDL
MODEL 2
REMARK VINA RESULT:      -8.0      0.235      1.028
REMARK  Name = 
REMARK  4 active torsions:
REMARK  status: ('A' for Active; 'I' for Inactive)
REMARK    1  A    between atoms: C_1  and  C_2
REMARK    2  A    between atoms: C_5  and  N_6
REMARK    3  A    between atoms: N_9  and  N_10
REMARK    4  A    between atoms: C_11  and  C_12
REMARK                            x       y       z     vdW  Elec       q    Type
REMARK                         _______ _______ _______ _____ _____    ______ ____
ROOT
ATOM      1  N   UNL     1       3.226   6.808  19.090  0.00  0.00    +0.000 N 
ATOM      2  C   UNL     1       4.018   6.772  17.949  0.00  0.00    +0.000 C 
ATOM      3  O   UNL     1       4.112   7.675  17.125  0.00  0.00    +0.000 OA
ATOM      4  N   UNL     1       4.754   5.587  17.882  0.00  0.00    +0.000 N 
ATOM      5  H   UNL     1       3.629   6.369  19.906  0.00  0.00    +0.000 HD
ATOM      6  H   UNL     1       4.246   4.769  18.193  0.00  0.00    +0.000 HD
ENDROOT
BRANCH   4   7
ATOM      7  N   UNL     1       5.479   5.356  16.672  0.00  0.00    +0.000 N 
ATOM      8  C   UNL     1       6.761   5.852  16.526  0.00  0.00    +0.000 A 
ATOM      9  C   UNL     1       7.392   6.638  17.647  0.00  0.00    +0.000 C 
ATOM     10  N   UNL     1       7.475   5.653  15.462  0.00  0.00    +0.000 NA
ATOM     11  C   UNL     1       6.919   4.920  14.405  0.00  0.00    +0.000 A 
ATOM     12  C   UNL     1       7.671   4.730  13.242  0.00  0.00    +0.000 A 
ATOM     13  C   UNL     1       7.157   3.989  12.174  0.00  0.00    +0.000 A 
ATOM     14  C   UNL     1       5.874   3.448  12.251  0.00  0.00    +0.000 A 
ATOM     15  C   UNL     1       5.114   3.626  13.406  0.00  0.00    +0.000 A 
ATOM     16  C   UNL     1       5.652   4.343  14.480  0.00  0.00    +0.000 A 
ATOM     17  C   UNL     1       4.922   4.466  15.755  0.00  0.00    +0.000 A 
ATOM     18  O   UNL     1       3.957   3.735  15.986  0.00  0.00    +0.000 OA
ENDBRANCH   4   7
BRANCH   1  23
ATOM     19  C   UNL     1      -0.885  10.722  19.890  0.00  0.00    +0.000 C 
ATOM     20  C   UNL     1       0.218   9.721  19.704  0.00  0.00    +0.000 A 
ATOM     21  C   UNL     1       0.633   8.909  20.762  0.00  0.00    +0.000 A 
ATOM     22  C   UNL     1       1.630   7.947  20.572  0.00  0.00    +0.000 A 
ATOM     23  C   UNL     1       2.232   7.786  19.322  0.00  0.00    +0.000 A 
ATOM     24  C   UNL     1       1.860   8.633  18.274  0.00  0.00    +0.000 A 
ATOM     25  C   UNL     1       0.843   9.580  18.458  0.00  0.00    +0.000 A 
ENDBRANCH   1  23
TORSDOF 2
ENDMDL
MODEL 3
REMARK VINA RESULT:      -7.7      3.713      6.117
REMARK  Name = 
REMARK  4 active torsions:
REMARK  status: ('A' for Active; 'I' for Inactive)
REMARK    1  A    between atoms: C_1  and  C_2
REMARK    2  A    between atoms: C_5  and  N_6
REMARK    3  A    between atoms: N_9  and  N_10
REMARK    4  A    between atoms: C_11  and  C_12
REMARK                            x       y       z     vdW  Elec       q    Type
REMARK                         _______ _______ _______ _____ _____    ______ ____
ROOT
ATOM      1  N   UNL     1       8.608   8.135  18.157  0.00  0.00    +0.000 N 
ATOM      2  C   UNL     1       7.401   7.532  17.822  0.00  0.00    +0.000 C 
ATOM      3  O   UNL     1       6.376   8.128  17.508  0.00  0.00    +0.000 OA
ATOM      4  N   UNL     1       7.513   6.141  17.827  0.00  0.00    +0.000 N 
ATOM      5  H   UNL     1       9.432   7.653  17.830  0.00  0.00    +0.000 HD
ATOM      6  H   UNL     1       8.090   5.777  18.575  0.00  0.00    +0.000 HD
ENDROOT
BRANCH   4   7
ATOM      7  N   UNL     1       6.299   5.403  17.664  0.00  0.00    +0.000 N 
ATOM      8  C   UNL     1       5.945   4.917  16.419  0.00  0.00    +0.000 A 
ATOM      9  C   UNL     1       6.844   5.167  15.235  0.00  0.00    +0.000 C 
ATOM     10  N   UNL     1       4.869   4.222  16.215  0.00  0.00    +0.000 NA
ATOM     11  C   UNL     1       4.018   3.967  17.298  0.00  0.00    +0.000 A 
ATOM     12  C   UNL     1       2.840   3.247  17.078  0.00  0.00    +0.000 A 
ATOM     13  C   UNL     1       1.974   2.957  18.137  0.00  0.00    +0.000 A 
ATOM     14  C   UNL     1       2.269   3.406  19.425  0.00  0.00    +0.000 A 
ATOM     15  C   UNL     1       3.441   4.122  19.659  0.00  0.00    +0.000 A 
ATOM     16  C   UNL     1       4.315   4.378  18.597  0.00  0.00    +0.000 A 
ATOM     17  C   UNL     1       5.612   5.042  18.821  0.00  0.00    +0.000 A 
ATOM     18  O   UNL     1       6.060   5.149  19.964  0.00  0.00    +0.000 OA
ENDBRANCH   4   7
BRANCH   1  23
ATOM     19  C   UNL     1       9.320  13.710  19.283  0.00  0.00    +0.000 C 
ATOM     20  C   UNL     1       9.092  12.256  18.993  0.00  0.00    +0.000 A 
ATOM     21  C   UNL     1       8.510  11.848  17.790  0.00  0.00    +0.000 A 
ATOM     22  C   UNL     1       8.340  10.489  17.506  0.00  0.00    +0.000 A 
ATOM     23  C   UNL     1       8.743   9.516  18.424  0.00  0.00    +0.000 A 
ATOM     24  C   UNL     1       9.275   9.920  19.651  0.00  0.00    +0.000 A 
ATOM     25  C   UNL     1       9.469  11.281  19.925  0.00  0.00    +0.000 A 
ENDBRANCH   1  23
TORSDOF 2
ENDMDL
MODEL 4
REMARK VINA RESULT:      -7.5      3.690      6.163
REMARK  Name = 
REMARK  4 active torsions:
REMARK  status: ('A' for Active; 'I' for Inactive)
REMARK    1  A    between atoms: C_1  and  C_2
REMARK    2  A    between atoms: C_5  and  N_6
REMARK    3  A    between atoms: N_9  and  N_10
REMARK    4  A    between atoms: C_11  and  C_12
REMARK                            x       y       z     vdW  Elec       q    Type
REMARK                         _______ _______ _______ _____ _____    ______ ____
ROOT
ATOM      1  N   UNL     1       8.634   8.096  18.228  0.00  0.00    +0.000 N 
ATOM      2  C   UNL     1       7.429   7.507  17.864  0.00  0.00    +0.000 C 
ATOM      3  O   UNL     1       6.423   8.115  17.513  0.00  0.00    +0.000 OA
ATOM      4  N   UNL     1       7.519   6.114  17.887  0.00  0.00    +0.000 N 
ATOM      5  H   UNL     1       9.461   7.598  17.930  0.00  0.00    +0.000 HD
ATOM      6  H   UNL     1       8.069   5.751  18.656  0.00  0.00    +0.000 HD
ENDROOT
BRANCH   4   7
ATOM      7  N   UNL     1       6.300   5.393  17.697  0.00  0.00    +0.000 N 
ATOM      8  C   UNL     1       5.973   4.903  16.446  0.00  0.00    +0.000 A 
ATOM      9  C   UNL     1       6.907   5.131  15.285  0.00  0.00    +0.000 C 
ATOM     10  N   UNL     1       4.893   4.222  16.218  0.00  0.00    +0.000 NA
ATOM     11  C   UNL     1       4.009   3.988  17.279  0.00  0.00    +0.000 A 
ATOM     12  C   UNL     1       2.827   3.282  17.033  0.00  0.00    +0.000 A 
ATOM     13  C   UNL     1       1.929   3.013  18.070  0.00  0.00    +0.000 A 
ATOM     14  C   UNL     1       2.195   3.467  19.362  0.00  0.00    +0.000 A 
ATOM     15  C   UNL     1       3.371   4.168  19.623  0.00  0.00    +0.000 A 
ATOM     16  C   UNL     1       4.277   4.404  18.583  0.00  0.00    +0.000 A 
ATOM     17  C   UNL     1       5.577   5.050  18.837  0.00  0.00    +0.000 A 
ATOM     18  O   UNL     1       5.996   5.160  19.991  0.00  0.00    +0.000 OA
ENDBRANCH   4   7
BRANCH   1  23
ATOM     19  C   UNL     1       9.074  13.724  19.221  0.00  0.00    +0.000 C 
ATOM     20  C   UNL     1       9.001  12.249  18.956  0.00  0.00    +0.000 A 
ATOM     21  C   UNL     1       9.468  11.328  19.897  0.00  0.00    +0.000 A 
ATOM     22  C   UNL     1       9.358   9.954  19.664  0.00  0.00    +0.000 A 
ATOM     23  C   UNL     1       8.783   9.478  18.483  0.00  0.00    +0.000 A 
ATOM     24  C   UNL     1       8.365  10.394  17.515  0.00  0.00    +0.000 A 
ATOM     25  C   UNL     1       8.453  11.771  17.759  0.00  0.00    +0.000 A 
ENDBRANCH   1  23
TORSDOF 2
ENDMDL
MODEL 5
REMARK VINA RESULT:      -7.5      4.942     10.057
REMARK  Name = 
REMARK  4 active torsions:
REMARK  status: ('A' for Active; 'I' for Inactive)
REMARK    1  A    between atoms: C_1  and  C_2
REMARK    2  A    between atoms: C_5  and  N_6
REMARK    3  A    between atoms: N_9  and  N_10
REMARK    4  A    between atoms: C_11  and  C_12
REMARK                            x       y       z     vdW  Elec       q    Type
REMARK                         _______ _______ _______ _____ _____    ______ ____
ROOT
ATOM      1  N   UNL     1       2.136   7.433  20.638  0.00  0.00    +0.000 N 
ATOM      2  C   UNL     1       0.988   8.188  20.852  0.00  0.00    +0.000 C 
ATOM      3  O   UNL     1      -0.150   7.737  20.926  0.00  0.00    +0.000 OA
ATOM      4  N   UNL     1       1.297   9.536  21.036  0.00  0.00    +0.000 N 
ATOM      5  H   UNL     1       2.952   7.741  21.147  0.00  0.00    +0.000 HD
ATOM      6  H   UNL     1       2.042   9.873  20.438  0.00  0.00    +0.000 HD
ENDROOT
BRANCH   4   7
ATOM      7  N   UNL     1       0.193  10.440  21.098  0.00  0.00    +0.000 N 
ATOM      8  C   UNL     1      -0.423  10.864  19.935  0.00  0.00    +0.000 A 
ATOM      9  C   UNL     1       0.075  10.368  18.601  0.00  0.00    +0.000 C 
ATOM     10  N   UNL     1      -1.443  11.665  19.930  0.00  0.00    +0.000 NA
ATOM     11  C   UNL     1      -1.934  12.137  21.155  0.00  0.00    +0.000 A 
ATOM     12  C   UNL     1      -3.013  13.026  21.155  0.00  0.00    +0.000 A 
ATOM     13  C   UNL     1      -3.541  13.504  22.357  0.00  0.00    +0.000 A 
ATOM     14  C   UNL     1      -2.980  13.114  23.573  0.00  0.00    +0.000 A 
ATOM     15  C   UNL     1      -1.906  12.226  23.588  0.00  0.00    +0.000 A 
ATOM     16  C   UNL     1      -1.406  11.729  22.379  0.00  0.00    +0.000 A 
ATOM     17  C   UNL     1      -0.341  10.711  22.357  0.00  0.00    +0.000 A 
ATOM     18  O   UNL     1      -0.054  10.095  23.386  0.00  0.00    +0.000 OA
ENDBRANCH   4   7
BRANCH   1  23
ATOM     19  C   UNL     1       2.199   1.977  18.881  0.00  0.00    +0.000 C 
ATOM     20  C   UNL     1       2.141   3.401  19.349  0.00  0.00    +0.000 A 
ATOM     21  C   UNL     1       1.983   3.704  20.704  0.00  0.00    +0.000 A 
ATOM     22  C   UNL     1       1.973   5.033  21.140  0.00  0.00    +0.000 A 
ATOM     23  C   UNL     1       2.117   6.081  20.227  0.00  0.00    +0.000 A 
ATOM     24  C   UNL     1       2.220   5.785  18.865  0.00  0.00    +0.000 A 
ATOM     25  C   UNL     1       2.254   4.453  18.431  0.00  0.00    +0.000 A 
ENDBRANCH   1  23
TORSDOF 2
ENDMDL
MODEL 6
REMARK VINA RESULT:      -7.4      4.972     10.021
REMARK  Name = 
REMARK  4 active torsions:
REMARK  status: ('A' for Active; 'I' for Inactive)
REMARK    1  A    between atoms: C_1  and  C_2
REMARK    2  A    between atoms: C_5  and  N_6
REMARK    3  A    between atoms: N_9  and  N_10
REMARK    4  A    between atoms: C_11  and  C_12
REMARK                            x       y       z     vdW  Elec       q    Type
REMARK                         _______ _______ _______ _____ _____    ______ ____
ROOT
ATOM      1  N   UNL     1       2.114   7.446  20.646  0.00  0.00    +0.000 N 
ATOM      2  C   UNL     1       0.968   8.204  20.854  0.00  0.00    +0.000 C 
ATOM      3  O   UNL     1      -0.175   7.761  20.898  0.00  0.00    +0.000 OA
ATOM      4  N   UNL     1       1.283   9.547  21.069  0.00  0.00    +0.000 N 
ATOM      5  H   UNL     1       2.923   7.738  21.175  0.00  0.00    +0.000 HD
ATOM      6  H   UNL     1       2.040   9.889  20.491  0.00  0.00    +0.000 HD
ENDROOT
BRANCH   4   7
ATOM      7  N   UNL     1       0.183  10.458  21.127  0.00  0.00    +0.000 N 
ATOM      8  C   UNL     1      -0.428  10.884  19.962  0.00  0.00    +0.000 A 
ATOM      9  C   UNL     1       0.070  10.384  18.630  0.00  0.00    +0.000 C 
ATOM     10  N   UNL     1      -1.443  11.690  19.955  0.00  0.00    +0.000 NA
ATOM     11  C   UNL     1      -1.934  12.166  21.178  0.00  0.00    +0.000 A 
ATOM     12  C   UNL     1      -3.007  13.062  21.175  0.00  0.00    +0.000 A 
ATOM     13  C   UNL     1      -3.536  13.544  22.376  0.00  0.00    +0.000 A 
ATOM     14  C   UNL     1      -2.979  13.152  23.593  0.00  0.00    +0.000 A 
ATOM     15  C   UNL     1      -1.911  12.257  23.611  0.00  0.00    +0.000 A 
ATOM     16  C   UNL     1      -1.411  11.757  22.404  0.00  0.00    +0.000 A 
ATOM     17  C   UNL     1      -0.352  10.732  22.385  0.00  0.00    +0.000 A 
ATOM     18  O   UNL     1      -0.071  10.116  23.415  0.00  0.00    +0.000 OA
ENDBRANCH   4   7
BRANCH   1  23
ATOM     19  C   UNL     1       1.886   1.970  18.966  0.00  0.00    +0.000 C 
ATOM     20  C   UNL     1       1.987   3.404  19.397  0.00  0.00    +0.000 A 
ATOM     21  C   UNL     1       2.185   4.421  18.460  0.00  0.00    +0.000 A 
ATOM     22  C   UNL     1       2.234   5.759  18.863  0.00  0.00    +0.000 A 
ATOM     23  C   UNL     1       2.093   6.101  20.210  0.00  0.00    +0.000 A 
ATOM     24  C   UNL     1       1.950   5.085  21.157  0.00  0.00    +0.000 A 
ATOM     25  C   UNL     1       1.875   3.745  20.751  0.00  0.00    +0.000 A 
ENDBRANCH   1  23
TORSDOF 2
ENDMDL
MODEL 7
REMARK VINA RESULT:      -7.4      4.723     10.225
REMARK  Name = 
REMARK  4 active torsions:
REMARK  status: ('A' for Active; 'I' for Inactive)
REMARK    1  A    between atoms: C_1  and  C_2
REMARK    2  A    between atoms: C_5  and  N_6
REMARK    3  A    between atoms: N_9  and  N_10
REMARK    4  A    between atoms: C_11  and  C_12
REMARK                            x       y       z     vdW  Elec       q    Type
REMARK                         _______ _______ _______ _____ _____    ______ ____
ROOT
ATOM      1  N   UNL     1       2.033   7.908  20.945  0.00  0.00    +0.000 N 
ATOM      2  C   UNL     1       0.934   8.759  20.984  0.00  0.00    +0.000 C 
ATOM      3  O   UNL     1      -0.170   8.509  20.514  0.00  0.00    +0.000 OA
ATOM      4  N   UNL     1       1.226   9.928  21.689  0.00  0.00    +0.000 N 
ATOM      5  H   UNL     1       2.610   7.916  21.773  0.00  0.00    +0.000 HD
ATOM      6  H   UNL     1       2.159  10.284  21.526  0.00  0.00    +0.000 HD
ENDROOT
BRANCH   4   7
ATOM      7  N   UNL     1       0.233  10.955  21.658  0.00  0.00    +0.000 N 
ATOM      8  C   UNL     1       0.201  11.858  20.611  0.00  0.00    +0.000 A 
ATOM      9  C   UNL     1       1.218  11.753  19.502  0.00  0.00    +0.000 C 
ATOM     10  N   UNL     1      -0.689  12.795  20.517  0.00  0.00    +0.000 NA
ATOM     11  C   UNL     1      -1.652  12.913  21.528  0.00  0.00    +0.000 A 
ATOM     12  C   UNL     1      -2.595  13.942  21.449  0.00  0.00    +0.000 A 
ATOM     13  C   UNL     1      -3.582  14.081  22.429  0.00  0.00    +0.000 A 
ATOM     14  C   UNL     1      -3.621  13.202  23.512  0.00  0.00    +0.000 A 
ATOM     15  C   UNL     1      -2.689  12.169  23.602  0.00  0.00    +0.000 A 
ATOM     16  C   UNL     1      -1.726  12.022  22.598  0.00  0.00    +0.000 A 
ATOM     17  C   UNL     1      -0.789  10.884  22.602  0.00  0.00    +0.000 A 
ATOM     18  O   UNL     1      -1.000   9.915  23.334  0.00  0.00    +0.000 OA
ENDBRANCH   4   7
BRANCH   1  23
ATOM     19  C   UNL     1       2.445   3.246  17.636  0.00  0.00    +0.000 C 
ATOM     20  C   UNL     1       2.295   4.465  18.498  0.00  0.00    +0.000 A 
ATOM     21  C   UNL     1       1.775   4.368  19.791  0.00  0.00    +0.000 A 
ATOM     22  C   UNL     1       1.679   5.500  20.606  0.00  0.00    +0.000 A 
ATOM     23  C   UNL     1       2.095   6.749  20.138  0.00  0.00    +0.000 A 
ATOM     24  C   UNL     1       2.563   6.861  18.827  0.00  0.00    +0.000 A 
ATOM     25  C   UNL     1       2.684   5.723  18.019  0.00  0.00    +0.000 A 
ENDBRANCH   1  23
TORSDOF 2
ENDMDL
MODEL 8
REMARK VINA RESULT:      -7.4      5.274     10.708
REMARK  Name = 
REMARK  4 active torsions:
REMARK  status: ('A' for Active; 'I' for Inactive)
REMARK    1  A    between atoms: C_1  and  C_2
REMARK    2  A    between atoms: C_5  and  N_6
REMARK    3  A    between atoms: N_9  and  N_10
REMARK    4  A    between atoms: C_11  and  C_12
REMARK                            x       y       z     vdW  Elec       q    Type
REMARK                         _______ _______ _______ _____ _____    ______ ____
ROOT
ATOM      1  N   UNL     1       0.652  10.312  18.229  0.00  0.00    +0.000 N 
ATOM      2  C   UNL     1      -0.718  10.406  18.443  0.00  0.00    +0.000 C 
ATOM      3  O   UNL     1      -1.385   9.621  19.109  0.00  0.00    +0.000 OA
ATOM      4  N   UNL     1      -1.245  11.553  17.847  0.00  0.00    +0.000 N 
ATOM      5  H   UNL     1       1.144  11.193  18.214  0.00  0.00    +0.000 HD
ATOM      6  H   UNL     1      -0.839  11.772  16.946  0.00  0.00    +0.000 HD
ENDROOT
BRANCH   4   7
ATOM      7  N   UNL     1      -2.668  11.677  17.851  0.00  0.00    +0.000 N 
ATOM      8  C   UNL     1      -3.411  11.180  16.797  0.00  0.00    +0.000 A 
ATOM      9  C   UNL     1      -2.714  10.506  15.642  0.00  0.00    +0.000 C 
ATOM     10  N   UNL     1      -4.706  11.243  16.756  0.00  0.00    +0.000 NA
ATOM     11  C   UNL     1      -5.383  11.857  17.819  0.00  0.00    +0.000 A 
ATOM     12  C   UNL     1      -6.776  11.956  17.766  0.00  0.00    +0.000 A 
ATOM     13  C   UNL     1      -7.489  12.546  18.815  0.00  0.00    +0.000 A 
ATOM     14  C   UNL     1      -6.810  13.062  19.919  0.00  0.00    +0.000 A 
ATOM     15  C   UNL     1      -5.421  12.966  19.986  0.00  0.00    +0.000 A 
ATOM     16  C   UNL     1      -4.722  12.346  18.945  0.00  0.00    +0.000 A 
ATOM     17  C   UNL     1      -3.266  12.133  19.025  0.00  0.00    +0.000 A 
ATOM     18  O   UNL     1      -2.683  12.260  20.104  0.00  0.00    +0.000 OA
ENDBRANCH   4   7
BRANCH   1  23
ATOM     19  C   UNL     1       3.604   5.582  19.561  0.00  0.00    +0.000 C 
ATOM     20  C   UNL     1       2.868   6.842  19.212  0.00  0.00    +0.000 A 
ATOM     21  C   UNL     1       2.987   7.414  17.943  0.00  0.00    +0.000 A 
ATOM     22  C   UNL     1       2.264   8.563  17.610  0.00  0.00    +0.000 A 
ATOM     23  C   UNL     1       1.415   9.164  18.542  0.00  0.00    +0.000 A 
ATOM     24  C   UNL     1       1.334   8.629  19.830  0.00  0.00    +0.000 A 
ATOM     25  C   UNL     1       2.039   7.462  20.157  0.00  0.00    +0.000 A 
ENDBRANCH   1  23
TORSDOF 2
ENDMDL
MODEL 9
REMARK VINA RESULT:      -7.4      4.177      7.020
REMARK  Name = 
REMARK  4 active torsions:
REMARK  status: ('A' for Active; 'I' for Inactive)
REMARK    1  A    between atoms: C_1  and  C_2
REMARK    2  A    between atoms: C_5  and  N_6
REMARK    3  A    between atoms: N_9  and  N_10
REMARK    4  A    between atoms: C_11  and  C_12
REMARK                            x       y       z     vdW  Elec       q    Type
REMARK                         _______ _______ _______ _____ _____    ______ ____
ROOT
ATOM      1  N   UNL     1      -1.637  11.770  19.221  0.00  0.00    +0.000 N 
ATOM      2  C   UNL     1      -0.969  10.564  19.043  0.00  0.00    +0.000 C 
ATOM      3  O   UNL     1      -1.410   9.596  18.432  0.00  0.00    +0.000 OA
ATOM      4  N   UNL     1       0.309  10.606  19.601  0.00  0.00    +0.000 N 
ATOM      5  H   UNL     1      -1.052  12.592  19.183  0.00  0.00    +0.000 HD
ATOM      6  H   UNL     1       0.358  11.108  20.480  0.00  0.00    +0.000 HD
ENDROOT
BRANCH   4   7
ATOM      7  N   UNL     1       1.032   9.374  19.633  0.00  0.00    +0.000 N 
ATOM      8  C   UNL     1       0.865   8.498  20.689  0.00  0.00    +0.000 A 
ATOM      9  C   UNL     1      -0.083   8.847  21.808  0.00  0.00    +0.000 C 
ATOM     10  N   UNL     1       1.476   7.357  20.760  0.00  0.00    +0.000 NA
ATOM     11  C   UNL     1       2.358   7.001  19.731  0.00  0.00    +0.000 A 
ATOM     12  C   UNL     1       3.045   5.786  19.818  0.00  0.00    +0.000 A 
ATOM     13  C   UNL     1       3.919   5.388  18.803  0.00  0.00    +0.000 A 
ATOM     14  C   UNL     1       4.133   6.214  17.699  0.00  0.00    +0.000 A 
ATOM     15  C   UNL     1       3.453   7.426  17.598  0.00  0.00    +0.000 A 
ATOM     16  C   UNL     1       2.556   7.799  18.605  0.00  0.00    +0.000 A 
ATOM     17  C   UNL     1       1.742   9.021  18.486  0.00  0.00    +0.000 A 
ATOM     18  O   UNL     1       1.645   9.594  17.399  0.00  0.00    +0.000 OA
ENDBRANCH   4   7
BRANCH   1  23
ATOM     19  C   UNL     1      -7.189  12.674  18.121  0.00  0.00    +0.000 C 
ATOM     20  C   UNL     1      -5.744  12.396  18.412  0.00  0.00    +0.000 A 
ATOM     21  C   UNL     1      -4.928  11.777  17.461  0.00  0.00    +0.000 A 
ATOM     22  C   UNL     1      -3.572  11.560  17.721  0.00  0.00    +0.000 A 
ATOM     23  C   UNL     1      -3.009  11.953  18.938  0.00  0.00    +0.000 A 
ATOM     24  C   UNL     1      -3.832  12.522  19.913  0.00  0.00    +0.000 A 
ATOM     25  C   UNL     1      -5.186  12.763  19.644  0.00  0.00    +0.000 A 
ENDBRANCH   1  23
TORSDOF 2
ENDMDL
