MODEL 1
REMARK VINA RESULT:      -9.8      0.000      0.000
REMARK  Name = 
REMARK  8 active torsions:
REMARK  status: ('A' for Active; 'I' for Inactive)
REMARK    1  A    between atoms: C_1  and  N_2
REMARK    2  A    between atoms: N_2  and  C_3
REMARK    3  A    between atoms: C_3  and  C_4
REMARK    4  A    between atoms: C_3  and  C_5
REMARK    5  A    between atoms: C_10  and  C_11
REMARK    6  A    between atoms: C_12  and  C_13
REMARK    7  A    between atoms: C_22  and  N_23
REMARK    8  A    between atoms: C_24  and  C_26
REMARK                            x       y       z     vdW  Elec       q    Type
REMARK                         _______ _______ _______ _____ _____    ______ ____
ROOT
ATOM      1  C   UNL     1       6.133   4.242  14.278  0.00  0.00    +0.000 C 
ATOM      2  O   UNL     1       4.944   4.449  14.510  0.00  0.00    +0.000 OA
ATOM      3  N   UNL     1       7.165   4.465  15.170  0.00  0.00    +0.000 N 
ATOM      4  C   UNL     1       6.907   4.972  16.443  0.00  0.00    +0.000 A 
ATOM      5  C   UNL     1       5.811   4.524  17.186  0.00  0.00    +0.000 A 
ATOM      6  C   UNL     1       5.481   5.196  18.345  0.00  0.00    +0.000 A 
ATOM      7  C   UNL     1       6.412   6.184  18.803  0.00  0.00    +0.000 A 
ATOM      8  C   UNL     1       7.501   6.555  18.010  0.00  0.00    +0.000 A 
ATOM      9  N   UNL     1       7.739   5.964  16.826  0.00  0.00    +0.000 NA
ATOM     10  H   UNL     1       8.052   4.728  14.761  0.00  0.00    +0.000 HD
ENDROOT
BRANCH   6  11
ATOM     11  C   UNL     1       4.245   4.919  19.121  0.00  0.00    +0.000 A 
ATOM     12  C   UNL     1       3.273   5.869  19.454  0.00  0.00    +0.000 A 
ATOM     13  C   UNL     1       2.622   6.706  18.379  0.00  0.00    +0.000 C 
ATOM     14  N   UNL     1       2.542   5.388  20.514  0.00  0.00    +0.000 NA
ATOM     15  C   UNL     1       2.602   4.084  20.362  0.00  0.00    +0.000 A 
ATOM     16  C   UNL     1       1.641   3.124  20.790  0.00  0.00    +0.000 A 
ATOM     17  C   UNL     1       0.978   2.466  19.821  0.00  0.00    +0.000 A 
ATOM     18  C   UNL     1       1.386   2.610  18.425  0.00  0.00    +0.000 A 
ATOM     19  C   UNL     1       2.585   3.175  18.130  0.00  0.00    +0.000 A 
ATOM     20  N   UNL     1       3.296   3.845  19.160  0.00  0.00    +0.000 N 
ENDBRANCH   6  11
BRANCH   8  21
ATOM     21  N   UNL     1       8.297   7.698  18.237  0.00  0.00    +0.000 N 
ATOM     22  C   UNL     1       8.024   9.003  17.873  0.00  0.00    +0.000 C 
ATOM     23  O   UNL     1       7.098   9.371  17.162  0.00  0.00    +0.000 OA
ATOM     24  H   UNL     1       8.884   7.621  19.059  0.00  0.00    +0.000 HD
BRANCH  22  25
ATOM     25  C   UNL     1       8.964  10.035  18.518  0.00  0.00    +0.000 A 
ATOM     26  C   UNL     1       9.035  10.189  19.906  0.00  0.00    +0.000 A 
ATOM     27  C   UNL     1       9.898  11.157  20.446  0.00  0.00    +0.000 A 
ATOM     28  C   UNL     1      10.663  11.943  19.595  0.00  0.00    +0.000 A 
ATOM     29 CL   UNL     1      11.721  13.154  20.205  0.00  0.00    +0.000 Cl
ATOM     30  C   UNL     1      10.551  11.712  18.232  0.00  0.00    +0.000 A 
ATOM     31  N   UNL     1       9.728  10.779  17.667  0.00  0.00    +0.000 NA
ENDBRANCH  22  25
ENDBRANCH   8  21
BRANCH   1  32
ATOM     32  C   UNL     1       6.572   3.692  12.917  0.00  0.00    +0.000 C 
ATOM     33  C   UNL     1       7.466   4.729  12.241  0.00  0.00    +0.000 C 
BRANCH  32  35
ATOM     34  C   UNL     1       5.608   2.041  11.426  0.00  0.00    +0.000 C 
ATOM     35  N   UNL     1       5.386   3.314  12.112  0.00  0.00    +0.000 NA
ATOM     36  H   UNL     1       4.603   3.179  12.759  0.00  0.00    +0.000 HD
ENDBRANCH  32  35
ENDBRANCH   1  32
TORSDOF 5
ENDMDL
MODEL 2
REMARK VINA RESULT:      -9.1      1.168      1.342
REMARK  Name = 
REMARK  8 active torsions:
REMARK  status: ('A' for Active; 'I' for Inactive)
REMARK    1  A    between atoms: C_1  and  N_2
REMARK    2  A    between atoms: N_2  and  C_3
REMARK    3  A    between atoms: C_3  and  C_4
REMARK    4  A    between atoms: C_3  and  C_5
REMARK    5  A    between atoms: C_10  and  C_11
REMARK    6  A    between atoms: C_12  and  C_13
REMARK    7  A    between atoms: C_22  and  N_23
REMARK    8  A    between atoms: C_24  and  C_26
REMARK                            x       y       z     vdW  Elec       q    Type
REMARK                         _______ _______ _______ _____ _____    ______ ____
ROOT
ATOM      1  C   UNL     1       6.223   4.403  13.964  0.00  0.00    +0.000 C 
ATOM      2  O   UNL     1       5.027   4.340  14.240  0.00  0.00    +0.000 OA
ATOM      3  N   UNL     1       7.197   4.942  14.783  0.00  0.00    +0.000 N 
ATOM      4  C   UNL     1       6.864   5.482  16.025  0.00  0.00    +0.000 A 
ATOM      5  C   UNL     1       5.932   4.852  16.855  0.00  0.00    +0.000 A 
ATOM      6  C   UNL     1       5.485   5.524  17.974  0.00  0.00    +0.000 A 
ATOM      7  C   UNL     1       6.163   6.742  18.306  0.00  0.00    +0.000 A 
ATOM      8  C   UNL     1       7.106   7.291  17.433  0.00  0.00    +0.000 A 
ATOM      9  N   UNL     1       7.443   6.673  16.288  0.00  0.00    +0.000 NA
ATOM     10  H   UNL     1       7.982   5.372  14.310  0.00  0.00    +0.000 HD
ENDROOT
BRANCH   6  11
ATOM     11  C   UNL     1       4.377   5.030  18.830  0.00  0.00    +0.000 A 
ATOM     12  C   UNL     1       3.323   5.812  19.316  0.00  0.00    +0.000 A 
ATOM     13  C   UNL     1       2.467   6.616  18.366  0.00  0.00    +0.000 C 
ATOM     14  N   UNL     1       2.768   5.169  20.396  0.00  0.00    +0.000 NA
ATOM     15  C   UNL     1       2.986   3.898  20.143  0.00  0.00    +0.000 A 
ATOM     16  C   UNL     1       2.207   2.789  20.579  0.00  0.00    +0.000 A 
ATOM     17  C   UNL     1       1.548   2.106  19.624  0.00  0.00    +0.000 A 
ATOM     18  C   UNL     1       1.797   2.393  18.213  0.00  0.00    +0.000 A 
ATOM     19  C   UNL     1       2.877   3.136  17.859  0.00  0.00    +0.000 A 
ATOM     20  N   UNL     1       3.588   3.834  18.871  0.00  0.00    +0.000 N 
ENDBRANCH   6  11
BRANCH   8  21
ATOM     21  N   UNL     1       7.610   8.605  17.530  0.00  0.00    +0.000 N 
ATOM     22  C   UNL     1       8.524   9.093  18.445  0.00  0.00    +0.000 C 
ATOM     23  O   UNL     1       8.952   8.492  19.422  0.00  0.00    +0.000 OA
ATOM     24  H   UNL     1       7.619   9.098  16.645  0.00  0.00    +0.000 HD
BRANCH  22  25
ATOM     25  C   UNL     1       9.063  10.490  18.097  0.00  0.00    +0.000 A 
ATOM     26  C   UNL     1       8.218  11.501  17.625  0.00  0.00    +0.000 A 
ATOM     27  C   UNL     1       8.763  12.755  17.305  0.00  0.00    +0.000 A 
ATOM     28  C   UNL     1      10.125  12.971  17.461  0.00  0.00    +0.000 A 
ATOM     29 CL   UNL     1      10.843  14.484  17.066  0.00  0.00    +0.000 Cl
ATOM     30  C   UNL     1      10.889  11.924  17.956  0.00  0.00    +0.000 A 
ATOM     31  N   UNL     1      10.400  10.691  18.282  0.00  0.00    +0.000 NA
ENDBRANCH  22  25
ENDBRANCH   8  21
BRANCH   1  32
ATOM     32  C   UNL     1       6.739   3.857  12.629  0.00  0.00    +0.000 C 
ATOM     33  C   UNL     1       7.486   4.975  11.905  0.00  0.00    +0.000 C 
BRANCH  32  35
ATOM     34  C   UNL     1       5.852   1.865  11.570  0.00  0.00    +0.000 C 
ATOM     35  N   UNL     1       5.620   3.283  11.845  0.00  0.00    +0.000 NA
ATOM     36  H   UNL     1       4.774   3.348  12.419  0.00  0.00    +0.000 HD
ENDBRANCH  32  35
ENDBRANCH   1  32
TORSDOF 5
ENDMDL
MODEL 3
REMARK VINA RESULT:      -8.5      1.486      1.776
REMARK  Name = 
REMARK  8 active torsions:
REMARK  status: ('A' for Active; 'I' for Inactive)
REMARK    1  A    between atoms: C_1  and  N_2
REMARK    2  A    between atoms: N_2  and  C_3
REMARK    3  A    between atoms: C_3  and  C_4
REMARK    4  A    between atoms: C_3  and  C_5
REMARK    5  A    between atoms: C_10  and  C_11
REMARK    6  A    between atoms: C_12  and  C_13
REMARK    7  A    between atoms: C_22  and  N_23
REMARK    8  A    between atoms: C_24  and  C_26
REMARK                            x       y       z     vdW  Elec       q    Type
REMARK                         _______ _______ _______ _____ _____    ______ ____
ROOT
ATOM      1  C   UNL     1       6.430   4.298  13.949  0.00  0.00    +0.000 C 
ATOM      2  O   UNL     1       5.208   4.270  14.085  0.00  0.00    +0.000 OA
ATOM      3  N   UNL     1       7.316   4.840  14.860  0.00  0.00    +0.000 N 
ATOM      4  C   UNL     1       6.856   5.425  16.040  0.00  0.00    +0.000 A 
ATOM      5  C   UNL     1       5.818   4.842  16.773  0.00  0.00    +0.000 A 
ATOM      6  C   UNL     1       5.263   5.558  17.813  0.00  0.00    +0.000 A 
ATOM      7  C   UNL     1       5.928   6.769  18.188  0.00  0.00    +0.000 A 
ATOM      8  C   UNL     1       6.979   7.271  17.415  0.00  0.00    +0.000 A 
ATOM      9  N   UNL     1       7.430   6.611  16.334  0.00  0.00    +0.000 NA
ATOM     10  H   UNL     1       8.161   5.239  14.470  0.00  0.00    +0.000 HD
ENDROOT
BRANCH   6  11
ATOM     11  C   UNL     1       4.051   5.114  18.548  0.00  0.00    +0.000 A 
ATOM     12  C   UNL     1       2.835   4.752  17.955  0.00  0.00    +0.000 A 
ATOM     13  C   UNL     1       2.794   3.684  16.888  0.00  0.00    +0.000 C 
ATOM     14  N   UNL     1       1.846   4.840  18.905  0.00  0.00    +0.000 NA
ATOM     15  C   UNL     1       2.479   4.595  20.032  0.00  0.00    +0.000 A 
ATOM     16  C   UNL     1       1.932   4.028  21.218  0.00  0.00    +0.000 A 
ATOM     17  C   UNL     1       2.381   2.805  21.559  0.00  0.00    +0.000 A 
ATOM     18  C   UNL     1       3.505   2.209  20.840  0.00  0.00    +0.000 A 
ATOM     19  C   UNL     1       4.270   2.983  20.029  0.00  0.00    +0.000 A 
ATOM     20  N   UNL     1       3.809   4.283  19.691  0.00  0.00    +0.000 N 
ENDBRANCH   6  11
BRANCH   8  21
ATOM     21  N   UNL     1       7.501   8.576  17.534  0.00  0.00    +0.000 N 
ATOM     22  C   UNL     1       8.467   9.022  18.417  0.00  0.00    +0.000 C 
ATOM     23  O   UNL     1       8.938   8.382  19.347  0.00  0.00    +0.000 OA
ATOM     24  H   UNL     1       7.470   9.101  16.668  0.00  0.00    +0.000 HD
BRANCH  22  25
ATOM     25  C   UNL     1       9.001  10.427  18.091  0.00  0.00    +0.000 A 
ATOM     26  C   UNL     1      10.367  10.721  18.161  0.00  0.00    +0.000 A 
ATOM     27  C   UNL     1      10.803  12.024  17.869  0.00  0.00    +0.000 A 
ATOM     28  C   UNL     1       9.875  12.995  17.519  0.00  0.00    +0.000 A 
ATOM     29 CL   UNL     1      10.356  14.610  17.170  0.00  0.00    +0.000 Cl
ATOM     30  C   UNL     1       8.542  12.615  17.451  0.00  0.00    +0.000 A 
ATOM     31  N   UNL     1       8.077  11.360  17.723  0.00  0.00    +0.000 NA
ENDBRANCH  22  25
ENDBRANCH   8  21
BRANCH   1  32
ATOM     32  C   UNL     1       7.083   3.701  12.699  0.00  0.00    +0.000 C 
ATOM     33  C   UNL     1       7.211   4.800  11.647  0.00  0.00    +0.000 C 
BRANCH  32  35
ATOM     34  C   UNL     1       5.128   2.932  11.488  0.00  0.00    +0.000 C 
ATOM     35  N   UNL     1       6.316   2.520  12.236  0.00  0.00    +0.000 NA
ATOM     36  H   UNL     1       6.915   1.995  11.592  0.00  0.00    +0.000 HD
ENDBRANCH  32  35
ENDBRANCH   1  32
TORSDOF 5
ENDMDL
MODEL 4
REMARK VINA RESULT:      -8.5      1.433      1.996
REMARK  Name = 
REMARK  8 active torsions:
REMARK  status: ('A' for Active; 'I' for Inactive)
REMARK    1  A    between atoms: C_1  and  N_2
REMARK    2  A    between atoms: N_2  and  C_3
REMARK    3  A    between atoms: C_3  and  C_4
REMARK    4  A    between atoms: C_3  and  C_5
REMARK    5  A    between atoms: C_10  and  C_11
REMARK    6  A    between atoms: C_12  and  C_13
REMARK    7  A    between atoms: C_22  and  N_23
REMARK    8  A    between atoms: C_24  and  C_26
REMARK                            x       y       z     vdW  Elec       q    Type
REMARK                         _______ _______ _______ _____ _____    ______ ____
ROOT
ATOM      1  C   UNL     1       6.079   3.988  13.523  0.00  0.00    +0.000 C 
ATOM      2  O   UNL     1       4.851   3.980  13.569  0.00  0.00    +0.000 OA
ATOM      3  N   UNL     1       6.907   4.409  14.546  0.00  0.00    +0.000 N 
ATOM      4  C   UNL     1       6.374   4.882  15.745  0.00  0.00    +0.000 A 
ATOM      5  C   UNL     1       5.274   4.255  16.338  0.00  0.00    +0.000 A 
ATOM      6  C   UNL     1       4.658   4.875  17.406  0.00  0.00    +0.000 A 
ATOM      7  C   UNL     1       5.319   6.023  17.951  0.00  0.00    +0.000 A 
ATOM      8  C   UNL     1       6.434   6.572  17.311  0.00  0.00    +0.000 A 
ATOM      9  N   UNL     1       6.949   6.014  16.202  0.00  0.00    +0.000 NA
ATOM     10  H   UNL     1       7.786   4.822  14.261  0.00  0.00    +0.000 HD
ENDROOT
BRANCH   6  11
ATOM     11  C   UNL     1       3.387   4.392  18.002  0.00  0.00    +0.000 A 
ATOM     12  C   UNL     1       2.542   3.433  17.433  0.00  0.00    +0.000 A 
ATOM     13  C   UNL     1       3.079   2.077  17.042  0.00  0.00    +0.000 C 
ATOM     14  N   UNL     1       1.295   3.563  17.996  0.00  0.00    +0.000 NA
ATOM     15  C   UNL     1       1.548   4.031  19.199  0.00  0.00    +0.000 A 
ATOM     16  C   UNL     1       0.763   3.852  20.373  0.00  0.00    +0.000 A 
ATOM     17  C   UNL     1       1.310   3.106  21.351  0.00  0.00    +0.000 A 
ATOM     18  C   UNL     1       2.706   2.685  21.261  0.00  0.00    +0.000 A 
ATOM     19  C   UNL     1       3.525   3.267  20.346  0.00  0.00    +0.000 A 
ATOM     20  N   UNL     1       2.950   4.075  19.330  0.00  0.00    +0.000 N 
ENDBRANCH   6  11
BRANCH   8  21
ATOM     21  N   UNL     1       6.972   7.843  17.603  0.00  0.00    +0.000 N 
ATOM     22  C   UNL     1       8.065   8.135  18.397  0.00  0.00    +0.000 C 
ATOM     23  O   UNL     1       8.675   7.339  19.098  0.00  0.00    +0.000 OA
ATOM     24  H   UNL     1       6.807   8.526  16.873  0.00  0.00    +0.000 HD
BRANCH  22  25
ATOM     25  C   UNL     1       8.547   9.590  18.275  0.00  0.00    +0.000 A 
ATOM     26  C   UNL     1       7.873  10.517  17.472  0.00  0.00    +0.000 A 
ATOM     27  C   UNL     1       8.363  11.830  17.383  0.00  0.00    +0.000 A 
ATOM     28  C   UNL     1       9.504  12.186  18.089  0.00  0.00    +0.000 A 
ATOM     29 CL   UNL     1      10.153  13.777  17.999  0.00  0.00    +0.000 Cl
ATOM     30  C   UNL     1      10.099  11.214  18.880  0.00  0.00    +0.000 A 
ATOM     31  N   UNL     1       9.654   9.928  18.998  0.00  0.00    +0.000 NA
ENDBRANCH  22  25
ENDBRANCH   8  21
BRANCH   1  32
ATOM     32  C   UNL     1       6.809   3.505  12.266  0.00  0.00    +0.000 C 
ATOM     33  C   UNL     1       7.493   4.703  11.612  0.00  0.00    +0.000 C 
BRANCH  32  35
ATOM     34  C   UNL     1       6.174   1.364  11.324  0.00  0.00    +0.000 C 
ATOM     35  N   UNL     1       5.868   2.794  11.370  0.00  0.00    +0.000 NA
ATOM     36  H   UNL     1       4.928   2.892  11.766  0.00  0.00    +0.000 HD
ENDBRANCH  32  35
ENDBRANCH   1  32
TORSDOF 5
ENDMDL
MODEL 5
REMARK VINA RESULT:      -8.5      1.031      1.436
REMARK  Name = 
REMARK  8 active torsions:
REMARK  status: ('A' for Active; 'I' for Inactive)
REMARK    1  A    between atoms: C_1  and  N_2
REMARK    2  A    between atoms: N_2  and  C_3
REMARK    3  A    between atoms: C_3  and  C_4
REMARK    4  A    between atoms: C_3  and  C_5
REMARK    5  A    between atoms: C_10  and  C_11
REMARK    6  A    between atoms: C_12  and  C_13
REMARK    7  A    between atoms: C_22  and  N_23
REMARK    8  A    between atoms: C_24  and  C_26
REMARK                            x       y       z     vdW  Elec       q    Type
REMARK                         _______ _______ _______ _____ _____    ______ ____
ROOT
ATOM      1  C   UNL     1       6.383   4.199  14.030  0.00  0.00    +0.000 C 
ATOM      2  O   UNL     1       5.173   4.360  14.173  0.00  0.00    +0.000 OA
ATOM      3  N   UNL     1       7.339   4.481  14.987  0.00  0.00    +0.000 N 
ATOM      4  C   UNL     1       6.972   5.000  16.228  0.00  0.00    +0.000 A 
ATOM      5  C   UNL     1       5.845   4.520  16.902  0.00  0.00    +0.000 A 
ATOM      6  C   UNL     1       5.407   5.199  18.021  0.00  0.00    +0.000 A 
ATOM      7  C   UNL     1       6.262   6.233  18.521  0.00  0.00    +0.000 A 
ATOM      8  C   UNL     1       7.389   6.635  17.799  0.00  0.00    +0.000 A 
ATOM      9  N   UNL     1       7.733   6.032  16.648  0.00  0.00    +0.000 NA
ATOM     10  H   UNL     1       8.242   4.773  14.636  0.00  0.00    +0.000 HD
ENDROOT
BRANCH   6  11
ATOM     11  C   UNL     1       4.131   4.885  18.713  0.00  0.00    +0.000 A 
ATOM     12  C   UNL     1       2.910   4.631  18.078  0.00  0.00    +0.000 A 
ATOM     13  C   UNL     1       2.807   3.555  17.023  0.00  0.00    +0.000 C 
ATOM     14  N   UNL     1       1.898   4.829  18.987  0.00  0.00    +0.000 NA
ATOM     15  C   UNL     1       2.461   4.544  20.140  0.00  0.00    +0.000 A 
ATOM     16  C   UNL     1       1.818   4.051  21.311  0.00  0.00    +0.000 A 
ATOM     17  C   UNL     1       2.134   2.796  21.685  0.00  0.00    +0.000 A 
ATOM     18  C   UNL     1       3.223   2.084  21.020  0.00  0.00    +0.000 A 
ATOM     19  C   UNL     1       4.088   2.768  20.228  0.00  0.00    +0.000 A 
ATOM     20  N   UNL     1       3.768   4.101  19.857  0.00  0.00    +0.000 N 
ENDBRANCH   6  11
BRANCH   8  21
ATOM     21  N   UNL     1       8.121   7.813  18.057  0.00  0.00    +0.000 N 
ATOM     22  C   UNL     1       7.790   9.107  17.701  0.00  0.00    +0.000 C 
ATOM     23  O   UNL     1       6.863   9.436  16.973  0.00  0.00    +0.000 OA
ATOM     24  H   UNL     1       8.692   7.756  18.892  0.00  0.00    +0.000 HD
BRANCH  22  25
ATOM     25  C   UNL     1       8.661  10.177  18.379  0.00  0.00    +0.000 A 
ATOM     26  C   UNL     1       8.836  11.443  17.810  0.00  0.00    +0.000 A 
ATOM     27  C   UNL     1       9.656  12.380  18.462  0.00  0.00    +0.000 A 
ATOM     28  C   UNL     1      10.276  12.036  19.655  0.00  0.00    +0.000 A 
ATOM     29 CL   UNL     1      11.303  13.141  20.482  0.00  0.00    +0.000 Cl
ATOM     30  C   UNL     1      10.032  10.768  20.163  0.00  0.00    +0.000 A 
ATOM     31  N   UNL     1       9.241   9.829  19.565  0.00  0.00    +0.000 NA
ENDBRANCH  22  25
ENDBRANCH   8  21
BRANCH   1  32
ATOM     32  C   UNL     1       6.939   3.643  12.715  0.00  0.00    +0.000 C 
ATOM     33  C   UNL     1       7.295   4.817  11.806  0.00  0.00    +0.000 C 
BRANCH  32  35
ATOM     34  C   UNL     1       6.651   1.770  11.202  0.00  0.00    +0.000 C 
ATOM     35  N   UNL     1       5.973   2.695  12.112  0.00  0.00    +0.000 NA
ATOM     36  H   UNL     1       5.572   2.136  12.872  0.00  0.00    +0.000 HD
ENDBRANCH  32  35
ENDBRANCH   1  32
TORSDOF 5
ENDMDL
MODEL 6
REMARK VINA RESULT:      -7.9      1.336      1.521
REMARK  Name = 
REMARK  8 active torsions:
REMARK  status: ('A' for Active; 'I' for Inactive)
REMARK    1  A    between atoms: C_1  and  N_2
REMARK    2  A    between atoms: N_2  and  C_3
REMARK    3  A    between atoms: C_3  and  C_4
REMARK    4  A    between atoms: C_3  and  C_5
REMARK    5  A    between atoms: C_10  and  C_11
REMARK    6  A    between atoms: C_12  and  C_13
REMARK    7  A    between atoms: C_22  and  N_23
REMARK    8  A    between atoms: C_24  and  C_26
REMARK                            x       y       z     vdW  Elec       q    Type
REMARK                         _______ _______ _______ _____ _____    ______ ____
ROOT
ATOM      1  C   UNL     1       5.954   4.458  13.754  0.00  0.00    +0.000 C 
ATOM      2  O   UNL     1       4.782   4.371  14.114  0.00  0.00    +0.000 OA
ATOM      3  N   UNL     1       6.984   4.964  14.524  0.00  0.00    +0.000 N 
ATOM      4  C   UNL     1       6.742   5.437  15.814  0.00  0.00    +0.000 A 
ATOM      5  C   UNL     1       5.878   4.757  16.677  0.00  0.00    +0.000 A 
ATOM      6  C   UNL     1       5.513   5.367  17.860  0.00  0.00    +0.000 A 
ATOM      7  C   UNL     1       6.208   6.572  18.203  0.00  0.00    +0.000 A 
ATOM      8  C   UNL     1       7.080   7.174  17.291  0.00  0.00    +0.000 A 
ATOM      9  N   UNL     1       7.333   6.618  16.094  0.00  0.00    +0.000 NA
ATOM     10  H   UNL     1       7.728   5.425  14.017  0.00  0.00    +0.000 HD
ENDROOT
BRANCH   6  11
ATOM     11  C   UNL     1       4.475   4.819  18.770  0.00  0.00    +0.000 A 
ATOM     12  C   UNL     1       3.506   5.578  19.437  0.00  0.00    +0.000 A 
ATOM     13  C   UNL     1       2.594   6.502  18.665  0.00  0.00    +0.000 C 
ATOM     14  N   UNL     1       3.034   4.843  20.497  0.00  0.00    +0.000 NA
ATOM     15  C   UNL     1       3.174   3.599  20.096  0.00  0.00    +0.000 A 
ATOM     16  C   UNL     1       2.398   2.474  20.495  0.00  0.00    +0.000 A 
ATOM     17  C   UNL     1       1.622   1.915  19.548  0.00  0.00    +0.000 A 
ATOM     18  C   UNL     1       1.743   2.339  18.155  0.00  0.00    +0.000 A 
ATOM     19  C   UNL     1       2.813   3.083  17.770  0.00  0.00    +0.000 A 
ATOM     20  N   UNL     1       3.646   3.650  18.770  0.00  0.00    +0.000 N 
ENDBRANCH   6  11
BRANCH   8  21
ATOM     21  N   UNL     1       7.582   8.486  17.419  0.00  0.00    +0.000 N 
ATOM     22  C   UNL     1       8.474   8.960  18.362  0.00  0.00    +0.000 C 
ATOM     23  O   UNL     1       8.877   8.346  19.341  0.00  0.00    +0.000 OA
ATOM     24  H   UNL     1       7.614   8.990  16.541  0.00  0.00    +0.000 HD
BRANCH  22  25
ATOM     25  C   UNL     1       9.023  10.361  18.046  0.00  0.00    +0.000 A 
ATOM     26  C   UNL     1      10.392  10.640  18.114  0.00  0.00    +0.000 A 
ATOM     27  C   UNL     1      10.841  11.941  17.831  0.00  0.00    +0.000 A 
ATOM     28  C   UNL     1       9.923  12.924  17.490  0.00  0.00    +0.000 A 
ATOM     29 CL   UNL     1      10.420  14.536  17.151  0.00  0.00    +0.000 Cl
ATOM     30  C   UNL     1       8.586  12.559  17.422  0.00  0.00    +0.000 A 
ATOM     31  N   UNL     1       8.108  11.307  17.686  0.00  0.00    +0.000 NA
ENDBRANCH  22  25
ENDBRANCH   8  21
BRANCH   1  32
ATOM     32  C   UNL     1       6.371   3.987  12.357  0.00  0.00    +0.000 C 
ATOM     33  C   UNL     1       5.114   3.605  11.580  0.00  0.00    +0.000 C 
BRANCH  32  35
ATOM     34  C   UNL     1       7.267   1.990  11.313  0.00  0.00    +0.000 C 
ATOM     35  N   UNL     1       7.362   2.890  12.463  0.00  0.00    +0.000 NA
ATOM     36  H   UNL     1       8.295   3.313  12.443  0.00  0.00    +0.000 HD
ENDBRANCH  32  35
ENDBRANCH   1  32
TORSDOF 5
ENDMDL
MODEL 7
REMARK VINA RESULT:      -7.7      0.875      1.373
REMARK  Name = 
REMARK  8 active torsions:
REMARK  status: ('A' for Active; 'I' for Inactive)
REMARK    1  A    between atoms: C_1  and  N_2
REMARK    2  A    between atoms: N_2  and  C_3
REMARK    3  A    between atoms: C_3  and  C_4
REMARK    4  A    between atoms: C_3  and  C_5
REMARK    5  A    between atoms: C_10  and  C_11
REMARK    6  A    between atoms: C_12  and  C_13
REMARK    7  A    between atoms: C_22  and  N_23
REMARK    8  A    between atoms: C_24  and  C_26
REMARK                            x       y       z     vdW  Elec       q    Type
REMARK                         _______ _______ _______ _____ _____    ______ ____
ROOT
ATOM      1  C   UNL     1       6.094   4.583  14.089  0.00  0.00    +0.000 C 
ATOM      2  O   UNL     1       4.909   4.665  14.408  0.00  0.00    +0.000 OA
ATOM      3  N   UNL     1       7.160   4.809  14.939  0.00  0.00    +0.000 N 
ATOM      4  C   UNL     1       6.947   5.170  16.268  0.00  0.00    +0.000 A 
ATOM      5  C   UNL     1       5.941   4.562  17.025  0.00  0.00    +0.000 A 
ATOM      6  C   UNL     1       5.635   5.092  18.262  0.00  0.00    +0.000 A 
ATOM      7  C   UNL     1       6.512   6.109  18.761  0.00  0.00    +0.000 A 
ATOM      8  C   UNL     1       7.514   6.644  17.947  0.00  0.00    +0.000 A 
ATOM      9  N   UNL     1       7.720   6.189  16.699  0.00  0.00    +0.000 NA
ATOM     10  H   UNL     1       7.995   5.184  14.507  0.00  0.00    +0.000 HD
ENDROOT
BRANCH   6  11
ATOM     11  C   UNL     1       4.479   4.639  19.076  0.00  0.00    +0.000 A 
ATOM     12  C   UNL     1       3.534   5.481  19.673  0.00  0.00    +0.000 A 
ATOM     13  C   UNL     1       2.779   6.493  18.844  0.00  0.00    +0.000 C 
ATOM     14  N   UNL     1       2.908   4.786  20.681  0.00  0.00    +0.000 NA
ATOM     15  C   UNL     1       2.964   3.537  20.273  0.00  0.00    +0.000 A 
ATOM     16  C   UNL     1       2.055   2.489  20.590  0.00  0.00    +0.000 A 
ATOM     17  C   UNL     1       1.310   2.013  19.574  0.00  0.00    +0.000 A 
ATOM     18  C   UNL     1       1.586   2.434  18.202  0.00  0.00    +0.000 A 
ATOM     19  C   UNL     1       2.748   3.076  17.917  0.00  0.00    +0.000 A 
ATOM     20  N   UNL     1       3.546   3.553  18.991  0.00  0.00    +0.000 N 
ENDBRANCH   6  11
BRANCH   8  21
ATOM     21  N   UNL     1       8.230   7.824  18.240  0.00  0.00    +0.000 N 
ATOM     22  C   UNL     1       7.969   9.105  17.788  0.00  0.00    +0.000 C 
ATOM     23  O   UNL     1       7.144   9.411  16.938  0.00  0.00    +0.000 OA
ATOM     24  H   UNL     1       8.694   7.799  19.140  0.00  0.00    +0.000 HD
BRANCH  22  25
ATOM     25  C   UNL     1       8.770  10.194  18.520  0.00  0.00    +0.000 A 
ATOM     26  C   UNL     1       9.188  11.356  17.863  0.00  0.00    +0.000 A 
ATOM     27  C   UNL     1       9.932  12.314  18.572  0.00  0.00    +0.000 A 
ATOM     28  C   UNL     1      10.239  12.093  19.907  0.00  0.00    +0.000 A 
ATOM     29 CL   UNL     1      11.162  13.226  20.815  0.00  0.00    +0.000 Cl
ATOM     30  C   UNL     1       9.767  10.925  20.490  0.00  0.00    +0.000 A 
ATOM     31  N   UNL     1       9.039   9.970  19.838  0.00  0.00    +0.000 NA
ENDBRANCH  22  25
ENDBRANCH   8  21
BRANCH   1  32
ATOM     32  C   UNL     1       6.484   4.203  12.657  0.00  0.00    +0.000 C 
ATOM     33  C   UNL     1       6.263   2.704  12.476  0.00  0.00    +0.000 C 
BRANCH  32  35
ATOM     34  C   UNL     1       7.886   5.985  11.799  0.00  0.00    +0.000 C 
ATOM     35  N   UNL     1       7.871   4.640  12.373  0.00  0.00    +0.000 NA
ATOM     36  H   UNL     1       8.371   4.684  13.267  0.00  0.00    +0.000 HD
ENDBRANCH  32  35
ENDBRANCH   1  32
TORSDOF 5
ENDMDL
MODEL 8
REMARK VINA RESULT:      -7.7      1.557      2.250
REMARK  Name = 
REMARK  8 active torsions:
REMARK  status: ('A' for Active; 'I' for Inactive)
REMARK    1  A    between atoms: C_1  and  N_2
REMARK    2  A    between atoms: N_2  and  C_3
REMARK    3  A    between atoms: C_3  and  C_4
REMARK    4  A    between atoms: C_3  and  C_5
REMARK    5  A    between atoms: C_10  and  C_11
REMARK    6  A    between atoms: C_12  and  C_13
REMARK    7  A    between atoms: C_22  and  N_23
REMARK    8  A    between atoms: C_24  and  C_26
REMARK                            x       y       z     vdW  Elec       q    Type
REMARK                         _______ _______ _______ _____ _____    ______ ____
ROOT
ATOM      1  C   UNL     1       5.944   3.885  13.211  0.00  0.00    +0.000 C 
ATOM      2  O   UNL     1       4.743   3.735  13.430  0.00  0.00    +0.000 OA
ATOM      3  N   UNL     1       6.870   4.322  14.139  0.00  0.00    +0.000 N 
ATOM      4  C   UNL     1       6.479   4.644  15.438  0.00  0.00    +0.000 A 
ATOM      5  C   UNL     1       5.550   3.856  16.124  0.00  0.00    +0.000 A 
ATOM      6  C   UNL     1       5.044   4.324  17.319  0.00  0.00    +0.000 A 
ATOM      7  C   UNL     1       5.660   5.497  17.863  0.00  0.00    +0.000 A 
ATOM      8  C   UNL     1       6.604   6.213  17.121  0.00  0.00    +0.000 A 
ATOM      9  N   UNL     1       6.999   5.798  15.906  0.00  0.00    +0.000 NA
ATOM     10  H   UNL     1       7.649   4.851  13.768  0.00  0.00    +0.000 HD
ENDROOT
BRANCH   6  11
ATOM     11  C   UNL     1       3.933   3.659  18.047  0.00  0.00    +0.000 A 
ATOM     12  C   UNL     1       4.051   2.483  18.798  0.00  0.00    +0.000 A 
ATOM     13  C   UNL     1       5.071   2.384  19.906  0.00  0.00    +0.000 C 
ATOM     14  N   UNL     1       2.800   1.930  18.937  0.00  0.00    +0.000 NA
ATOM     15  C   UNL     1       1.998   2.971  18.896  0.00  0.00    +0.000 A 
ATOM     16  C   UNL     1       0.718   3.093  19.509  0.00  0.00    +0.000 A 
ATOM     17  C   UNL     1       0.618   3.984  20.514  0.00  0.00    +0.000 A 
ATOM     18  C   UNL     1       1.724   4.895  20.800  0.00  0.00    +0.000 A 
ATOM     19  C   UNL     1       2.728   5.038  19.897  0.00  0.00    +0.000 A 
ATOM     20  N   UNL     1       2.817   4.114  18.822  0.00  0.00    +0.000 N 
ENDBRANCH   6  11
BRANCH   8  21
ATOM     21  N   UNL     1       7.048   7.513  17.444  0.00  0.00    +0.000 N 
ATOM     22  C   UNL     1       8.026   7.870  18.354  0.00  0.00    +0.000 C 
ATOM     23  O   UNL     1       8.582   7.115  19.141  0.00  0.00    +0.000 OA
ATOM     24  H   UNL     1       6.942   8.174  16.683  0.00  0.00    +0.000 HD
BRANCH  22  25
ATOM     25  C   UNL     1       8.456   9.342  18.255  0.00  0.00    +0.000 A 
ATOM     26  C   UNL     1       7.798  10.238  17.405  0.00  0.00    +0.000 A 
ATOM     27  C   UNL     1       8.240  11.570  17.339  0.00  0.00    +0.000 A 
ATOM     28  C   UNL     1       9.318  11.974  18.115  0.00  0.00    +0.000 A 
ATOM     29 CL   UNL     1       9.907  13.589  18.057  0.00  0.00    +0.000 Cl
ATOM     30  C   UNL     1       9.899  11.030  18.949  0.00  0.00    +0.000 A 
ATOM     31  N   UNL     1       9.499   9.727  19.046  0.00  0.00    +0.000 NA
ENDBRANCH  22  25
ENDBRANCH   8  21
BRANCH   1  32
ATOM     32  C   UNL     1       6.520   3.579  11.825  0.00  0.00    +0.000 C 
ATOM     33  C   UNL     1       5.366   3.482  10.831  0.00  0.00    +0.000 C 
BRANCH  32  35
ATOM     34  C   UNL     1       6.814   1.309  11.024  0.00  0.00    +0.000 C 
ATOM     35  N   UNL     1       7.363   2.362  11.879  0.00  0.00    +0.000 NA
ATOM     36  H   UNL     1       8.286   2.607  11.507  0.00  0.00    +0.000 HD
ENDBRANCH  32  35
ENDBRANCH   1  32
TORSDOF 5
ENDMDL
MODEL 9
REMARK VINA RESULT:      -7.7      6.938     10.019
REMARK  Name = 
REMARK  8 active torsions:
REMARK  status: ('A' for Active; 'I' for Inactive)
REMARK    1  A    between atoms: C_1  and  N_2
REMARK    2  A    between atoms: N_2  and  C_3
REMARK    3  A    between atoms: C_3  and  C_4
REMARK    4  A    between atoms: C_3  and  C_5
REMARK    5  A    between atoms: C_10  and  C_11
REMARK    6  A    between atoms: C_12  and  C_13
REMARK    7  A    between atoms: C_22  and  N_23
REMARK    8  A    between atoms: C_24  and  C_26
REMARK                            x       y       z     vdW  Elec       q    Type
REMARK                         _______ _______ _______ _____ _____    ______ ____
ROOT
ATOM      1  C   UNL     1      -2.509  10.766  16.674  0.00  0.00    +0.000 C 
ATOM      2  O   UNL     1      -2.116  11.925  16.553  0.00  0.00    +0.000 OA
ATOM      3  N   UNL     1      -1.842   9.771  17.362  0.00  0.00    +0.000 N 
ATOM      4  C   UNL     1      -0.620  10.031  17.982  0.00  0.00    +0.000 A 
ATOM      5  C   UNL     1      -0.407  11.225  18.677  0.00  0.00    +0.000 A 
ATOM      6  C   UNL     1       0.873  11.525  19.095  0.00  0.00    +0.000 A 
ATOM      7  C   UNL     1       1.854  10.490  18.956  0.00  0.00    +0.000 A 
ATOM      8  C   UNL     1       1.551   9.311  18.271  0.00  0.00    +0.000 A 
ATOM      9  N   UNL     1       0.324   9.089  17.770  0.00  0.00    +0.000 NA
ATOM     10  H   UNL     1      -1.967   8.831  17.010  0.00  0.00    +0.000 HD
ENDROOT
BRANCH   6  11
ATOM     11  C   UNL     1       1.248  12.834  19.688  0.00  0.00    +0.000 A 
ATOM     12  C   UNL     1       2.499  13.449  19.559  0.00  0.00    +0.000 A 
ATOM     13  C   UNL     1       3.092  13.698  18.193  0.00  0.00    +0.000 C 
ATOM     14  N   UNL     1       2.634  14.374  20.567  0.00  0.00    +0.000 NA
ATOM     15  C   UNL     1       1.397  14.749  20.807  0.00  0.00    +0.000 A 
ATOM     16  C   UNL     1       0.964  16.006  21.316  0.00  0.00    +0.000 A 
ATOM     17  C   UNL     1       0.254  16.781  20.474  0.00  0.00    +0.000 A 
ATOM     18  C   UNL     1      -0.196  16.249  19.190  0.00  0.00    +0.000 A 
ATOM     19  C   UNL     1      -0.144  14.911  18.962  0.00  0.00    +0.000 A 
ATOM     20  N   UNL     1       0.582  14.091  19.865  0.00  0.00    +0.000 N 
ENDBRANCH   6  11
BRANCH   8  21
ATOM     21  N   UNL     1       2.512   8.372  17.840  0.00  0.00    +0.000 N 
ATOM     22  C   UNL     1       2.816   7.152  18.413  0.00  0.00    +0.000 C 
ATOM     23  O   UNL     1       2.392   6.737  19.484  0.00  0.00    +0.000 OA
ATOM     24  H   UNL     1       2.688   8.407  16.843  0.00  0.00    +0.000 HD
BRANCH  22  25
ATOM     25  C   UNL     1       3.710   6.261  17.534  0.00  0.00    +0.000 A 
ATOM     26  C   UNL     1       3.591   4.867  17.551  0.00  0.00    +0.000 A 
ATOM     27  C   UNL     1       4.442   4.097  16.741  0.00  0.00    +0.000 A 
ATOM     28  C   UNL     1       5.384   4.729  15.941  0.00  0.00    +0.000 A 
ATOM     29 CL   UNL     1       6.462   3.831  14.945  0.00  0.00    +0.000 Cl
ATOM     30  C   UNL     1       5.421   6.116  15.966  0.00  0.00    +0.000 A 
ATOM     31  N   UNL     1       4.611   6.902  16.735  0.00  0.00    +0.000 NA
ENDBRANCH  22  25
ENDBRANCH   8  21
BRANCH   1  32
ATOM     32  C   UNL     1      -3.833  10.329  16.039  0.00  0.00    +0.000 C 
ATOM     33  C   UNL     1      -3.619  10.166  14.537  0.00  0.00    +0.000 C 
BRANCH  32  35
ATOM     34  C   UNL     1      -5.294  11.148  17.792  0.00  0.00    +0.000 C 
ATOM     35  N   UNL     1      -4.908  11.287  16.387  0.00  0.00    +0.000 NA
ATOM     36  H   UNL     1      -4.532  12.232  16.266  0.00  0.00    +0.000 HD
ENDBRANCH  32  35
ENDBRANCH   1  32
TORSDOF 5
ENDMDL
