MODEL 1
REMARK VINA RESULT:      -6.4      0.000      0.000
REMARK  Name = 
REMARK  4 active torsions:
REMARK  status: ('A' for Active; 'I' for Inactive)
REMARK    1  A    between atoms: C_1  and  C_2
REMARK    2  A    between atoms: C_2  and  C_4
REMARK    3  A    between atoms: N_7  and  C_8
REMARK    4  A    between atoms: C_15  and  N_16
REMARK                            x       y       z     vdW  Elec       q    Type
REMARK                         _______ _______ _______ _____ _____    ______ ____
ROOT
ATOM      1  C   UNL     1       3.270   3.356  20.135  0.00  0.00    +0.000 A 
ATOM      2  S   UNL     1       2.962   4.803  19.240  0.00  0.00    +0.000 S 
ATOM      3  C   UNL     1       4.410   4.571  18.342  0.00  0.00    +0.000 A 
ATOM      4  N   UNL     1       4.769   5.445  17.374  0.00  0.00    +0.000 N 
ATOM      5  N   UNL     1       5.104   3.515  18.705  0.00  0.00    +0.000 NA
ATOM      6  C   UNL     1       4.477   2.844  19.712  0.00  0.00    +0.000 A 
ATOM      7  H   UNL     1       4.239   6.303  17.280  0.00  0.00    +0.000 HD
ENDROOT
BRANCH   4   8
ATOM      8  C   UNL     1       5.536   5.127  16.235  0.00  0.00    +0.000 A 
ATOM      9  C   UNL     1       6.867   5.543  16.080  0.00  0.00    +0.000 A 
ATOM     10  C   UNL     1       7.593   5.232  14.928  0.00  0.00    +0.000 A 
ATOM     11  C   UNL     1       6.987   4.523  13.897  0.00  0.00    +0.000 A 
ATOM     12  C   UNL     1       5.658   4.123  14.019  0.00  0.00    +0.000 A 
ATOM     13  C   UNL     1       4.940   4.420  15.182  0.00  0.00    +0.000 A 
ENDBRANCH   4   8
BRANCH   1  15
ATOM     14  C   UNL     1       0.844   3.098  20.834  0.00  0.00    +0.000 C 
ATOM     15  C   UNL     1       2.314   2.933  21.138  0.00  0.00    +0.000 C 
ATOM     16  O   UNL     1       2.637   2.456  22.230  0.00  0.00    +0.000 OA
ENDBRANCH   1  15
BRANCH   6  17
ATOM     17  N   UNL     1       5.133   1.756  20.144  0.00  0.00    +0.000 N 
ATOM     18  H   UNL     1       5.610   1.872  21.036  0.00  0.00    +0.000 HD
ATOM     19  H   UNL     1       5.630   1.129  19.526  0.00  0.00    +0.000 HD
ENDBRANCH   6  17
TORSDOF 3
ENDMDL
MODEL 2
REMARK VINA RESULT:      -6.4      3.311      6.300
REMARK  Name = 
REMARK  4 active torsions:
REMARK  status: ('A' for Active; 'I' for Inactive)
REMARK    1  A    between atoms: C_1  and  C_2
REMARK    2  A    between atoms: C_2  and  C_4
REMARK    3  A    between atoms: N_7  and  C_8
REMARK    4  A    between atoms: C_15  and  N_16
REMARK                            x       y       z     vdW  Elec       q    Type
REMARK                         _______ _______ _______ _____ _____    ______ ____
ROOT
ATOM      1  C   UNL     1       6.618   6.017  17.750  0.00  0.00    +0.000 A 
ATOM      2  S   UNL     1       5.190   5.498  16.925  0.00  0.00    +0.000 S 
ATOM      3  C   UNL     1       4.743   4.536  18.279  0.00  0.00    +0.000 A 
ATOM      4  N   UNL     1       3.597   3.817  18.267  0.00  0.00    +0.000 N 
ATOM      5  N   UNL     1       5.612   4.560  19.266  0.00  0.00    +0.000 NA
ATOM      6  C   UNL     1       6.663   5.375  18.968  0.00  0.00    +0.000 A 
ATOM      7  H   UNL     1       3.078   3.755  17.399  0.00  0.00    +0.000 HD
ENDROOT
BRANCH   4   8
ATOM      8  C   UNL     1       2.837   3.477  19.405  0.00  0.00    +0.000 A 
ATOM      9  C   UNL     1       3.335   2.656  20.427  0.00  0.00    +0.000 A 
ATOM     10  C   UNL     1       2.549   2.318  21.531  0.00  0.00    +0.000 A 
ATOM     11  C   UNL     1       1.239   2.773  21.615  0.00  0.00    +0.000 A 
ATOM     12  C   UNL     1       0.716   3.569  20.597  0.00  0.00    +0.000 A 
ATOM     13  C   UNL     1       1.512   3.921  19.503  0.00  0.00    +0.000 A 
ENDBRANCH   4   8
BRANCH   1  15
ATOM     14  C   UNL     1       7.863   8.227  17.820  0.00  0.00    +0.000 C 
ATOM     15  C   UNL     1       7.508   6.953  17.092  0.00  0.00    +0.000 C 
ATOM     16  O   UNL     1       7.981   6.769  15.967  0.00  0.00    +0.000 OA
ENDBRANCH   1  15
BRANCH   6  17
ATOM     17  N   UNL     1       7.600   5.442  19.926  0.00  0.00    +0.000 N 
ATOM     18  H   UNL     1       8.162   4.600  20.032  0.00  0.00    +0.000 HD
ATOM     19  H   UNL     1       7.455   5.917  20.807  0.00  0.00    +0.000 HD
ENDBRANCH   6  17
TORSDOF 3
ENDMDL
MODEL 3
REMARK VINA RESULT:      -6.4      0.110      1.207
REMARK  Name = 
REMARK  4 active torsions:
REMARK  status: ('A' for Active; 'I' for Inactive)
REMARK    1  A    between atoms: C_1  and  C_2
REMARK    2  A    between atoms: C_2  and  C_4
REMARK    3  A    between atoms: N_7  and  C_8
REMARK    4  A    between atoms: C_15  and  N_16
REMARK                            x       y       z     vdW  Elec       q    Type
REMARK                         _______ _______ _______ _____ _____    ______ ____
ROOT
ATOM      1  C   UNL     1       3.229   3.411  20.066  0.00  0.00    +0.000 A 
ATOM      2  S   UNL     1       2.900   4.854  19.172  0.00  0.00    +0.000 S 
ATOM      3  C   UNL     1       4.334   4.624  18.251  0.00  0.00    +0.000 A 
ATOM      4  N   UNL     1       4.673   5.496  17.273  0.00  0.00    +0.000 N 
ATOM      5  N   UNL     1       5.037   3.572  18.605  0.00  0.00    +0.000 NA
ATOM      6  C   UNL     1       4.430   2.902  19.625  0.00  0.00    +0.000 A 
ATOM      7  H   UNL     1       4.138   6.351  17.186  0.00  0.00    +0.000 HD
ENDROOT
BRANCH   4   8
ATOM      8  C   UNL     1       5.421   5.177  16.122  0.00  0.00    +0.000 A 
ATOM      9  C   UNL     1       4.886   4.446  15.052  0.00  0.00    +0.000 A 
ATOM     10  C   UNL     1       5.660   4.125  13.935  0.00  0.00    +0.000 A 
ATOM     11  C   UNL     1       6.996   4.506  13.885  0.00  0.00    +0.000 A 
ATOM     12  C   UNL     1       7.555   5.211  14.949  0.00  0.00    +0.000 A 
ATOM     13  C   UNL     1       6.771   5.547  16.057  0.00  0.00    +0.000 A 
ENDBRANCH   4   8
BRANCH   1  15
ATOM     14  C   UNL     1       0.815   3.101  20.788  0.00  0.00    +0.000 C 
ATOM     15  C   UNL     1       2.291   2.988  21.088  0.00  0.00    +0.000 C 
ATOM     16  O   UNL     1       2.634   2.552  22.190  0.00  0.00    +0.000 OA
ENDBRANCH   1  15
BRANCH   6  17
ATOM     17  N   UNL     1       5.097   1.818  20.050  0.00  0.00    +0.000 N 
ATOM     18  H   UNL     1       5.275   1.792  21.052  0.00  0.00    +0.000 HD
ATOM     19  H   UNL     1       5.842   1.385  19.520  0.00  0.00    +0.000 HD
ENDBRANCH   6  17
TORSDOF 3
ENDMDL
MODEL 4
REMARK VINA RESULT:      -6.4      3.296      6.343
REMARK  Name = 
REMARK  4 active torsions:
REMARK  status: ('A' for Active; 'I' for Inactive)
REMARK    1  A    between atoms: C_1  and  C_2
REMARK    2  A    between atoms: C_2  and  C_4
REMARK    3  A    between atoms: N_7  and  C_8
REMARK    4  A    between atoms: C_15  and  N_16
REMARK                            x       y       z     vdW  Elec       q    Type
REMARK                         _______ _______ _______ _____ _____    ______ ____
ROOT
ATOM      1  C   UNL     1       6.615   5.965  17.725  0.00  0.00    +0.000 A 
ATOM      2  S   UNL     1       5.239   5.361  16.872  0.00  0.00    +0.000 S 
ATOM      3  C   UNL     1       4.777   4.437  18.246  0.00  0.00    +0.000 A 
ATOM      4  N   UNL     1       3.659   3.675  18.221  0.00  0.00    +0.000 N 
ATOM      5  N   UNL     1       5.606   4.532  19.262  0.00  0.00    +0.000 NA
ATOM      6  C   UNL     1       6.638   5.374  18.969  0.00  0.00    +0.000 A 
ATOM      7  H   UNL     1       3.176   3.558  17.339  0.00  0.00    +0.000 HD
ENDROOT
BRANCH   4   8
ATOM      8  C   UNL     1       2.870   3.350  19.344  0.00  0.00    +0.000 A 
ATOM      9  C   UNL     1       1.542   3.779  19.482  0.00  0.00    +0.000 A 
ATOM     10  C   UNL     1       0.794   3.461  20.618  0.00  0.00    +0.000 A 
ATOM     11  C   UNL     1       1.374   2.732  21.649  0.00  0.00    +0.000 A 
ATOM     12  C   UNL     1       2.701   2.318  21.543  0.00  0.00    +0.000 A 
ATOM     13  C   UNL     1       3.441   2.623  20.396  0.00  0.00    +0.000 A 
ENDBRANCH   4   8
BRANCH   1  15
ATOM     14  C   UNL     1       7.834   8.190  17.784  0.00  0.00    +0.000 C 
ATOM     15  C   UNL     1       7.494   6.909  17.063  0.00  0.00    +0.000 C 
ATOM     16  O   UNL     1       7.970   6.724  15.939  0.00  0.00    +0.000 OA
ENDBRANCH   1  15
BRANCH   6  17
ATOM     17  N   UNL     1       7.535   5.513  19.957  0.00  0.00    +0.000 N 
ATOM     18  H   UNL     1       8.120   4.697  20.120  0.00  0.00    +0.000 HD
ATOM     19  H   UNL     1       7.341   6.019  20.811  0.00  0.00    +0.000 HD
ENDBRANCH   6  17
TORSDOF 3
ENDMDL
MODEL 5
REMARK VINA RESULT:      -6.3      3.153      6.552
REMARK  Name = 
REMARK  4 active torsions:
REMARK  status: ('A' for Active; 'I' for Inactive)
REMARK    1  A    between atoms: C_1  and  C_2
REMARK    2  A    between atoms: C_2  and  C_4
REMARK    3  A    between atoms: N_7  and  C_8
REMARK    4  A    between atoms: C_15  and  N_16
REMARK                            x       y       z     vdW  Elec       q    Type
REMARK                         _______ _______ _______ _____ _____    ______ ____
ROOT
ATOM      1  C   UNL     1       6.019   4.750  15.068  0.00  0.00    +0.000 A 
ATOM      2  S   UNL     1       5.965   3.288  15.989  0.00  0.00    +0.000 S 
ATOM      3  C   UNL     1       4.958   4.047  17.158  0.00  0.00    +0.000 A 
ATOM      4  N   UNL     1       4.510   3.359  18.233  0.00  0.00    +0.000 N 
ATOM      5  N   UNL     1       4.708   5.313  16.910  0.00  0.00    +0.000 NA
ATOM      6  C   UNL     1       5.309   5.711  15.753  0.00  0.00    +0.000 A 
ATOM      7  H   UNL     1       4.885   2.434  18.402  0.00  0.00    +0.000 HD
ENDROOT
BRANCH   4   8
ATOM      8  C   UNL     1       3.304   3.613  18.917  0.00  0.00    +0.000 A 
ATOM      9  C   UNL     1       3.217   4.518  19.985  0.00  0.00    +0.000 A 
ATOM     10  C   UNL     1       2.012   4.731  20.657  0.00  0.00    +0.000 A 
ATOM     11  C   UNL     1       0.877   4.017  20.290  0.00  0.00    +0.000 A 
ATOM     12  C   UNL     1       0.947   3.094  19.247  0.00  0.00    +0.000 A 
ATOM     13  C   UNL     1       2.152   2.898  18.564  0.00  0.00    +0.000 A 
ENDBRANCH   4   8
BRANCH   1  15
ATOM     14  C   UNL     1       6.417   3.743  12.772  0.00  0.00    +0.000 C 
ATOM     15  C   UNL     1       6.763   4.769  13.824  0.00  0.00    +0.000 C 
ATOM     16  O   UNL     1       7.669   5.573  13.584  0.00  0.00    +0.000 OA
ENDBRANCH   1  15
BRANCH   6  17
ATOM     17  N   UNL     1       5.107   6.999  15.439  0.00  0.00    +0.000 N 
ATOM     18  H   UNL     1       5.539   7.666  16.075  0.00  0.00    +0.000 HD
ATOM     19  H   UNL     1       4.236   7.345  15.059  0.00  0.00    +0.000 HD
ENDBRANCH   6  17
TORSDOF 3
ENDMDL
MODEL 6
REMARK VINA RESULT:      -6.3      2.757      6.391
REMARK  Name = 
REMARK  4 active torsions:
REMARK  status: ('A' for Active; 'I' for Inactive)
REMARK    1  A    between atoms: C_1  and  C_2
REMARK    2  A    between atoms: C_2  and  C_4
REMARK    3  A    between atoms: N_7  and  C_8
REMARK    4  A    between atoms: C_15  and  N_16
REMARK                            x       y       z     vdW  Elec       q    Type
REMARK                         _______ _______ _______ _____ _____    ______ ____
ROOT
ATOM      1  C   UNL     1       6.319   4.819  16.820  0.00  0.00    +0.000 A 
ATOM      2  S   UNL     1       4.974   3.897  16.247  0.00  0.00    +0.000 S 
ATOM      3  C   UNL     1       4.552   3.486  17.862  0.00  0.00    +0.000 A 
ATOM      4  N   UNL     1       3.470   2.714  18.118  0.00  0.00    +0.000 N 
ATOM      5  N   UNL     1       5.374   3.963  18.771  0.00  0.00    +0.000 NA
ATOM      6  C   UNL     1       6.366   4.696  18.191  0.00  0.00    +0.000 A 
ATOM      7  H   UNL     1       2.996   2.278  17.337  0.00  0.00    +0.000 HD
ENDROOT
BRANCH   4   8
ATOM      8  C   UNL     1       2.695   2.764  19.294  0.00  0.00    +0.000 A 
ATOM      9  C   UNL     1       1.362   3.200  19.302  0.00  0.00    +0.000 A 
ATOM     10  C   UNL     1       0.627   3.260  20.488  0.00  0.00    +0.000 A 
ATOM     11  C   UNL     1       1.225   2.912  21.693  0.00  0.00    +0.000 A 
ATOM     12  C   UNL     1       2.557   2.500  21.711  0.00  0.00    +0.000 A 
ATOM     13  C   UNL     1       3.283   2.423  20.519  0.00  0.00    +0.000 A 
ENDBRANCH   4   8
BRANCH   1  15
ATOM     14  C   UNL     1       7.209   4.981  14.449  0.00  0.00    +0.000 C 
ATOM     15  C   UNL     1       7.155   5.513  15.860  0.00  0.00    +0.000 C 
ATOM     16  O   UNL     1       7.831   6.508  16.139  0.00  0.00    +0.000 OA
ENDBRANCH   1  15
BRANCH   6  17
ATOM     17  N   UNL     1       7.253   5.208  19.057  0.00  0.00    +0.000 N 
ATOM     18  H   UNL     1       8.228   5.097  18.785  0.00  0.00    +0.000 HD
ATOM     19  H   UNL     1       7.131   5.170  20.060  0.00  0.00    +0.000 HD
ENDBRANCH   6  17
TORSDOF 3
ENDMDL
MODEL 7
REMARK VINA RESULT:      -6.3      3.149      6.634
REMARK  Name = 
REMARK  4 active torsions:
REMARK  status: ('A' for Active; 'I' for Inactive)
REMARK    1  A    between atoms: C_1  and  C_2
REMARK    2  A    between atoms: C_2  and  C_4
REMARK    3  A    between atoms: N_7  and  C_8
REMARK    4  A    between atoms: C_15  and  N_16
REMARK                            x       y       z     vdW  Elec       q    Type
REMARK                         _______ _______ _______ _____ _____    ______ ____
ROOT
ATOM      1  C   UNL     1       6.072   4.768  15.111  0.00  0.00    +0.000 A 
ATOM      2  S   UNL     1       6.062   3.314  16.046  0.00  0.00    +0.000 S 
ATOM      3  C   UNL     1       4.998   4.040  17.186  0.00  0.00    +0.000 A 
ATOM      4  N   UNL     1       4.558   3.344  18.259  0.00  0.00    +0.000 N 
ATOM      5  N   UNL     1       4.698   5.292  16.920  0.00  0.00    +0.000 NA
ATOM      6  C   UNL     1       5.306   5.704  15.771  0.00  0.00    +0.000 A 
ATOM      7  H   UNL     1       4.969   2.437  18.446  0.00  0.00    +0.000 HD
ENDROOT
BRANCH   4   8
ATOM      8  C   UNL     1       3.327   3.551  18.915  0.00  0.00    +0.000 A 
ATOM      9  C   UNL     1       2.129   2.969  18.475  0.00  0.00    +0.000 A 
ATOM     10  C   UNL     1       0.922   3.213  19.132  0.00  0.00    +0.000 A 
ATOM     11  C   UNL     1       0.888   4.070  20.226  0.00  0.00    +0.000 A 
ATOM     12  C   UNL     1       2.063   4.680  20.664  0.00  0.00    +0.000 A 
ATOM     13  C   UNL     1       3.273   4.417  20.015  0.00  0.00    +0.000 A 
ENDBRANCH   4   8
BRANCH   1  15
ATOM     14  C   UNL     1       6.480   3.836  12.786  0.00  0.00    +0.000 C 
ATOM     15  C   UNL     1       6.841   4.809  13.883  0.00  0.00    +0.000 C 
ATOM     16  O   UNL     1       7.778   5.588  13.691  0.00  0.00    +0.000 OA
ENDBRANCH   1  15
BRANCH   6  17
ATOM     17  N   UNL     1       5.055   6.979  15.439  0.00  0.00    +0.000 N 
ATOM     18  H   UNL     1       4.721   7.114  14.487  0.00  0.00    +0.000 HD
ATOM     19  H   UNL     1       5.620   7.754  15.758  0.00  0.00    +0.000 HD
ENDBRANCH   6  17
TORSDOF 3
ENDMDL
MODEL 8
REMARK VINA RESULT:      -6.2      3.317      6.548
REMARK  Name = 
REMARK  4 active torsions:
REMARK  status: ('A' for Active; 'I' for Inactive)
REMARK    1  A    between atoms: C_1  and  C_2
REMARK    2  A    between atoms: C_2  and  C_4
REMARK    3  A    between atoms: N_7  and  C_8
REMARK    4  A    between atoms: C_15  and  N_16
REMARK                            x       y       z     vdW  Elec       q    Type
REMARK                         _______ _______ _______ _____ _____    ______ ____
ROOT
ATOM      1  C   UNL     1       6.719   4.841  15.084  0.00  0.00    +0.000 A 
ATOM      2  S   UNL     1       5.633   3.513  15.299  0.00  0.00    +0.000 S 
ATOM      3  C   UNL     1       5.287   4.040  16.900  0.00  0.00    +0.000 A 
ATOM      4  N   UNL     1       4.408   3.363  17.674  0.00  0.00    +0.000 N 
ATOM      5  N   UNL     1       5.961   5.106  17.272  0.00  0.00    +0.000 NA
ATOM      6  C   UNL     1       6.769   5.546  16.266  0.00  0.00    +0.000 A 
ATOM      7  H   UNL     1       4.060   2.473  17.340  0.00  0.00    +0.000 HD
ENDROOT
BRANCH   4   8
ATOM      8  C   UNL     1       3.620   3.930  18.697  0.00  0.00    +0.000 A 
ATOM      9  C   UNL     1       3.400   3.288  19.924  0.00  0.00    +0.000 A 
ATOM     10  C   UNL     1       2.595   3.865  20.909  0.00  0.00    +0.000 A 
ATOM     11  C   UNL     1       1.972   5.084  20.668  0.00  0.00    +0.000 A 
ATOM     12  C   UNL     1       2.157   5.727  19.445  0.00  0.00    +0.000 A 
ATOM     13  C   UNL     1       2.979   5.155  18.470  0.00  0.00    +0.000 A 
ENDBRANCH   4   8
BRANCH   1  15
ATOM     14  C   UNL     1       6.912   4.166  12.645  0.00  0.00    +0.000 C 
ATOM     15  C   UNL     1       7.391   4.999  13.809  0.00  0.00    +0.000 C 
ATOM     16  O   UNL     1       8.337   5.771  13.629  0.00  0.00    +0.000 OA
ENDBRANCH   1  15
BRANCH   6  17
ATOM     17  N   UNL     1       7.498   6.628  16.576  0.00  0.00    +0.000 N 
ATOM     18  H   UNL     1       8.224   6.861  15.902  0.00  0.00    +0.000 HD
ATOM     19  H   UNL     1       7.771   6.857  17.523  0.00  0.00    +0.000 HD
ENDBRANCH   6  17
TORSDOF 3
ENDMDL
MODEL 9
REMARK VINA RESULT:      -6.2      2.620      3.271
REMARK  Name = 
REMARK  4 active torsions:
REMARK  status: ('A' for Active; 'I' for Inactive)
REMARK    1  A    between atoms: C_1  and  C_2
REMARK    2  A    between atoms: C_2  and  C_4
REMARK    3  A    between atoms: N_7  and  C_8
REMARK    4  A    between atoms: C_15  and  N_16
REMARK                            x       y       z     vdW  Elec       q    Type
REMARK                         _______ _______ _______ _____ _____    ______ ____
ROOT
ATOM      1  C   UNL     1       2.206   3.857  19.634  0.00  0.00    +0.000 A 
ATOM      2  S   UNL     1       3.270   3.282  18.399  0.00  0.00    +0.000 S 
ATOM      3  C   UNL     1       4.102   4.787  18.399  0.00  0.00    +0.000 A 
ATOM      4  N   UNL     1       5.159   4.992  17.579  0.00  0.00    +0.000 N 
ATOM      5  N   UNL     1       3.603   5.677  19.228  0.00  0.00    +0.000 NA
ATOM      6  C   UNL     1       2.538   5.165  19.908  0.00  0.00    +0.000 A 
ATOM      7  H   UNL     1       5.364   4.291  16.877  0.00  0.00    +0.000 HD
ENDROOT
BRANCH   4   8
ATOM      8  C   UNL     1       6.236   5.863  17.840  0.00  0.00    +0.000 A 
ATOM      9  C   UNL     1       7.185   5.610  18.841  0.00  0.00    +0.000 A 
ATOM     10  C   UNL     1       8.228   6.504  19.092  0.00  0.00    +0.000 A 
ATOM     11  C   UNL     1       8.320   7.685  18.364  0.00  0.00    +0.000 A 
ATOM     12  C   UNL     1       7.372   7.967  17.382  0.00  0.00    +0.000 A 
ATOM     13  C   UNL     1       6.341   7.060  17.120  0.00  0.00    +0.000 A 
ENDBRANCH   4   8
BRANCH   1  15
ATOM     14  C   UNL     1       1.275   2.532  21.588  0.00  0.00    +0.000 C 
ATOM     15  C   UNL     1       1.181   2.969  20.147  0.00  0.00    +0.000 C 
ATOM     16  O   UNL     1       0.242   2.545  19.465  0.00  0.00    +0.000 OA
ENDBRANCH   1  15
BRANCH   6  17
ATOM     17  N   UNL     1       1.967   6.022  20.767  0.00  0.00    +0.000 N 
ATOM     18  H   UNL     1       1.607   5.595  21.618  0.00  0.00    +0.000 HD
ATOM     19  H   UNL     1       1.409   6.811  20.472  0.00  0.00    +0.000 HD
ENDBRANCH   6  17
TORSDOF 3
ENDMDL
