MODEL 1
REMARK VINA RESULT:      -7.1      0.000      0.000
REMARK  Name = 
REMARK  7 active torsions:
REMARK  status: ('A' for Active; 'I' for Inactive)
REMARK    1  A    between atoms: C_2  and  O_3
REMARK    2  A    between atoms: C_2  and  C_4
REMARK    3  A    between atoms: N_6  and  C_7
REMARK    4  A    between atoms: C_7  and  O_8
REMARK    5  A    between atoms: O_8  and  C_9
REMARK    6  A    between atoms: C_9  and  C_10
REMARK    7  A    between atoms: C_10  and  O_11
REMARK                            x       y       z     vdW  Elec       q    Type
REMARK                         _______ _______ _______ _____ _____    ______ ____
ROOT
ATOM      1  C   UNL     1       5.604   4.797  16.433  0.00  0.00    +0.000 A 
ATOM      2  C   UNL     1       5.319   3.968  17.449  0.00  0.00    +0.000 A 
ATOM      3  N   UNL     1       4.430   4.217  18.487  0.00  0.00    +0.000 N 
ATOM      4  C   UNL     1       3.754   5.458  18.532  0.00  0.00    +0.000 A 
ATOM      5  C   UNL     1       2.911   5.846  19.586  0.00  0.00    +0.000 A 
ATOM      6  C   UNL     1       2.272   7.092  19.588  0.00  0.00    +0.000 A 
ATOM      7  C   UNL     1       2.437   7.964  18.518  0.00  0.00    +0.000 A 
ATOM      8 CL   UNL     1       1.654   9.493  18.531  0.00  0.00    +0.000 Cl
ATOM      9  C   UNL     1       3.255   7.613  17.452  0.00  0.00    +0.000 A 
ATOM     10  C   UNL     1       3.927   6.383  17.478  0.00  0.00    +0.000 A 
ATOM     11  C   UNL     1       4.881   6.074  16.387  0.00  0.00    +0.000 A 
ATOM     12  O   UNL     1       5.099   6.874  15.479  0.00  0.00    +0.000 OA
ENDROOT
BRANCH   1  14
ATOM     13  O   UNL     1       7.757   4.899  15.417  0.00  0.00    +0.000 OA
ATOM     14  C   UNL     1       6.639   4.404  15.447  0.00  0.00    +0.000 C 
BRANCH  14  15
ATOM     15  O   UNL     1       6.245   3.454  14.576  0.00  0.00    +0.000 OA
ATOM     16  H   UNL     1       6.933   2.771  14.379  0.00  0.00    +0.000 HD
ENDBRANCH  14  15
ENDBRANCH   1  14
BRANCH   3  17
ATOM     17  C   UNL     1       4.222   3.243  19.570  0.00  0.00    +0.000 C 
BRANCH  17  18
ATOM     18  O   UNL     1       3.626   2.024  19.114  0.00  0.00    +0.000 OA
BRANCH  18  19
ATOM     19  C   UNL     1       2.198   2.113  19.047  0.00  0.00    +0.000 C 
BRANCH  19  20
ATOM     20  C   UNL     1       1.657   2.489  20.423  0.00  0.00    +0.000 C 
BRANCH  20  21
ATOM     21  O   UNL     1       0.431   3.205  20.304  0.00  0.00    +0.000 OA
ATOM     22  H   UNL     1       0.546   4.018  20.831  0.00  0.00    +0.000 HD
ENDBRANCH  20  21
ENDBRANCH  19  20
ENDBRANCH  18  19
ENDBRANCH  17  18
ENDBRANCH   3  17
TORSDOF 7
ENDMDL
MODEL 2
REMARK VINA RESULT:      -7.0      1.466      5.160
REMARK  Name = 
REMARK  7 active torsions:
REMARK  status: ('A' for Active; 'I' for Inactive)
REMARK    1  A    between atoms: C_2  and  O_3
REMARK    2  A    between atoms: C_2  and  C_4
REMARK    3  A    between atoms: N_6  and  C_7
REMARK    4  A    between atoms: C_7  and  O_8
REMARK    5  A    between atoms: O_8  and  C_9
REMARK    6  A    between atoms: C_9  and  C_10
REMARK    7  A    between atoms: C_10  and  O_11
REMARK                            x       y       z     vdW  Elec       q    Type
REMARK                         _______ _______ _______ _____ _____    ______ ____
ROOT
ATOM      1  C   UNL     1       2.601   4.031  20.404  0.00  0.00    +0.000 A 
ATOM      2  C   UNL     1       3.636   3.701  19.615  0.00  0.00    +0.000 A 
ATOM      3  N   UNL     1       4.227   4.512  18.654  0.00  0.00    +0.000 N 
ATOM      4  C   UNL     1       3.708   5.808  18.434  0.00  0.00    +0.000 A 
ATOM      5  C   UNL     1       4.169   6.669  17.424  0.00  0.00    +0.000 A 
ATOM      6  C   UNL     1       3.613   7.941  17.241  0.00  0.00    +0.000 A 
ATOM      7  C   UNL     1       2.607   8.393  18.086  0.00  0.00    +0.000 A 
ATOM      8 CL   UNL     1       1.927   9.954  17.849  0.00  0.00    +0.000 Cl
ATOM      9  C   UNL     1       2.131   7.577  19.103  0.00  0.00    +0.000 A 
ATOM     10  C   UNL     1       2.660   6.287  19.252  0.00  0.00    +0.000 A 
ATOM     11  C   UNL     1       2.063   5.390  20.270  0.00  0.00    +0.000 A 
ATOM     12  O   UNL     1       1.116   5.750  20.966  0.00  0.00    +0.000 OA
ENDROOT
BRANCH   1  14
ATOM     13  O   UNL     1       2.720   2.412  22.148  0.00  0.00    +0.000 OA
ATOM     14  C   UNL     1       2.043   3.014  21.327  0.00  0.00    +0.000 C 
BRANCH  14  15
ATOM     15  O   UNL     1       0.720   2.801  21.184  0.00  0.00    +0.000 OA
ATOM     16  H   UNL     1       0.184   3.014  21.988  0.00  0.00    +0.000 HD
ENDBRANCH  14  15
ENDBRANCH   1  14
BRANCH   3  17
ATOM     17  C   UNL     1       5.340   4.030  17.822  0.00  0.00    +0.000 C 
BRANCH  17  18
ATOM     18  O   UNL     1       6.622   4.315  18.390  0.00  0.00    +0.000 OA
BRANCH  18  19
ATOM     19  C   UNL     1       7.602   4.616  17.389  0.00  0.00    +0.000 C 
BRANCH  19  20
ATOM     20  C   UNL     1       6.929   4.625  16.021  0.00  0.00    +0.000 C 
BRANCH  20  21
ATOM     21  O   UNL     1       7.712   5.352  15.078  0.00  0.00    +0.000 OA
ATOM     22  H   UNL     1       8.485   5.683  15.574  0.00  0.00    +0.000 HD
ENDBRANCH  20  21
ENDBRANCH  19  20
ENDBRANCH  18  19
ENDBRANCH  17  18
ENDBRANCH   3  17
TORSDOF 7
ENDMDL
MODEL 3
REMARK VINA RESULT:      -6.9      0.961      1.111
REMARK  Name = 
REMARK  7 active torsions:
REMARK  status: ('A' for Active; 'I' for Inactive)
REMARK    1  A    between atoms: C_2  and  O_3
REMARK    2  A    between atoms: C_2  and  C_4
REMARK    3  A    between atoms: N_6  and  C_7
REMARK    4  A    between atoms: C_7  and  O_8
REMARK    5  A    between atoms: O_8  and  C_9
REMARK    6  A    between atoms: C_9  and  C_10
REMARK    7  A    between atoms: C_10  and  O_11
REMARK                            x       y       z     vdW  Elec       q    Type
REMARK                         _______ _______ _______ _____ _____    ______ ____
ROOT
ATOM      1  C   UNL     1       5.684   4.905  17.054  0.00  0.00    +0.000 A 
ATOM      2  C   UNL     1       5.286   4.207  18.129  0.00  0.00    +0.000 A 
ATOM      3  N   UNL     1       4.285   4.572  19.021  0.00  0.00    +0.000 N 
ATOM      4  C   UNL     1       3.609   5.799  18.832  0.00  0.00    +0.000 A 
ATOM      5  C   UNL     1       2.651   6.305  19.726  0.00  0.00    +0.000 A 
ATOM      6  C   UNL     1       2.017   7.532  19.499  0.00  0.00    +0.000 A 
ATOM      7  C   UNL     1       2.302   8.264  18.352  0.00  0.00    +0.000 A 
ATOM      8 CL   UNL     1       1.522   9.771  18.084  0.00  0.00    +0.000 Cl
ATOM      9  C   UNL     1       3.235   7.793  17.438  0.00  0.00    +0.000 A 
ATOM     10  C   UNL     1       3.900   6.587  17.695  0.00  0.00    +0.000 A 
ATOM     11  C   UNL     1       4.971   6.155  16.765  0.00  0.00    +0.000 A 
ATOM     12  O   UNL     1       5.290   6.838  15.794  0.00  0.00    +0.000 OA
ENDROOT
BRANCH   1  14
ATOM     13  O   UNL     1       7.966   4.331  16.679  0.00  0.00    +0.000 OA
ATOM     14  C   UNL     1       6.824   4.406  16.248  0.00  0.00    +0.000 C 
BRANCH  14  15
ATOM     15  O   UNL     1       6.499   4.044  14.991  0.00  0.00    +0.000 OA
ATOM     16  H   UNL     1       6.861   4.641  14.289  0.00  0.00    +0.000 HD
ENDBRANCH  14  15
ENDBRANCH   1  14
BRANCH   3  17
ATOM     17  C   UNL     1       3.956   3.740  20.188  0.00  0.00    +0.000 C 
BRANCH  17  18
ATOM     18  O   UNL     1       3.375   2.483  19.828  0.00  0.00    +0.000 OA
BRANCH  18  19
ATOM     19  C   UNL     1       1.948   2.490  19.957  0.00  0.00    +0.000 C 
BRANCH  19  20
ATOM     20  C   UNL     1       1.322   2.327  18.575  0.00  0.00    +0.000 C 
BRANCH  20  21
ATOM     21  O   UNL     1       2.265   1.781  17.656  0.00  0.00    +0.000 OA
ATOM     22  H   UNL     1       1.808   1.041  17.216  0.00  0.00    +0.000 HD
ENDBRANCH  20  21
ENDBRANCH  19  20
ENDBRANCH  18  19
ENDBRANCH  17  18
ENDBRANCH   3  17
TORSDOF 7
ENDMDL
MODEL 4
REMARK VINA RESULT:      -6.8      0.749      1.060
REMARK  Name = 
REMARK  7 active torsions:
REMARK  status: ('A' for Active; 'I' for Inactive)
REMARK    1  A    between atoms: C_2  and  O_3
REMARK    2  A    between atoms: C_2  and  C_4
REMARK    3  A    between atoms: N_6  and  C_7
REMARK    4  A    between atoms: C_7  and  O_8
REMARK    5  A    between atoms: O_8  and  C_9
REMARK    6  A    between atoms: C_9  and  C_10
REMARK    7  A    between atoms: C_10  and  O_11
REMARK                            x       y       z     vdW  Elec       q    Type
REMARK                         _______ _______ _______ _____ _____    ______ ____
ROOT
ATOM      1  C   UNL     1       5.409   4.843  16.628  0.00  0.00    +0.000 A 
ATOM      2  C   UNL     1       4.992   4.076  17.647  0.00  0.00    +0.000 A 
ATOM      3  N   UNL     1       4.060   4.432  18.615  0.00  0.00    +0.000 N 
ATOM      4  C   UNL     1       3.487   5.723  18.577  0.00  0.00    +0.000 A 
ATOM      5  C   UNL     1       2.611   6.214  19.558  0.00  0.00    +0.000 A 
ATOM      6  C   UNL     1       2.077   7.506  19.479  0.00  0.00    +0.000 A 
ATOM      7  C   UNL     1       2.382   8.323  18.397  0.00  0.00    +0.000 A 
ATOM      8 CL   UNL     1       1.727   9.909  18.311  0.00  0.00    +0.000 Cl
ATOM      9  C   UNL     1       3.235   7.871  17.400  0.00  0.00    +0.000 A 
ATOM     10  C   UNL     1       3.802   6.593  17.509  0.00  0.00    +0.000 A 
ATOM     11  C   UNL     1       4.796   6.170  16.494  0.00  0.00    +0.000 A 
ATOM     12  O   UNL     1       5.137   6.918  15.580  0.00  0.00    +0.000 OA
ENDROOT
BRANCH   1  14
ATOM     13  O   UNL     1       6.266   3.495  14.860  0.00  0.00    +0.000 OA
ATOM     14  C   UNL     1       6.470   4.334  15.726  0.00  0.00    +0.000 C 
BRANCH  14  15
ATOM     15  O   UNL     1       7.688   4.869  15.944  0.00  0.00    +0.000 OA
ATOM     16  H   UNL     1       7.764   5.377  16.790  0.00  0.00    +0.000 HD
ENDBRANCH  14  15
ENDBRANCH   1  14
BRANCH   3  17
ATOM     17  C   UNL     1       3.704   3.516  19.710  0.00  0.00    +0.000 C 
BRANCH  17  18
ATOM     18  O   UNL     1       2.793   2.490  19.303  0.00  0.00    +0.000 OA
BRANCH  18  19
ATOM     19  C   UNL     1       1.523   2.604  19.956  0.00  0.00    +0.000 C 
BRANCH  19  20
ATOM     20  C   UNL     1       1.724   3.239  21.328  0.00  0.00    +0.000 C 
BRANCH  20  21
ATOM     21  O   UNL     1       1.449   2.300  22.364  0.00  0.00    +0.000 OA
ATOM     22  H   UNL     1       2.163   2.410  23.019  0.00  0.00    +0.000 HD
ENDBRANCH  20  21
ENDBRANCH  19  20
ENDBRANCH  18  19
ENDBRANCH  17  18
ENDBRANCH   3  17
TORSDOF 7
ENDMDL
MODEL 5
REMARK VINA RESULT:      -6.7      2.034      5.041
REMARK  Name = 
REMARK  7 active torsions:
REMARK  status: ('A' for Active; 'I' for Inactive)
REMARK    1  A    between atoms: C_2  and  O_3
REMARK    2  A    between atoms: C_2  and  C_4
REMARK    3  A    between atoms: N_6  and  C_7
REMARK    4  A    between atoms: C_7  and  O_8
REMARK    5  A    between atoms: O_8  and  C_9
REMARK    6  A    between atoms: C_9  and  C_10
REMARK    7  A    between atoms: C_10  and  O_11
REMARK                            x       y       z     vdW  Elec       q    Type
REMARK                         _______ _______ _______ _____ _____    ______ ____
ROOT
ATOM      1  C   UNL     1       2.700   3.985  20.380  0.00  0.00    +0.000 A 
ATOM      2  C   UNL     1       3.740   3.683  19.587  0.00  0.00    +0.000 A 
ATOM      3  N   UNL     1       4.310   4.512  18.630  0.00  0.00    +0.000 N 
ATOM      4  C   UNL     1       3.762   5.798  18.418  0.00  0.00    +0.000 A 
ATOM      5  C   UNL     1       4.201   6.675  17.413  0.00  0.00    +0.000 A 
ATOM      6  C   UNL     1       3.617   7.935  17.238  0.00  0.00    +0.000 A 
ATOM      7  C   UNL     1       2.603   8.360  18.088  0.00  0.00    +0.000 A 
ATOM      8 CL   UNL     1       1.889   9.906  17.862  0.00  0.00    +0.000 Cl
ATOM      9  C   UNL     1       2.148   7.527  19.101  0.00  0.00    +0.000 A 
ATOM     10  C   UNL     1       2.706   6.249  19.241  0.00  0.00    +0.000 A 
ATOM     11  C   UNL     1       2.132   5.333  20.256  0.00  0.00    +0.000 A 
ATOM     12  O   UNL     1       1.179   5.667  20.956  0.00  0.00    +0.000 OA
ENDROOT
BRANCH   1  14
ATOM     13  O   UNL     1       0.975   2.696  21.400  0.00  0.00    +0.000 OA
ATOM     14  C   UNL     1       2.167   2.951  21.299  0.00  0.00    +0.000 C 
BRANCH  14  15
ATOM     15  O   UNL     1       3.107   2.314  22.025  0.00  0.00    +0.000 OA
ATOM     16  H   UNL     1       3.179   1.345  21.837  0.00  0.00    +0.000 HD
ENDBRANCH  14  15
ENDBRANCH   1  14
BRANCH   3  17
ATOM     17  C   UNL     1       5.432   4.060  17.792  0.00  0.00    +0.000 C 
BRANCH  17  18
ATOM     18  O   UNL     1       6.682   4.065  18.487  0.00  0.00    +0.000 OA
BRANCH  18  19
ATOM     19  C   UNL     1       7.565   5.086  18.005  0.00  0.00    +0.000 C 
BRANCH  19  20
ATOM     20  C   UNL     1       7.814   6.096  19.120  0.00  0.00    +0.000 C 
BRANCH  20  21
ATOM     21  O   UNL     1       7.940   5.438  20.378  0.00  0.00    +0.000 OA
ATOM     22  H   UNL     1       7.036   5.384  20.740  0.00  0.00    +0.000 HD
ENDBRANCH  20  21
ENDBRANCH  19  20
ENDBRANCH  18  19
ENDBRANCH  17  18
ENDBRANCH   3  17
TORSDOF 7
ENDMDL
MODEL 6
REMARK VINA RESULT:      -6.6      2.991      5.525
REMARK  Name = 
REMARK  7 active torsions:
REMARK  status: ('A' for Active; 'I' for Inactive)
REMARK    1  A    between atoms: C_2  and  O_3
REMARK    2  A    between atoms: C_2  and  C_4
REMARK    3  A    between atoms: N_6  and  C_7
REMARK    4  A    between atoms: C_7  and  O_8
REMARK    5  A    between atoms: O_8  and  C_9
REMARK    6  A    between atoms: C_9  and  C_10
REMARK    7  A    between atoms: C_10  and  O_11
REMARK                            x       y       z     vdW  Elec       q    Type
REMARK                         _______ _______ _______ _____ _____    ______ ____
ROOT
ATOM      1  C   UNL     1       1.921   3.662  18.886  0.00  0.00    +0.000 A 
ATOM      2  C   UNL     1       1.821   4.957  19.223  0.00  0.00    +0.000 A 
ATOM      3  N   UNL     1       2.580   6.001  18.709  0.00  0.00    +0.000 N 
ATOM      4  C   UNL     1       3.582   5.718  17.754  0.00  0.00    +0.000 A 
ATOM      5  C   UNL     1       4.465   6.683  17.244  0.00  0.00    +0.000 A 
ATOM      6  C   UNL     1       5.448   6.349  16.305  0.00  0.00    +0.000 A 
ATOM      7  C   UNL     1       5.547   5.047  15.829  0.00  0.00    +0.000 A 
ATOM      8 CL   UNL     1       6.760   4.645  14.681  0.00  0.00    +0.000 Cl
ATOM      9  C   UNL     1       4.685   4.066  16.300  0.00  0.00    +0.000 A 
ATOM     10  C   UNL     1       3.734   4.397  17.274  0.00  0.00    +0.000 A 
ATOM     11  C   UNL     1       2.897   3.315  17.846  0.00  0.00    +0.000 A 
ATOM     12  O   UNL     1       3.034   2.145  17.494  0.00  0.00    +0.000 OA
ENDROOT
BRANCH   1  14
ATOM     13  O   UNL     1       0.961   2.630  20.807  0.00  0.00    +0.000 OA
ATOM     14  C   UNL     1       1.083   2.663  19.590  0.00  0.00    +0.000 C 
BRANCH  14  15
ATOM     15  O   UNL     1       0.465   1.783  18.777  0.00  0.00    +0.000 OA
ATOM     16  H   UNL     1      -0.362   1.392  19.153  0.00  0.00    +0.000 HD
ENDBRANCH  14  15
ENDBRANCH   1  14
BRANCH   3  17
ATOM     17  C   UNL     1       2.403   7.383  19.182  0.00  0.00    +0.000 C 
BRANCH  17  18
ATOM     18  O   UNL     1       1.671   7.462  20.409  0.00  0.00    +0.000 OA
BRANCH  18  19
ATOM     19  C   UNL     1       1.186   8.786  20.664  0.00  0.00    +0.000 C 
BRANCH  19  20
ATOM     20  C   UNL     1       1.011   8.970  22.168  0.00  0.00    +0.000 C 
BRANCH  20  21
ATOM     21  O   UNL     1       2.244   9.345  22.777  0.00  0.00    +0.000 OA
ATOM     22  H   UNL     1       2.004   9.894  23.546  0.00  0.00    +0.000 HD
ENDBRANCH  20  21
ENDBRANCH  19  20
ENDBRANCH  18  19
ENDBRANCH  17  18
ENDBRANCH   3  17
TORSDOF 7
ENDMDL
MODEL 7
REMARK VINA RESULT:      -6.6      1.495      4.868
REMARK  Name = 
REMARK  7 active torsions:
REMARK  status: ('A' for Active; 'I' for Inactive)
REMARK    1  A    between atoms: C_2  and  O_3
REMARK    2  A    between atoms: C_2  and  C_4
REMARK    3  A    between atoms: N_6  and  C_7
REMARK    4  A    between atoms: C_7  and  O_8
REMARK    5  A    between atoms: O_8  and  C_9
REMARK    6  A    between atoms: C_9  and  C_10
REMARK    7  A    between atoms: C_10  and  O_11
REMARK                            x       y       z     vdW  Elec       q    Type
REMARK                         _______ _______ _______ _____ _____    ______ ____
ROOT
ATOM      1  C   UNL     1       3.899   3.550  18.997  0.00  0.00    +0.000 A 
ATOM      2  C   UNL     1       4.414   4.165  17.922  0.00  0.00    +0.000 A 
ATOM      3  N   UNL     1       4.205   5.488  17.553  0.00  0.00    +0.000 N 
ATOM      4  C   UNL     1       3.356   6.297  18.343  0.00  0.00    +0.000 A 
ATOM      5  C   UNL     1       3.003   7.614  18.008  0.00  0.00    +0.000 A 
ATOM      6  C   UNL     1       2.150   8.370  18.820  0.00  0.00    +0.000 A 
ATOM      7  C   UNL     1       1.657   7.836  20.005  0.00  0.00    +0.000 A 
ATOM      8 CL   UNL     1       0.606   8.769  20.993  0.00  0.00    +0.000 Cl
ATOM      9  C   UNL     1       1.992   6.541  20.378  0.00  0.00    +0.000 A 
ATOM     10  C   UNL     1       2.810   5.774  19.537  0.00  0.00    +0.000 A 
ATOM     11  C   UNL     1       3.065   4.359  19.896  0.00  0.00    +0.000 A 
ATOM     12  O   UNL     1       2.566   3.850  20.898  0.00  0.00    +0.000 OA
ENDROOT
BRANCH   1  14
ATOM     13  O   UNL     1       3.628   1.227  18.542  0.00  0.00    +0.000 OA
ATOM     14  C   UNL     1       4.164   2.106  19.202  0.00  0.00    +0.000 C 
BRANCH  14  15
ATOM     15  O   UNL     1       5.046   1.837  20.185  0.00  0.00    +0.000 OA
ATOM     16  H   UNL     1       4.828   1.033  20.719  0.00  0.00    +0.000 HD
ENDBRANCH  14  15
ENDBRANCH   1  14
BRANCH   3  17
ATOM     17  C   UNL     1       4.798   6.047  16.329  0.00  0.00    +0.000 C 
BRANCH  17  18
ATOM     18  O   UNL     1       6.015   6.758  16.575  0.00  0.00    +0.000 OA
BRANCH  18  19
ATOM     19  C   UNL     1       7.169   5.919  16.435  0.00  0.00    +0.000 C 
BRANCH  19  20
ATOM     20  C   UNL     1       6.977   5.006  15.228  0.00  0.00    +0.000 C 
BRANCH  20  21
ATOM     21  O   UNL     1       7.790   5.432  14.139  0.00  0.00    +0.000 OA
ATOM     22  H   UNL     1       7.256   5.287  13.336  0.00  0.00    +0.000 HD
ENDBRANCH  20  21
ENDBRANCH  19  20
ENDBRANCH  18  19
ENDBRANCH  17  18
ENDBRANCH   3  17
TORSDOF 7
ENDMDL
MODEL 8
REMARK VINA RESULT:      -6.6      1.266      1.345
REMARK  Name = 
REMARK  7 active torsions:
REMARK  status: ('A' for Active; 'I' for Inactive)
REMARK    1  A    between atoms: C_2  and  O_3
REMARK    2  A    between atoms: C_2  and  C_4
REMARK    3  A    between atoms: N_6  and  C_7
REMARK    4  A    between atoms: C_7  and  O_8
REMARK    5  A    between atoms: O_8  and  C_9
REMARK    6  A    between atoms: C_9  and  C_10
REMARK    7  A    between atoms: C_10  and  O_11
REMARK                            x       y       z     vdW  Elec       q    Type
REMARK                         _______ _______ _______ _____ _____    ______ ____
ROOT
ATOM      1  C   UNL     1       6.003   5.023  16.763  0.00  0.00    +0.000 A 
ATOM      2  C   UNL     1       5.176   4.018  17.089  0.00  0.00    +0.000 A 
ATOM      3  N   UNL     1       3.872   4.145  17.549  0.00  0.00    +0.000 N 
ATOM      4  C   UNL     1       3.327   5.436  17.729  0.00  0.00    +0.000 A 
ATOM      5  C   UNL     1       2.057   5.676  18.277  0.00  0.00    +0.000 A 
ATOM      6  C   UNL     1       1.567   6.977  18.443  0.00  0.00    +0.000 A 
ATOM      7  C   UNL     1       2.325   8.067  18.032  0.00  0.00    +0.000 A 
ATOM      8 CL   UNL     1       1.719   9.660  18.245  0.00  0.00    +0.000 Cl
ATOM      9  C   UNL     1       3.582   7.872  17.475  0.00  0.00    +0.000 A 
ATOM     10  C   UNL     1       4.085   6.569  17.354  0.00  0.00    +0.000 A 
ATOM     11  C   UNL     1       5.471   6.388  16.861  0.00  0.00    +0.000 A 
ATOM     12  O   UNL     1       6.181   7.349  16.574  0.00  0.00    +0.000 OA
ENDROOT
BRANCH   1  14
ATOM     13  O   UNL     1       8.186   4.122  17.082  0.00  0.00    +0.000 OA
ATOM     14  C   UNL     1       7.396   4.713  16.359  0.00  0.00    +0.000 C 
BRANCH  14  15
ATOM     15  O   UNL     1       7.726   5.142  15.125  0.00  0.00    +0.000 OA
ATOM     16  H   UNL     1       8.107   6.055  15.100  0.00  0.00    +0.000 HD
ENDBRANCH  14  15
ENDBRANCH   1  14
BRANCH   3  17
ATOM     17  C   UNL     1       3.067   2.967  17.910  0.00  0.00    +0.000 C 
BRANCH  17  18
ATOM     18  O   UNL     1       3.069   2.701  19.316  0.00  0.00    +0.000 OA
BRANCH  18  19
ATOM     19  C   UNL     1       1.772   2.330  19.798  0.00  0.00    +0.000 C 
BRANCH  19  20
ATOM     20  C   UNL     1       1.584   2.888  21.204  0.00  0.00    +0.000 C 
BRANCH  20  21
ATOM     21  O   UNL     1       2.699   2.560  22.030  0.00  0.00    +0.000 OA
ATOM     22  H   UNL     1       2.329   2.376  22.914  0.00  0.00    +0.000 HD
ENDBRANCH  20  21
ENDBRANCH  19  20
ENDBRANCH  18  19
ENDBRANCH  17  18
ENDBRANCH   3  17
TORSDOF 7
ENDMDL
MODEL 9
REMARK VINA RESULT:      -6.6      3.041      5.783
REMARK  Name = 
REMARK  7 active torsions:
REMARK  status: ('A' for Active; 'I' for Inactive)
REMARK    1  A    between atoms: C_2  and  O_3
REMARK    2  A    between atoms: C_2  and  C_4
REMARK    3  A    between atoms: N_6  and  C_7
REMARK    4  A    between atoms: C_7  and  O_8
REMARK    5  A    between atoms: O_8  and  C_9
REMARK    6  A    between atoms: C_9  and  C_10
REMARK    7  A    between atoms: C_10  and  O_11
REMARK                            x       y       z     vdW  Elec       q    Type
REMARK                         _______ _______ _______ _____ _____    ______ ____
ROOT
ATOM      1  C   UNL     1       2.325   4.136  20.038  0.00  0.00    +0.000 A 
ATOM      2  C   UNL     1       2.080   5.455  20.018  0.00  0.00    +0.000 A 
ATOM      3  N   UNL     1       2.596   6.372  19.110  0.00  0.00    +0.000 N 
ATOM      4  C   UNL     1       3.486   5.923  18.108  0.00  0.00    +0.000 A 
ATOM      5  C   UNL     1       4.136   6.778  17.203  0.00  0.00    +0.000 A 
ATOM      6  C   UNL     1       5.017   6.283  16.235  0.00  0.00    +0.000 A 
ATOM      7  C   UNL     1       5.241   4.916  16.127  0.00  0.00    +0.000 A 
ATOM      8 CL   UNL     1       6.328   4.318  14.939  0.00  0.00    +0.000 Cl
ATOM      9  C   UNL     1       4.609   4.035  16.995  0.00  0.00    +0.000 A 
ATOM     10  C   UNL     1       3.764   4.542  17.992  0.00  0.00    +0.000 A 
ATOM     11  C   UNL     1       3.187   3.598  18.978  0.00  0.00    +0.000 A 
ATOM     12  O   UNL     1       3.446   2.397  18.945  0.00  0.00    +0.000 OA
ENDROOT
BRANCH   1  14
ATOM     13  O   UNL     1       2.245   3.238  22.244  0.00  0.00    +0.000 OA
ATOM     14  C   UNL     1       1.751   3.310  21.128  0.00  0.00    +0.000 C 
BRANCH  14  15
ATOM     15  O   UNL     1       0.635   2.636  20.785  0.00  0.00    +0.000 OA
ATOM     16  H   UNL     1      -0.125   2.765  21.405  0.00  0.00    +0.000 HD
ENDBRANCH  14  15
ENDBRANCH   1  14
BRANCH   3  17
ATOM     17  C   UNL     1       2.283   7.806  19.206  0.00  0.00    +0.000 C 
BRANCH  17  18
ATOM     18  O   UNL     1       1.647   8.155  20.440  0.00  0.00    +0.000 OA
BRANCH  18  19
ATOM     19  C   UNL     1       0.901   9.374  20.337  0.00  0.00    +0.000 C 
BRANCH  19  20
ATOM     20  C   UNL     1       0.384   9.759  21.719  0.00  0.00    +0.000 C 
BRANCH  20  21
ATOM     21  O   UNL     1       1.407   9.609  22.700  0.00  0.00    +0.000 OA
ATOM     22  H   UNL     1       1.825   8.747  22.518  0.00  0.00    +0.000 HD
ENDBRANCH  20  21
ENDBRANCH  19  20
ENDBRANCH  18  19
ENDBRANCH  17  18
ENDBRANCH   3  17
TORSDOF 7
ENDMDL
