MODEL 1
REMARK VINA RESULT:      -6.2      0.000      0.000
REMARK  Name = 
REMARK  12 active torsions:
REMARK  status: ('A' for Active; 'I' for Inactive)
REMARK    1  A    between atoms: C_1  and  C_2
REMARK    2  A    between atoms: C_2  and  C_3
REMARK    3  A    between atoms: C_3  and  C_4
REMARK    4  A    between atoms: C_4  and  C_5
REMARK    5  A    between atoms: C_5  and  C_6
REMARK    6  A    between atoms: C_6  and  C_7
REMARK    7  A    between atoms: C_7  and  S_8
REMARK    8  A    between atoms: S_8  and  C_9
REMARK    9  A    between atoms: C_9  and  N_11
REMARK   10  A    between atoms: N_11  and  C_12
REMARK   11  A    between atoms: N_11  and  N_13
REMARK   12  A    between atoms: C_14  and  C_16
REMARK                            x       y       z     vdW  Elec       q    Type
REMARK                         _______ _______ _______ _____ _____    ______ ____
ROOT
ATOM      1  N   UNL     1       5.695   6.609  17.309  0.00  0.00    +0.000 N 
ATOM      2  C   UNL     1       6.538   7.737  17.714  0.00  0.00    +0.000 C 
ENDROOT
BRANCH   1   3
ATOM      3  N   UNL     1       5.967   6.129  15.977  0.00  0.00    +0.000 N 
ATOM      4  C   UNL     1       6.856   5.106  15.681  0.00  0.00    +0.000 C 
ATOM      5  O   UNL     1       7.552   4.507  16.497  0.00  0.00    +0.000 OA
ATOM      6  H   UNL     1       5.383   6.492  15.221  0.00  0.00    +0.000 HD
BRANCH   4   7
ATOM      7  C   UNL     1       6.950   4.748  14.227  0.00  0.00    +0.000 A 
ATOM      8  C   UNL     1       6.143   3.731  13.724  0.00  0.00    +0.000 A 
ATOM      9  C   UNL     1       6.218   3.424  12.369  0.00  0.00    +0.000 A 
ATOM     10  C   UNL     1       7.101   4.135  11.563  0.00  0.00    +0.000 A 
ATOM     11  C   UNL     1       7.879   5.123  12.150  0.00  0.00    +0.000 A 
ATOM     12  N   UNL     1       7.832   5.452  13.464  0.00  0.00    +0.000 NA
ENDBRANCH   4   7
ENDBRANCH   1   3
BRANCH   1  13
ATOM     13  C   UNL     1       4.486   6.225  17.910  0.00  0.00    +0.000 C 
ATOM     14  S   UNL     1       3.177   7.268  18.103  0.00  0.00    +0.000 S 
BRANCH  13  15
ATOM     15  S   UNL     1       4.476   4.621  18.658  0.00  0.00    +0.000 S 
BRANCH  15  16
ATOM     16  C   UNL     1       3.571   3.607  17.447  0.00  0.00    +0.000 C 
BRANCH  16  17
ATOM     17  C   UNL     1       3.574   2.146  17.927  0.00  0.00    +0.000 C 
BRANCH  17  18
ATOM     18  C   UNL     1       2.640   1.919  19.123  0.00  0.00    +0.000 C 
BRANCH  18  19
ATOM     19  C   UNL     1       1.173   2.181  18.753  0.00  0.00    +0.000 C 
BRANCH  19  20
ATOM     20  C   UNL     1       0.554   3.270  19.636  0.00  0.00    +0.000 C 
BRANCH  20  22
ATOM     21  C   UNL     1       1.752   5.112  20.880  0.00  0.00    +0.000 C 
ATOM     22  C   UNL     1       1.451   3.621  20.827  0.00  0.00    +0.000 C 
ENDBRANCH  20  22
ENDBRANCH  19  20
ENDBRANCH  18  19
ENDBRANCH  17  18
ENDBRANCH  16  17
ENDBRANCH  15  16
ENDBRANCH  13  15
ENDBRANCH   1  13
TORSDOF 10
ENDMDL
MODEL 2
REMARK VINA RESULT:      -6.1      2.936      4.022
REMARK  Name = 
REMARK  12 active torsions:
REMARK  status: ('A' for Active; 'I' for Inactive)
REMARK    1  A    between atoms: C_1  and  C_2
REMARK    2  A    between atoms: C_2  and  C_3
REMARK    3  A    between atoms: C_3  and  C_4
REMARK    4  A    between atoms: C_4  and  C_5
REMARK    5  A    between atoms: C_5  and  C_6
REMARK    6  A    between atoms: C_6  and  C_7
REMARK    7  A    between atoms: C_7  and  S_8
REMARK    8  A    between atoms: S_8  and  C_9
REMARK    9  A    between atoms: C_9  and  N_11
REMARK   10  A    between atoms: N_11  and  C_12
REMARK   11  A    between atoms: N_11  and  N_13
REMARK   12  A    between atoms: C_14  and  C_16
REMARK                            x       y       z     vdW  Elec       q    Type
REMARK                         _______ _______ _______ _____ _____    ______ ____
ROOT
ATOM      1  N   UNL     1       5.523   4.182  18.281  0.00  0.00    +0.000 N 
ATOM      2  C   UNL     1       6.353   5.098  19.068  0.00  0.00    +0.000 C 
ENDROOT
BRANCH   1   3
ATOM      3  N   UNL     1       5.926   4.074  16.901  0.00  0.00    +0.000 N 
ATOM      4  C   UNL     1       5.797   5.092  15.967  0.00  0.00    +0.000 C 
ATOM      5  O   UNL     1       5.295   6.193  16.176  0.00  0.00    +0.000 OA
ATOM      6  H   UNL     1       6.439   3.233  16.629  0.00  0.00    +0.000 HD
BRANCH   4   7
ATOM      7  C   UNL     1       6.320   4.766  14.599  0.00  0.00    +0.000 A 
ATOM      8  C   UNL     1       5.661   3.814  13.827  0.00  0.00    +0.000 A 
ATOM      9  C   UNL     1       6.138   3.539  12.549  0.00  0.00    +0.000 A 
ATOM     10  C   UNL     1       7.261   4.217  12.086  0.00  0.00    +0.000 A 
ATOM     11  C   UNL     1       7.866   5.141  12.928  0.00  0.00    +0.000 A 
ATOM     12  N   UNL     1       7.429   5.437  14.176  0.00  0.00    +0.000 NA
ENDBRANCH   4   7
ENDBRANCH   1   3
BRANCH   1  13
ATOM     13  C   UNL     1       4.243   3.723  18.629  0.00  0.00    +0.000 C 
ATOM     14  S   UNL     1       3.583   2.290  18.039  0.00  0.00    +0.000 S 
BRANCH  13  15
ATOM     15  S   UNL     1       3.253   4.848  19.571  0.00  0.00    +0.000 S 
BRANCH  15  16
ATOM     16  C   UNL     1       2.506   5.909  18.295  0.00  0.00    +0.000 C 
BRANCH  16  17
ATOM     17  C   UNL     1       2.431   7.347  18.832  0.00  0.00    +0.000 C 
BRANCH  17  18
ATOM     18  C   UNL     1       2.732   8.394  17.751  0.00  0.00    +0.000 C 
BRANCH  18  19
ATOM     19  C   UNL     1       1.735   9.562  17.801  0.00  0.00    +0.000 C 
BRANCH  19  20
ATOM     20  C   UNL     1       0.932   9.563  19.106  0.00  0.00    +0.000 C 
BRANCH  20  22
ATOM     21  C   UNL     1      -1.359  10.205  18.261  0.00  0.00    +0.000 C 
ATOM     22  C   UNL     1      -0.165  10.632  19.102  0.00  0.00    +0.000 C 
ENDBRANCH  20  22
ENDBRANCH  19  20
ENDBRANCH  18  19
ENDBRANCH  17  18
ENDBRANCH  16  17
ENDBRANCH  15  16
ENDBRANCH  13  15
ENDBRANCH   1  13
TORSDOF 10
ENDMDL
MODEL 3
REMARK VINA RESULT:      -6.0      1.263      2.026
REMARK  Name = 
REMARK  12 active torsions:
REMARK  status: ('A' for Active; 'I' for Inactive)
REMARK    1  A    between atoms: C_1  and  C_2
REMARK    2  A    between atoms: C_2  and  C_3
REMARK    3  A    between atoms: C_3  and  C_4
REMARK    4  A    between atoms: C_4  and  C_5
REMARK    5  A    between atoms: C_5  and  C_6
REMARK    6  A    between atoms: C_6  and  C_7
REMARK    7  A    between atoms: C_7  and  S_8
REMARK    8  A    between atoms: S_8  and  C_9
REMARK    9  A    between atoms: C_9  and  N_11
REMARK   10  A    between atoms: N_11  and  C_12
REMARK   11  A    between atoms: N_11  and  N_13
REMARK   12  A    between atoms: C_14  and  C_16
REMARK                            x       y       z     vdW  Elec       q    Type
REMARK                         _______ _______ _______ _____ _____    ______ ____
ROOT
ATOM      1  N   UNL     1       6.328   6.722  17.322  0.00  0.00    +0.000 N 
ATOM      2  C   UNL     1       7.102   7.951  17.508  0.00  0.00    +0.000 C 
ENDROOT
BRANCH   1   3
ATOM      3  N   UNL     1       6.391   6.192  15.983  0.00  0.00    +0.000 N 
ATOM      4  C   UNL     1       7.086   5.045  15.628  0.00  0.00    +0.000 C 
ATOM      5  O   UNL     1       7.765   4.358  16.387  0.00  0.00    +0.000 OA
ATOM      6  H   UNL     1       5.793   6.629  15.279  0.00  0.00    +0.000 HD
BRANCH   4   7
ATOM      7  C   UNL     1       6.979   4.661  14.182  0.00  0.00    +0.000 A 
ATOM      8  C   UNL     1       7.776   5.311  13.244  0.00  0.00    +0.000 A 
ATOM      9  C   UNL     1       7.688   4.928  11.909  0.00  0.00    +0.000 A 
ATOM     10  C   UNL     1       6.803   3.916  11.552  0.00  0.00    +0.000 A 
ATOM     11  C   UNL     1       6.034   3.332  12.550  0.00  0.00    +0.000 A 
ATOM     12  N   UNL     1       6.094   3.675  13.860  0.00  0.00    +0.000 NA
ENDBRANCH   4   7
ENDBRANCH   1   3
BRANCH   1  13
ATOM     13  C   UNL     1       5.308   6.254  18.165  0.00  0.00    +0.000 C 
ATOM     14  S   UNL     1       5.546   5.065  19.335  0.00  0.00    +0.000 S 
BRANCH  13  15
ATOM     15  S   UNL     1       3.677   6.833  17.793  0.00  0.00    +0.000 S 
BRANCH  15  16
ATOM     16  C   UNL     1       2.612   5.718  18.760  0.00  0.00    +0.000 C 
BRANCH  16  17
ATOM     17  C   UNL     1       1.998   4.677  17.810  0.00  0.00    +0.000 C 
BRANCH  17  18
ATOM     18  C   UNL     1       1.216   3.589  18.558  0.00  0.00    +0.000 C 
BRANCH  18  19
ATOM     19  C   UNL     1       0.916   4.002  20.006  0.00  0.00    +0.000 C 
BRANCH  19  20
ATOM     20  C   UNL     1       1.216   2.866  20.990  0.00  0.00    +0.000 C 
BRANCH  20  22
ATOM     21  C   UNL     1       3.642   2.237  20.682  0.00  0.00    +0.000 C 
ATOM     22  C   UNL     1       2.634   2.962  21.562  0.00  0.00    +0.000 C 
ENDBRANCH  20  22
ENDBRANCH  19  20
ENDBRANCH  18  19
ENDBRANCH  17  18
ENDBRANCH  16  17
ENDBRANCH  15  16
ENDBRANCH  13  15
ENDBRANCH   1  13
TORSDOF 10
ENDMDL
MODEL 4
REMARK VINA RESULT:      -5.9      2.515      7.155
REMARK  Name = 
REMARK  12 active torsions:
REMARK  status: ('A' for Active; 'I' for Inactive)
REMARK    1  A    between atoms: C_1  and  C_2
REMARK    2  A    between atoms: C_2  and  C_3
REMARK    3  A    between atoms: C_3  and  C_4
REMARK    4  A    between atoms: C_4  and  C_5
REMARK    5  A    between atoms: C_5  and  C_6
REMARK    6  A    between atoms: C_6  and  C_7
REMARK    7  A    between atoms: C_7  and  S_8
REMARK    8  A    between atoms: S_8  and  C_9
REMARK    9  A    between atoms: C_9  and  N_11
REMARK   10  A    between atoms: N_11  and  C_12
REMARK   11  A    between atoms: N_11  and  N_13
REMARK   12  A    between atoms: C_14  and  C_16
REMARK                            x       y       z     vdW  Elec       q    Type
REMARK                         _______ _______ _______ _____ _____    ______ ____
ROOT
ATOM      1  N   UNL     1       4.973   6.318  17.332  0.00  0.00    +0.000 N 
ATOM      2  C   UNL     1       4.220   7.418  16.725  0.00  0.00    +0.000 C 
ENDROOT
BRANCH   1   3
ATOM      3  N   UNL     1       4.230   5.584  18.326  0.00  0.00    +0.000 N 
ATOM      4  C   UNL     1       3.501   4.434  18.066  0.00  0.00    +0.000 C 
ATOM      5  O   UNL     1       3.358   3.914  16.963  0.00  0.00    +0.000 OA
ATOM      6  H   UNL     1       4.346   5.872  19.301  0.00  0.00    +0.000 HD
BRANCH   4   7
ATOM      7  C   UNL     1       2.840   3.818  19.264  0.00  0.00    +0.000 A 
ATOM      8  C   UNL     1       3.555   2.917  20.048  0.00  0.00    +0.000 A 
ATOM      9  C   UNL     1       2.941   2.371  21.171  0.00  0.00    +0.000 A 
ATOM     10  C   UNL     1       1.633   2.736  21.471  0.00  0.00    +0.000 A 
ATOM     11  C   UNL     1       0.988   3.629  20.626  0.00  0.00    +0.000 A 
ATOM     12  N   UNL     1       1.553   4.183  19.526  0.00  0.00    +0.000 NA
ENDBRANCH   4   7
ENDBRANCH   1   3
BRANCH   1  13
ATOM     13  C   UNL     1       6.368   6.160  17.306  0.00  0.00    +0.000 C 
ATOM     14  S   UNL     1       7.448   7.432  17.538  0.00  0.00    +0.000 S 
BRANCH  13  15
ATOM     15  S   UNL     1       6.951   4.566  16.802  0.00  0.00    +0.000 S 
BRANCH  15  16
ATOM     16  C   UNL     1       7.140   4.748  15.000  0.00  0.00    +0.000 C 
BRANCH  16  17
ATOM     17  C   UNL     1       5.831   4.315  14.321  0.00  0.00    +0.000 C 
BRANCH  17  18
ATOM     18  C   UNL     1       6.047   3.210  13.279  0.00  0.00    +0.000 C 
BRANCH  18  19
ATOM     19  C   UNL     1       5.695   3.689  11.864  0.00  0.00    +0.000 C 
BRANCH  19  20
ATOM     20  C   UNL     1       4.560   2.859  11.252  0.00  0.00    +0.000 C 
BRANCH  20  22
ATOM     21  C   UNL     1       3.069   3.801   9.445  0.00  0.00    +0.000 C 
ATOM     22  C   UNL     1       3.328   3.715  10.943  0.00  0.00    +0.000 C 
ENDBRANCH  20  22
ENDBRANCH  19  20
ENDBRANCH  18  19
ENDBRANCH  17  18
ENDBRANCH  16  17
ENDBRANCH  15  16
ENDBRANCH  13  15
ENDBRANCH   1  13
TORSDOF 10
ENDMDL
MODEL 5
REMARK VINA RESULT:      -5.9      2.658      3.706
REMARK  Name = 
REMARK  12 active torsions:
REMARK  status: ('A' for Active; 'I' for Inactive)
REMARK    1  A    between atoms: C_1  and  C_2
REMARK    2  A    between atoms: C_2  and  C_3
REMARK    3  A    between atoms: C_3  and  C_4
REMARK    4  A    between atoms: C_4  and  C_5
REMARK    5  A    between atoms: C_5  and  C_6
REMARK    6  A    between atoms: C_6  and  C_7
REMARK    7  A    between atoms: C_7  and  S_8
REMARK    8  A    between atoms: S_8  and  C_9
REMARK    9  A    between atoms: C_9  and  N_11
REMARK   10  A    between atoms: N_11  and  C_12
REMARK   11  A    between atoms: N_11  and  N_13
REMARK   12  A    between atoms: C_14  and  C_16
REMARK                            x       y       z     vdW  Elec       q    Type
REMARK                         _______ _______ _______ _____ _____    ______ ____
ROOT
ATOM      1  N   UNL     1       5.726   4.256  18.158  0.00  0.00    +0.000 N 
ATOM      2  C   UNL     1       6.541   5.225  18.894  0.00  0.00    +0.000 C 
ENDROOT
BRANCH   1   3
ATOM      3  N   UNL     1       6.082   4.134  16.766  0.00  0.00    +0.000 N 
ATOM      4  C   UNL     1       6.113   5.193  15.872  0.00  0.00    +0.000 C 
ATOM      5  O   UNL     1       5.806   6.354  16.129  0.00  0.00    +0.000 OA
ATOM      6  H   UNL     1       6.442   3.229  16.454  0.00  0.00    +0.000 HD
BRANCH   4   7
ATOM      7  C   UNL     1       6.551   4.837  14.482  0.00  0.00    +0.000 A 
ATOM      8  C   UNL     1       5.845   3.870  13.772  0.00  0.00    +0.000 A 
ATOM      9  C   UNL     1       6.244   3.566  12.474  0.00  0.00    +0.000 A 
ATOM     10  C   UNL     1       7.338   4.230  11.930  0.00  0.00    +0.000 A 
ATOM     11  C   UNL     1       7.995   5.169  12.714  0.00  0.00    +0.000 A 
ATOM     12  N   UNL     1       7.635   5.494  13.979  0.00  0.00    +0.000 NA
ENDBRANCH   4   7
ENDBRANCH   1   3
BRANCH   1  13
ATOM     13  C   UNL     1       4.481   3.748  18.563  0.00  0.00    +0.000 C 
ATOM     14  S   UNL     1       4.276   2.780  19.927  0.00  0.00    +0.000 S 
BRANCH  13  15
ATOM     15  S   UNL     1       3.142   4.005  17.433  0.00  0.00    +0.000 S 
BRANCH  15  16
ATOM     16  C   UNL     1       2.179   5.328  18.231  0.00  0.00    +0.000 C 
BRANCH  16  17
ATOM     17  C   UNL     1       3.094   6.545  18.440  0.00  0.00    +0.000 C 
BRANCH  17  18
ATOM     18  C   UNL     1       2.326   7.778  18.936  0.00  0.00    +0.000 C 
BRANCH  18  19
ATOM     19  C   UNL     1       1.871   8.669  17.770  0.00  0.00    +0.000 C 
BRANCH  19  20
ATOM     20  C   UNL     1       1.389  10.038  18.260  0.00  0.00    +0.000 C 
BRANCH  20  22
ATOM     21  C   UNL     1       0.728  10.639  20.621  0.00  0.00    +0.000 C 
ATOM     22  C   UNL     1       0.318   9.912  19.348  0.00  0.00    +0.000 C 
ENDBRANCH  20  22
ENDBRANCH  19  20
ENDBRANCH  18  19
ENDBRANCH  17  18
ENDBRANCH  16  17
ENDBRANCH  15  16
ENDBRANCH  13  15
ENDBRANCH   1  13
TORSDOF 10
ENDMDL
MODEL 6
REMARK VINA RESULT:      -5.8      1.768      3.018
REMARK  Name = 
REMARK  12 active torsions:
REMARK  status: ('A' for Active; 'I' for Inactive)
REMARK    1  A    between atoms: C_1  and  C_2
REMARK    2  A    between atoms: C_2  and  C_3
REMARK    3  A    between atoms: C_3  and  C_4
REMARK    4  A    between atoms: C_4  and  C_5
REMARK    5  A    between atoms: C_5  and  C_6
REMARK    6  A    between atoms: C_6  and  C_7
REMARK    7  A    between atoms: C_7  and  S_8
REMARK    8  A    between atoms: S_8  and  C_9
REMARK    9  A    between atoms: C_9  and  N_11
REMARK   10  A    between atoms: N_11  and  C_12
REMARK   11  A    between atoms: N_11  and  N_13
REMARK   12  A    between atoms: C_14  and  C_16
REMARK                            x       y       z     vdW  Elec       q    Type
REMARK                         _______ _______ _______ _____ _____    ______ ____
ROOT
ATOM      1  N   UNL     1       5.286   3.865  17.974  0.00  0.00    +0.000 N 
ATOM      2  C   UNL     1       5.977   4.823  18.840  0.00  0.00    +0.000 C 
ENDROOT
BRANCH   1   3
ATOM      3  N   UNL     1       5.653   3.968  16.583  0.00  0.00    +0.000 N 
ATOM      4  C   UNL     1       6.736   4.694  16.113  0.00  0.00    +0.000 C 
ATOM      5  O   UNL     1       7.496   5.371  16.801  0.00  0.00    +0.000 OA
ATOM      6  H   UNL     1       5.146   3.376  15.922  0.00  0.00    +0.000 HD
BRANCH   4   7
ATOM      7  C   UNL     1       6.949   4.627  14.629  0.00  0.00    +0.000 A 
ATOM      8  C   UNL     1       6.237   3.692  13.881  0.00  0.00    +0.000 A 
ATOM      9  C   UNL     1       6.422   3.656  12.503  0.00  0.00    +0.000 A 
ATOM     10  C   UNL     1       7.315   4.546  11.916  0.00  0.00    +0.000 A 
ATOM     11  C   UNL     1       7.995   5.435  12.739  0.00  0.00    +0.000 A 
ATOM     12  N   UNL     1       7.839   5.503  14.083  0.00  0.00    +0.000 NA
ENDBRANCH   4   7
ENDBRANCH   1   3
BRANCH   1  13
ATOM     13  C   UNL     1       4.114   3.161  18.292  0.00  0.00    +0.000 C 
ATOM     14  S   UNL     1       2.799   3.034  17.247  0.00  0.00    +0.000 S 
BRANCH  13  15
ATOM     15  S   UNL     1       3.998   2.576  19.959  0.00  0.00    +0.000 S 
BRANCH  15  16
ATOM     16  C   UNL     1       2.302   3.034  20.439  0.00  0.00    +0.000 C 
BRANCH  16  17
ATOM     17  C   UNL     1       2.369   4.237  21.394  0.00  0.00    +0.000 C 
BRANCH  17  18
ATOM     18  C   UNL     1       1.641   5.469  20.839  0.00  0.00    +0.000 C 
BRANCH  18  19
ATOM     19  C   UNL     1       2.295   5.978  19.546  0.00  0.00    +0.000 C 
BRANCH  19  20
ATOM     20  C   UNL     1       2.164   7.499  19.408  0.00  0.00    +0.000 C 
BRANCH  20  22
ATOM     21  C   UNL     1       3.777   7.269  17.480  0.00  0.00    +0.000 C 
ATOM     22  C   UNL     1       2.537   7.981  18.003  0.00  0.00    +0.000 C 
ENDBRANCH  20  22
ENDBRANCH  19  20
ENDBRANCH  18  19
ENDBRANCH  17  18
ENDBRANCH  16  17
ENDBRANCH  15  16
ENDBRANCH  13  15
ENDBRANCH   1  13
TORSDOF 10
ENDMDL
MODEL 7
REMARK VINA RESULT:      -5.8      3.415      5.361
REMARK  Name = 
REMARK  12 active torsions:
REMARK  status: ('A' for Active; 'I' for Inactive)
REMARK    1  A    between atoms: C_1  and  C_2
REMARK    2  A    between atoms: C_2  and  C_3
REMARK    3  A    between atoms: C_3  and  C_4
REMARK    4  A    between atoms: C_4  and  C_5
REMARK    5  A    between atoms: C_5  and  C_6
REMARK    6  A    between atoms: C_6  and  C_7
REMARK    7  A    between atoms: C_7  and  S_8
REMARK    8  A    between atoms: S_8  and  C_9
REMARK    9  A    between atoms: C_9  and  N_11
REMARK   10  A    between atoms: N_11  and  C_12
REMARK   11  A    between atoms: N_11  and  N_13
REMARK   12  A    between atoms: C_14  and  C_16
REMARK                            x       y       z     vdW  Elec       q    Type
REMARK                         _______ _______ _______ _____ _____    ______ ____
ROOT
ATOM      1  N   UNL     1       3.508   2.311  18.713  0.00  0.00    +0.000 N 
ATOM      2  C   UNL     1       3.927   0.982  18.261  0.00  0.00    +0.000 C 
ENDROOT
BRANCH   1   3
ATOM      3  N   UNL     1       4.575   3.281  18.733  0.00  0.00    +0.000 N 
ATOM      4  C   UNL     1       4.836   4.177  17.708  0.00  0.00    +0.000 C 
ATOM      5  O   UNL     1       4.230   4.238  16.641  0.00  0.00    +0.000 OA
ATOM      6  H   UNL     1       5.094   3.385  19.608  0.00  0.00    +0.000 HD
BRANCH   4   7
ATOM      7  C   UNL     1       5.974   5.121  17.965  0.00  0.00    +0.000 A 
ATOM      8  C   UNL     1       6.072   6.288  17.212  0.00  0.00    +0.000 A 
ATOM      9  C   UNL     1       7.116   7.170  17.477  0.00  0.00    +0.000 A 
ATOM     10  C   UNL     1       8.030   6.856  18.477  0.00  0.00    +0.000 A 
ATOM     11  C   UNL     1       7.865   5.663  19.169  0.00  0.00    +0.000 A 
ATOM     12  N   UNL     1       6.862   4.781  18.942  0.00  0.00    +0.000 NA
ENDBRANCH   4   7
ENDBRANCH   1   3
BRANCH   1  13
ATOM     13  C   UNL     1       2.338   2.608  19.429  0.00  0.00    +0.000 C 
ATOM     14  S   UNL     1       0.791   2.449  18.780  0.00  0.00    +0.000 S 
BRANCH  13  15
ATOM     15  S   UNL     1       2.576   3.372  21.008  0.00  0.00    +0.000 S 
BRANCH  15  16
ATOM     16  C   UNL     1       1.881   5.037  20.769  0.00  0.00    +0.000 C 
BRANCH  16  17
ATOM     17  C   UNL     1       2.810   5.830  19.836  0.00  0.00    +0.000 C 
BRANCH  17  18
ATOM     18  C   UNL     1       2.045   6.546  18.715  0.00  0.00    +0.000 C 
BRANCH  18  19
ATOM     19  C   UNL     1       2.670   7.910  18.384  0.00  0.00    +0.000 C 
BRANCH  19  20
ATOM     20  C   UNL     1       1.710   8.789  17.575  0.00  0.00    +0.000 C 
BRANCH  20  22
ATOM     21  C   UNL     1       2.001  11.179  18.335  0.00  0.00    +0.000 C 
ATOM     22  C   UNL     1       1.133   9.931  18.417  0.00  0.00    +0.000 C 
ENDBRANCH  20  22
ENDBRANCH  19  20
ENDBRANCH  18  19
ENDBRANCH  17  18
ENDBRANCH  16  17
ENDBRANCH  15  16
ENDBRANCH  13  15
ENDBRANCH   1  13
TORSDOF 10
ENDMDL
MODEL 8
REMARK VINA RESULT:      -5.7      3.234      5.001
REMARK  Name = 
REMARK  12 active torsions:
REMARK  status: ('A' for Active; 'I' for Inactive)
REMARK    1  A    between atoms: C_1  and  C_2
REMARK    2  A    between atoms: C_2  and  C_3
REMARK    3  A    between atoms: C_3  and  C_4
REMARK    4  A    between atoms: C_4  and  C_5
REMARK    5  A    between atoms: C_5  and  C_6
REMARK    6  A    between atoms: C_6  and  C_7
REMARK    7  A    between atoms: C_7  and  S_8
REMARK    8  A    between atoms: S_8  and  C_9
REMARK    9  A    between atoms: C_9  and  N_11
REMARK   10  A    between atoms: N_11  and  C_12
REMARK   11  A    between atoms: N_11  and  N_13
REMARK   12  A    between atoms: C_14  and  C_16
REMARK                            x       y       z     vdW  Elec       q    Type
REMARK                         _______ _______ _______ _____ _____    ______ ____
ROOT
ATOM      1  N   UNL     1       3.486   2.442  18.281  0.00  0.00    +0.000 N 
ATOM      2  C   UNL     1       3.943   1.051  18.298  0.00  0.00    +0.000 C 
ENDROOT
BRANCH   1   3
ATOM      3  N   UNL     1       4.551   3.405  18.421  0.00  0.00    +0.000 N 
ATOM      4  C   UNL     1       5.055   4.169  17.380  0.00  0.00    +0.000 C 
ATOM      5  O   UNL     1       4.698   4.102  16.207  0.00  0.00    +0.000 OA
ATOM      6  H   UNL     1       4.870   3.613  19.370  0.00  0.00    +0.000 HD
BRANCH   4   7
ATOM      7  C   UNL     1       6.136   5.135  17.768  0.00  0.00    +0.000 A 
ATOM      8  C   UNL     1       6.286   6.315  17.045  0.00  0.00    +0.000 A 
ATOM      9  C   UNL     1       7.274   7.216  17.429  0.00  0.00    +0.000 A 
ATOM     10  C   UNL     1       8.085   6.907  18.516  0.00  0.00    +0.000 A 
ATOM     11  C   UNL     1       7.877   5.700  19.171  0.00  0.00    +0.000 A 
ATOM     12  N   UNL     1       6.925   4.800  18.828  0.00  0.00    +0.000 NA
ENDBRANCH   4   7
ENDBRANCH   1   3
BRANCH   1  13
ATOM     13  C   UNL     1       2.172   2.882  18.501  0.00  0.00    +0.000 C 
ATOM     14  S   UNL     1       1.358   3.924  17.456  0.00  0.00    +0.000 S 
BRANCH  13  15
ATOM     15  S   UNL     1       1.467   2.448  20.066  0.00  0.00    +0.000 S 
BRANCH  15  16
ATOM     16  C   UNL     1       2.386   3.497  21.236  0.00  0.00    +0.000 C 
BRANCH  16  17
ATOM     17  C   UNL     1       1.891   4.946  21.093  0.00  0.00    +0.000 C 
BRANCH  17  18
ATOM     18  C   UNL     1       2.851   5.816  20.272  0.00  0.00    +0.000 C 
BRANCH  18  19
ATOM     19  C   UNL     1       2.096   6.860  19.436  0.00  0.00    +0.000 C 
BRANCH  19  20
ATOM     20  C   UNL     1       3.008   7.517  18.394  0.00  0.00    +0.000 C 
BRANCH  20  22
ATOM     21  C   UNL     1       1.531   9.561  18.518  0.00  0.00    +0.000 C 
ATOM     22  C   UNL     1       2.279   8.604  17.600  0.00  0.00    +0.000 C 
ENDBRANCH  20  22
ENDBRANCH  19  20
ENDBRANCH  18  19
ENDBRANCH  17  18
ENDBRANCH  16  17
ENDBRANCH  15  16
ENDBRANCH  13  15
ENDBRANCH   1  13
TORSDOF 10
ENDMDL
MODEL 9
REMARK VINA RESULT:      -5.7      2.581      7.227
REMARK  Name = 
REMARK  12 active torsions:
REMARK  status: ('A' for Active; 'I' for Inactive)
REMARK    1  A    between atoms: C_1  and  C_2
REMARK    2  A    between atoms: C_2  and  C_3
REMARK    3  A    between atoms: C_3  and  C_4
REMARK    4  A    between atoms: C_4  and  C_5
REMARK    5  A    between atoms: C_5  and  C_6
REMARK    6  A    between atoms: C_6  and  C_7
REMARK    7  A    between atoms: C_7  and  S_8
REMARK    8  A    between atoms: S_8  and  C_9
REMARK    9  A    between atoms: C_9  and  N_11
REMARK   10  A    between atoms: N_11  and  C_12
REMARK   11  A    between atoms: N_11  and  N_13
REMARK   12  A    between atoms: C_14  and  C_16
REMARK                            x       y       z     vdW  Elec       q    Type
REMARK                         _______ _______ _______ _____ _____    ______ ____
ROOT
ATOM      1  N   UNL     1       4.918   6.043  17.028  0.00  0.00    +0.000 N 
ATOM      2  C   UNL     1       4.222   7.163  16.392  0.00  0.00    +0.000 C 
ENDROOT
BRANCH   1   3
ATOM      3  N   UNL     1       4.162   5.410  18.080  0.00  0.00    +0.000 N 
ATOM      4  C   UNL     1       3.443   4.233  17.926  0.00  0.00    +0.000 C 
ATOM      5  O   UNL     1       3.322   3.602  16.880  0.00  0.00    +0.000 OA
ATOM      6  H   UNL     1       4.257   5.796  19.021  0.00  0.00    +0.000 HD
BRANCH   4   7
ATOM      7  C   UNL     1       2.764   3.739  19.169  0.00  0.00    +0.000 A 
ATOM      8  C   UNL     1       1.401   3.965  19.336  0.00  0.00    +0.000 A 
ATOM      9  C   UNL     1       0.775   3.479  20.480  0.00  0.00    +0.000 A 
ATOM     10  C   UNL     1       1.531   2.790  21.423  0.00  0.00    +0.000 A 
ATOM     11  C   UNL     1       2.888   2.622  21.184  0.00  0.00    +0.000 A 
ATOM     12  N   UNL     1       3.532   3.078  20.082  0.00  0.00    +0.000 NA
ENDBRANCH   4   7
ENDBRANCH   1   3
BRANCH   1  13
ATOM     13  C   UNL     1       6.297   5.786  16.967  0.00  0.00    +0.000 C 
ATOM     14  S   UNL     1       7.467   6.898  17.449  0.00  0.00    +0.000 S 
BRANCH  13  15
ATOM     15  S   UNL     1       6.764   4.288  16.147  0.00  0.00    +0.000 S 
BRANCH  15  16
ATOM     16  C   UNL     1       6.416   4.650  14.397  0.00  0.00    +0.000 C 
BRANCH  16  17
ATOM     17  C   UNL     1       6.204   3.322  13.652  0.00  0.00    +0.000 C 
BRANCH  17  18
ATOM     18  C   UNL     1       5.950   3.525  12.152  0.00  0.00    +0.000 C 
BRANCH  18  19
ATOM     19  C   UNL     1       4.518   4.009  11.881  0.00  0.00    +0.000 C 
BRANCH  19  20
ATOM     20  C   UNL     1       3.659   2.908  11.251  0.00  0.00    +0.000 C 
BRANCH  20  22
ATOM     21  C   UNL     1       2.842   4.568   9.532  0.00  0.00    +0.000 C 
ATOM     22  C   UNL     1       3.394   3.168   9.765  0.00  0.00    +0.000 C 
ENDBRANCH  20  22
ENDBRANCH  19  20
ENDBRANCH  18  19
ENDBRANCH  17  18
ENDBRANCH  16  17
ENDBRANCH  15  16
ENDBRANCH  13  15
ENDBRANCH   1  13
TORSDOF 10
ENDMDL
