MODEL 1
REMARK VINA RESULT:      -8.6      0.000      0.000
REMARK  Name = 
REMARK  7 active torsions:
REMARK  status: ('A' for Active; 'I' for Inactive)
REMARK    1  A    between atoms: C_1  and  C_2
REMARK    2  A    between atoms: C_6  and  N_7
REMARK    3  A    between atoms: N_7  and  C_8
REMARK    4  A    between atoms: C_8  and  C_9
REMARK    5  A    between atoms: C_14  and  O_15
REMARK    6  A    between atoms: N_19  and  C_20
REMARK    7  A    between atoms: C_20  and  C_21
REMARK                            x       y       z     vdW  Elec       q    Type
REMARK                         _______ _______ _______ _____ _____    ______ ____
ROOT
ATOM      1  C   UNL     1      -0.003  10.052  22.174  0.00  0.00    +0.000 C 
ATOM      2  C   UNL     1       0.701   9.290  21.112  0.00  0.00    +0.000 A 
ATOM      3  N   UNL     1       1.210   8.080  21.248  0.00  0.00    +0.000 NA
ATOM      4  C   UNL     1       1.785   7.774  20.041  0.00  0.00    +0.000 A 
ATOM      5  C   UNL     1       2.432   6.599  19.625  0.00  0.00    +0.000 A 
ATOM      6  C   UNL     1       2.972   6.512  18.330  0.00  0.00    +0.000 A 
ATOM      7  C   UNL     1       2.823   7.609  17.469  0.00  0.00    +0.000 A 
ATOM      8  C   UNL     1       2.187   8.796  17.861  0.00  0.00    +0.000 A 
ATOM      9  C   UNL     1       1.656   8.831  19.148  0.00  0.00    +0.000 A 
ATOM     10  N   UNL     1       0.912   9.764  19.834  0.00  0.00    +0.000 N 
ENDROOT
BRANCH   6  11
ATOM     11  N   UNL     1       3.499   5.281  17.904  0.00  0.00    +0.000 N 
ATOM     12  H   UNL     1       3.731   4.684  18.697  0.00  0.00    +0.000 HD
BRANCH  11  13
ATOM     13  C   UNL     1       4.584   5.296  16.919  0.00  0.00    +0.000 C 
BRANCH  13  14
ATOM     14  C   UNL     1       5.863   5.841  17.518  0.00  0.00    +0.000 A 
ATOM     15  C   UNL     1       6.392   7.078  17.112  0.00  0.00    +0.000 A 
ATOM     16  C   UNL     1       7.566   7.574  17.682  0.00  0.00    +0.000 A 
ATOM     17  C   UNL     1       8.209   6.859  18.688  0.00  0.00    +0.000 A 
ATOM     18  C   UNL     1       7.670   5.657  19.142  0.00  0.00    +0.000 A 
ATOM     19  C   UNL     1       6.500   5.162  18.563  0.00  0.00    +0.000 A 
BRANCH  19  20
ATOM     20  O   UNL     1       5.956   3.995  19.023  0.00  0.00    +0.000 OA
ATOM     21  H   UNL     1       6.651   3.317  19.053  0.00  0.00    +0.000 HD
ENDBRANCH  19  20
ENDBRANCH  13  14
ENDBRANCH  11  13
ENDBRANCH   6  11
BRANCH  10  22
ATOM     22  C   UNL     1       0.358  10.983  19.260  0.00  0.00    +0.000 C 
BRANCH  22  23
ATOM     23  C   UNL     1      -1.020  10.830  18.662  0.00  0.00    +0.000 A 
ATOM     24  C   UNL     1      -1.315   9.962  17.600  0.00  0.00    +0.000 A 
ATOM     25  C   UNL     1      -2.578   9.963  17.010  0.00  0.00    +0.000 A 
ATOM     26  C   UNL     1      -3.577  10.806  17.491  0.00  0.00    +0.000 A 
ATOM     27  C   UNL     1      -3.322  11.623  18.591  0.00  0.00    +0.000 A 
ATOM     28  C   UNL     1      -2.056  11.631  19.175  0.00  0.00    +0.000 A 
ENDBRANCH  22  23
ENDBRANCH  10  22
TORSDOF 6
ENDMDL
MODEL 2
REMARK VINA RESULT:      -8.6      0.390      1.020
REMARK  Name = 
REMARK  7 active torsions:
REMARK  status: ('A' for Active; 'I' for Inactive)
REMARK    1  A    between atoms: C_1  and  C_2
REMARK    2  A    between atoms: C_6  and  N_7
REMARK    3  A    between atoms: N_7  and  C_8
REMARK    4  A    between atoms: C_8  and  C_9
REMARK    5  A    between atoms: C_14  and  O_15
REMARK    6  A    between atoms: N_19  and  C_20
REMARK    7  A    between atoms: C_20  and  C_21
REMARK                            x       y       z     vdW  Elec       q    Type
REMARK                         _______ _______ _______ _____ _____    ______ ____
ROOT
ATOM      1  C   UNL     1      -0.177  10.695  21.987  0.00  0.00    +0.000 C 
ATOM      2  C   UNL     1       0.526   9.820  21.014  0.00  0.00    +0.000 A 
ATOM      3  N   UNL     1       1.028   8.630  21.281  0.00  0.00    +0.000 NA
ATOM      4  C   UNL     1       1.603   8.193  20.114  0.00  0.00    +0.000 A 
ATOM      5  C   UNL     1       2.246   6.977  19.829  0.00  0.00    +0.000 A 
ATOM      6  C   UNL     1       2.786   6.748  18.551  0.00  0.00    +0.000 A 
ATOM      7  C   UNL     1       2.644   7.747  17.577  0.00  0.00    +0.000 A 
ATOM      8  C   UNL     1       2.014   8.972  17.838  0.00  0.00    +0.000 A 
ATOM      9  C   UNL     1       1.481   9.148  19.113  0.00  0.00    +0.000 A 
ATOM     10  N   UNL     1       0.741  10.153  19.693  0.00  0.00    +0.000 N 
ENDROOT
BRANCH   6  11
ATOM     11  N   UNL     1       3.308   5.476  18.261  0.00  0.00    +0.000 N 
ATOM     12  H   UNL     1       3.603   4.996  19.111  0.00  0.00    +0.000 HD
BRANCH  11  13
ATOM     13  C   UNL     1       4.327   5.368  17.213  0.00  0.00    +0.000 C 
BRANCH  13  14
ATOM     14  C   UNL     1       5.670   5.869  17.698  0.00  0.00    +0.000 A 
ATOM     15  C   UNL     1       6.274   7.006  17.134  0.00  0.00    +0.000 A 
ATOM     16  C   UNL     1       7.508   7.464  17.600  0.00  0.00    +0.000 A 
ATOM     17  C   UNL     1       8.140   6.814  18.656  0.00  0.00    +0.000 A 
ATOM     18  C   UNL     1       7.531   5.718  19.263  0.00  0.00    +0.000 A 
ATOM     19  C   UNL     1       6.301   5.259  18.789  0.00  0.00    +0.000 A 
BRANCH  19  20
ATOM     20  O   UNL     1       5.690   4.199  19.398  0.00  0.00    +0.000 OA
ATOM     21  H   UNL     1       5.202   3.693  18.727  0.00  0.00    +0.000 HD
ENDBRANCH  19  20
ENDBRANCH  13  14
ENDBRANCH  11  13
ENDBRANCH   6  11
BRANCH  10  22
ATOM     22  C   UNL     1       0.193  11.305  18.990  0.00  0.00    +0.000 C 
BRANCH  22  23
ATOM     23  C   UNL     1      -1.215  11.122  18.477  0.00  0.00    +0.000 A 
ATOM     24  C   UNL     1      -2.305  11.897  18.902  0.00  0.00    +0.000 A 
ATOM     25  C   UNL     1      -3.599  11.593  18.485  0.00  0.00    +0.000 A 
ATOM     26  C   UNL     1      -3.825  10.532  17.612  0.00  0.00    +0.000 A 
ATOM     27  C   UNL     1      -2.747   9.797  17.124  0.00  0.00    +0.000 A 
ATOM     28  C   UNL     1      -1.452  10.092  17.548  0.00  0.00    +0.000 A 
ENDBRANCH  22  23
ENDBRANCH  10  22
TORSDOF 6
ENDMDL
MODEL 3
REMARK VINA RESULT:      -8.3      2.080      3.140
REMARK  Name = 
REMARK  7 active torsions:
REMARK  status: ('A' for Active; 'I' for Inactive)
REMARK    1  A    between atoms: C_1  and  C_2
REMARK    2  A    between atoms: C_6  and  N_7
REMARK    3  A    between atoms: N_7  and  C_8
REMARK    4  A    between atoms: C_8  and  C_9
REMARK    5  A    between atoms: C_14  and  O_15
REMARK    6  A    between atoms: N_19  and  C_20
REMARK    7  A    between atoms: C_20  and  C_21
REMARK                            x       y       z     vdW  Elec       q    Type
REMARK                         _______ _______ _______ _____ _____    ______ ____
ROOT
ATOM      1  C   UNL     1      -0.258  10.076  22.055  0.00  0.00    +0.000 C 
ATOM      2  C   UNL     1       0.543   9.368  21.024  0.00  0.00    +0.000 A 
ATOM      3  N   UNL     1       1.120   8.191  21.179  0.00  0.00    +0.000 NA
ATOM      4  C   UNL     1       1.770   7.931  19.999  0.00  0.00    +0.000 A 
ATOM      5  C   UNL     1       2.510   6.802  19.610  0.00  0.00    +0.000 A 
ATOM      6  C   UNL     1       3.114   6.759  18.341  0.00  0.00    +0.000 A 
ATOM      7  C   UNL     1       2.938   7.851  17.479  0.00  0.00    +0.000 A 
ATOM      8  C   UNL     1       2.210   8.992  17.846  0.00  0.00    +0.000 A 
ATOM      9  C   UNL     1       1.617   8.984  19.106  0.00  0.00    +0.000 A 
ATOM     10  N   UNL     1       0.784   9.863  19.760  0.00  0.00    +0.000 N 
ENDROOT
BRANCH   6  11
ATOM     11  N   UNL     1       3.738   5.567  17.936  0.00  0.00    +0.000 N 
ATOM     12  H   UNL     1       4.336   5.720  17.125  0.00  0.00    +0.000 HD
BRANCH  11  13
ATOM     13  C   UNL     1       2.903   4.375  17.757  0.00  0.00    +0.000 C 
BRANCH  13  14
ATOM     14  C   UNL     1       2.573   3.730  19.086  0.00  0.00    +0.000 A 
ATOM     15  C   UNL     1       1.249   3.649  19.551  0.00  0.00    +0.000 A 
ATOM     16  C   UNL     1       0.959   3.040  20.773  0.00  0.00    +0.000 A 
ATOM     17  C   UNL     1       1.981   2.474  21.531  0.00  0.00    +0.000 A 
ATOM     18  C   UNL     1       3.291   2.497  21.060  0.00  0.00    +0.000 A 
ATOM     19  C   UNL     1       3.578   3.114  19.842  0.00  0.00    +0.000 A 
BRANCH  19  20
ATOM     20  O   UNL     1       4.859   3.117  19.365  0.00  0.00    +0.000 OA
ATOM     21  H   UNL     1       5.016   3.955  18.899  0.00  0.00    +0.000 HD
ENDBRANCH  19  20
ENDBRANCH  13  14
ENDBRANCH  11  13
ENDBRANCH   6  11
BRANCH  10  22
ATOM     22  C   UNL     1       0.182  11.049  19.165  0.00  0.00    +0.000 C 
BRANCH  22  23
ATOM     23  C   UNL     1      -1.178  10.826  18.549  0.00  0.00    +0.000 A 
ATOM     24  C   UNL     1      -1.420   9.916  17.509  0.00  0.00    +0.000 A 
ATOM     25  C   UNL     1      -2.671   9.851  16.897  0.00  0.00    +0.000 A 
ATOM     26  C   UNL     1      -3.710  10.669  17.335  0.00  0.00    +0.000 A 
ATOM     27  C   UNL     1      -3.507  11.527  18.413  0.00  0.00    +0.000 A 
ATOM     28  C   UNL     1      -2.254  11.602  19.019  0.00  0.00    +0.000 A 
ENDBRANCH  22  23
ENDBRANCH  10  22
TORSDOF 6
ENDMDL
MODEL 4
REMARK VINA RESULT:      -8.2      2.519      8.147
REMARK  Name = 
REMARK  7 active torsions:
REMARK  status: ('A' for Active; 'I' for Inactive)
REMARK    1  A    between atoms: C_1  and  C_2
REMARK    2  A    between atoms: C_6  and  N_7
REMARK    3  A    between atoms: N_7  and  C_8
REMARK    4  A    between atoms: C_8  and  C_9
REMARK    5  A    between atoms: C_14  and  O_15
REMARK    6  A    between atoms: N_19  and  C_20
REMARK    7  A    between atoms: C_20  and  C_21
REMARK                            x       y       z     vdW  Elec       q    Type
REMARK                         _______ _______ _______ _____ _____    ______ ____
ROOT
ATOM      1  C   UNL     1       2.796   4.266  20.453  0.00  0.00    +0.000 C 
ATOM      2  C   UNL     1       2.481   5.646  20.002  0.00  0.00    +0.000 A 
ATOM      3  N   UNL     1       1.805   6.541  20.696  0.00  0.00    +0.000 NA
ATOM      4  C   UNL     1       1.726   7.655  19.899  0.00  0.00    +0.000 A 
ATOM      5  C   UNL     1       1.149   8.909  20.161  0.00  0.00    +0.000 A 
ATOM      6  C   UNL     1       1.167   9.912  19.176  0.00  0.00    +0.000 A 
ATOM      7  C   UNL     1       1.793   9.635  17.951  0.00  0.00    +0.000 A 
ATOM      8  C   UNL     1       2.370   8.391  17.663  0.00  0.00    +0.000 A 
ATOM      9  C   UNL     1       2.340   7.433  18.674  0.00  0.00    +0.000 A 
ATOM     10  N   UNL     1       2.864   6.165  18.783  0.00  0.00    +0.000 N 
ENDROOT
BRANCH   6  11
ATOM     11  N   UNL     1       0.697  11.192  19.514  0.00  0.00    +0.000 N 
ATOM     12  H   UNL     1       1.270  11.616  20.242  0.00  0.00    +0.000 HD
BRANCH  11  13
ATOM     13  C   UNL     1      -0.731  11.350  19.808  0.00  0.00    +0.000 C 
BRANCH  13  14
ATOM     14  C   UNL     1      -1.583  10.977  18.613  0.00  0.00    +0.000 A 
ATOM     15  C   UNL     1      -2.402   9.835  18.627  0.00  0.00    +0.000 A 
ATOM     16  C   UNL     1      -3.191   9.511  17.522  0.00  0.00    +0.000 A 
ATOM     17  C   UNL     1      -3.201  10.339  16.404  0.00  0.00    +0.000 A 
ATOM     18  C   UNL     1      -2.438  11.504  16.394  0.00  0.00    +0.000 A 
ATOM     19  C   UNL     1      -1.644  11.820  17.497  0.00  0.00    +0.000 A 
BRANCH  19  20
ATOM     20  O   UNL     1      -0.913  12.975  17.501  0.00  0.00    +0.000 OA
ATOM     21  H   UNL     1      -0.926  13.355  16.607  0.00  0.00    +0.000 HD
ENDBRANCH  19  20
ENDBRANCH  13  14
ENDBRANCH  11  13
ENDBRANCH   6  11
BRANCH  10  22
ATOM     22  C   UNL     1       3.758   5.539  17.818  0.00  0.00    +0.000 C 
BRANCH  22  23
ATOM     23  C   UNL     1       5.218   5.880  17.995  0.00  0.00    +0.000 A 
ATOM     24  C   UNL     1       6.044   5.287  18.962  0.00  0.00    +0.000 A 
ATOM     25  C   UNL     1       7.348   5.739  19.158  0.00  0.00    +0.000 A 
ATOM     26  C   UNL     1       7.861   6.768  18.371  0.00  0.00    +0.000 A 
ATOM     27  C   UNL     1       7.078   7.319  17.359  0.00  0.00    +0.000 A 
ATOM     28  C   UNL     1       5.770   6.876  17.168  0.00  0.00    +0.000 A 
ENDBRANCH  22  23
ENDBRANCH  10  22
TORSDOF 6
ENDMDL
MODEL 5
REMARK VINA RESULT:      -8.2      2.257      3.269
REMARK  Name = 
REMARK  7 active torsions:
REMARK  status: ('A' for Active; 'I' for Inactive)
REMARK    1  A    between atoms: C_1  and  C_2
REMARK    2  A    between atoms: C_6  and  N_7
REMARK    3  A    between atoms: N_7  and  C_8
REMARK    4  A    between atoms: C_8  and  C_9
REMARK    5  A    between atoms: C_14  and  O_15
REMARK    6  A    between atoms: N_19  and  C_20
REMARK    7  A    between atoms: C_20  and  C_21
REMARK                            x       y       z     vdW  Elec       q    Type
REMARK                         _______ _______ _______ _____ _____    ______ ____
ROOT
ATOM      1  C   UNL     1      -0.460  10.491  22.309  0.00  0.00    +0.000 C 
ATOM      2  C   UNL     1       0.307   9.785  21.251  0.00  0.00    +0.000 A 
ATOM      3  N   UNL     1       0.884   8.606  21.383  0.00  0.00    +0.000 NA
ATOM      4  C   UNL     1       1.497   8.350  20.183  0.00  0.00    +0.000 A 
ATOM      5  C   UNL     1       2.221   7.220  19.766  0.00  0.00    +0.000 A 
ATOM      6  C   UNL     1       2.786   7.181  18.479  0.00  0.00    +0.000 A 
ATOM      7  C   UNL     1       2.588   8.278  17.628  0.00  0.00    +0.000 A 
ATOM      8  C   UNL     1       1.876   9.420  18.022  0.00  0.00    +0.000 A 
ATOM      9  C   UNL     1       1.321   9.407  19.300  0.00  0.00    +0.000 A 
ATOM     10  N   UNL     1       0.511  10.286  19.982  0.00  0.00    +0.000 N 
ENDROOT
BRANCH   6  11
ATOM     11  N   UNL     1       3.393   5.989  18.049  0.00  0.00    +0.000 N 
ATOM     12  H   UNL     1       3.985   6.148  17.235  0.00  0.00    +0.000 HD
BRANCH  11  13
ATOM     13  C   UNL     1       2.544   4.809  17.861  0.00  0.00    +0.000 C 
BRANCH  13  14
ATOM     14  C   UNL     1       2.449   3.991  19.131  0.00  0.00    +0.000 A 
ATOM     15  C   UNL     1       1.260   3.936  19.879  0.00  0.00    +0.000 A 
ATOM     16  C   UNL     1       1.184   3.167  21.041  0.00  0.00    +0.000 A 
ATOM     17  C   UNL     1       2.280   2.418  21.456  0.00  0.00    +0.000 A 
ATOM     18  C   UNL     1       3.449   2.417  20.699  0.00  0.00    +0.000 A 
ATOM     19  C   UNL     1       3.524   3.193  19.541  0.00  0.00    +0.000 A 
BRANCH  19  20
ATOM     20  O   UNL     1       4.661   3.176  18.783  0.00  0.00    +0.000 OA
ATOM     21  H   UNL     1       5.431   3.214  19.374  0.00  0.00    +0.000 HD
ENDBRANCH  19  20
ENDBRANCH  13  14
ENDBRANCH  11  13
ENDBRANCH   6  11
BRANCH  10  22
ATOM     22  C   UNL     1      -0.104  11.477  19.412  0.00  0.00    +0.000 C 
BRANCH  22  23
ATOM     23  C   UNL     1      -1.461  11.250  18.788  0.00  0.00    +0.000 A 
ATOM     24  C   UNL     1      -2.593  12.025  19.085  0.00  0.00    +0.000 A 
ATOM     25  C   UNL     1      -3.843  11.683  18.573  0.00  0.00    +0.000 A 
ATOM     26  C   UNL     1      -3.980  10.582  17.730  0.00  0.00    +0.000 A 
ATOM     27  C   UNL     1      -2.854   9.844  17.368  0.00  0.00    +0.000 A 
ATOM     28  C   UNL     1      -1.604  10.178  17.888  0.00  0.00    +0.000 A 
ENDBRANCH  22  23
ENDBRANCH  10  22
TORSDOF 6
ENDMDL
MODEL 6
REMARK VINA RESULT:      -8.2      5.094      7.479
REMARK  Name = 
REMARK  7 active torsions:
REMARK  status: ('A' for Active; 'I' for Inactive)
REMARK    1  A    between atoms: C_1  and  C_2
REMARK    2  A    between atoms: C_6  and  N_7
REMARK    3  A    between atoms: N_7  and  C_8
REMARK    4  A    between atoms: C_8  and  C_9
REMARK    5  A    between atoms: C_14  and  O_15
REMARK    6  A    between atoms: N_19  and  C_20
REMARK    7  A    between atoms: C_20  and  C_21
REMARK                            x       y       z     vdW  Elec       q    Type
REMARK                         _______ _______ _______ _____ _____    ______ ____
ROOT
ATOM      1  C   UNL     1       5.107   4.213  14.216  0.00  0.00    +0.000 C 
ATOM      2  C   UNL     1       5.777   4.829  15.389  0.00  0.00    +0.000 A 
ATOM      3  N   UNL     1       6.528   5.914  15.358  0.00  0.00    +0.000 NA
ATOM      4  C   UNL     1       6.960   6.110  16.645  0.00  0.00    +0.000 A 
ATOM      5  C   UNL     1       7.755   7.138  17.180  0.00  0.00    +0.000 A 
ATOM      6  C   UNL     1       8.096   7.127  18.544  0.00  0.00    +0.000 A 
ATOM      7  C   UNL     1       7.606   6.088  19.348  0.00  0.00    +0.000 A 
ATOM      8  C   UNL     1       6.817   5.047  18.838  0.00  0.00    +0.000 A 
ATOM      9  C   UNL     1       6.492   5.107  17.484  0.00  0.00    +0.000 A 
ATOM     10  N   UNL     1       5.693   4.334  16.673  0.00  0.00    +0.000 N 
ENDROOT
BRANCH   6  11
ATOM     11  N   UNL     1       8.783   8.234  19.071  0.00  0.00    +0.000 N 
ATOM     12  H   UNL     1       8.760   8.231  20.091  0.00  0.00    +0.000 HD
BRANCH  11  13
ATOM     13  C   UNL     1       8.467   9.563  18.541  0.00  0.00    +0.000 C 
BRANCH  13  14
ATOM     14  C   UNL     1       9.592  10.542  18.800  0.00  0.00    +0.000 A 
ATOM     15  C   UNL     1      10.291  11.149  17.742  0.00  0.00    +0.000 A 
ATOM     16  C   UNL     1      11.318  12.059  17.996  0.00  0.00    +0.000 A 
ATOM     17  C   UNL     1      11.640  12.400  19.307  0.00  0.00    +0.000 A 
ATOM     18  C   UNL     1      10.922  11.850  20.366  0.00  0.00    +0.000 A 
ATOM     19  C   UNL     1       9.901  10.935  20.107  0.00  0.00    +0.000 A 
BRANCH  19  20
ATOM     20  O   UNL     1       9.179  10.411  21.143  0.00  0.00    +0.000 OA
ATOM     21  H   UNL     1       9.769  10.291  21.905  0.00  0.00    +0.000 HD
ENDBRANCH  19  20
ENDBRANCH  13  14
ENDBRANCH  11  13
ENDBRANCH   6  11
BRANCH  10  22
ATOM     22  C   UNL     1       4.830   3.252  17.130  0.00  0.00    +0.000 C 
BRANCH  22  23
ATOM     23  C   UNL     1       3.813   3.653  18.172  0.00  0.00    +0.000 A 
ATOM     24  C   UNL     1       3.762   3.103  19.462  0.00  0.00    +0.000 A 
ATOM     25  C   UNL     1       2.721   3.421  20.331  0.00  0.00    +0.000 A 
ATOM     26  C   UNL     1       1.730   4.320  19.940  0.00  0.00    +0.000 A 
ATOM     27  C   UNL     1       1.804   4.930  18.690  0.00  0.00    +0.000 A 
ATOM     28  C   UNL     1       2.839   4.604  17.815  0.00  0.00    +0.000 A 
ENDBRANCH  22  23
ENDBRANCH  10  22
TORSDOF 6
ENDMDL
MODEL 7
REMARK VINA RESULT:      -8.2      3.238      8.189
REMARK  Name = 
REMARK  7 active torsions:
REMARK  status: ('A' for Active; 'I' for Inactive)
REMARK    1  A    between atoms: C_1  and  C_2
REMARK    2  A    between atoms: C_6  and  N_7
REMARK    3  A    between atoms: N_7  and  C_8
REMARK    4  A    between atoms: C_8  and  C_9
REMARK    5  A    between atoms: C_14  and  O_15
REMARK    6  A    between atoms: N_19  and  C_20
REMARK    7  A    between atoms: C_20  and  C_21
REMARK                            x       y       z     vdW  Elec       q    Type
REMARK                         _______ _______ _______ _____ _____    ______ ____
ROOT
ATOM      1  C   UNL     1       5.073   5.599  17.173  0.00  0.00    +0.000 C 
ATOM      2  C   UNL     1       4.052   6.532  17.714  0.00  0.00    +0.000 A 
ATOM      3  N   UNL     1       3.595   7.605  17.098  0.00  0.00    +0.000 NA
ATOM      4  C   UNL     1       2.696   8.180  17.961  0.00  0.00    +0.000 A 
ATOM      5  C   UNL     1       1.893   9.321  17.793  0.00  0.00    +0.000 A 
ATOM      6  C   UNL     1       1.047   9.745  18.833  0.00  0.00    +0.000 A 
ATOM      7  C   UNL     1       1.012   8.992  20.016  0.00  0.00    +0.000 A 
ATOM      8  C   UNL     1       1.808   7.855  20.211  0.00  0.00    +0.000 A 
ATOM      9  C   UNL     1       2.619   7.464  19.148  0.00  0.00    +0.000 A 
ATOM     10  N   UNL     1       3.450   6.385  18.946  0.00  0.00    +0.000 N 
ENDROOT
BRANCH   6  11
ATOM     11  N   UNL     1       0.165  10.812  18.587  0.00  0.00    +0.000 N 
ATOM     12  H   UNL     1       0.558  11.697  18.907  0.00  0.00    +0.000 HD
BRANCH  11  13
ATOM     13  C   UNL     1      -1.230  10.669  19.014  0.00  0.00    +0.000 C 
BRANCH  13  14
ATOM     14  C   UNL     1      -2.171  10.679  17.828  0.00  0.00    +0.000 A 
ATOM     15  C   UNL     1      -1.991   9.804  16.743  0.00  0.00    +0.000 A 
ATOM     16  C   UNL     1      -2.874   9.816  15.663  0.00  0.00    +0.000 A 
ATOM     17  C   UNL     1      -3.968  10.677  15.665  0.00  0.00    +0.000 A 
ATOM     18  C   UNL     1      -4.194  11.513  16.756  0.00  0.00    +0.000 A 
ATOM     19  C   UNL     1      -3.303  11.503  17.831  0.00  0.00    +0.000 A 
BRANCH  19  20
ATOM     20  O   UNL     1      -3.535  12.304  18.914  0.00  0.00    +0.000 OA
ATOM     21  H   UNL     1      -3.809  11.747  19.661  0.00  0.00    +0.000 HD
ENDBRANCH  19  20
ENDBRANCH  13  14
ENDBRANCH  11  13
ENDBRANCH   6  11
BRANCH  10  22
ATOM     22  C   UNL     1       3.573   5.241  19.839  0.00  0.00    +0.000 C 
BRANCH  22  23
ATOM     23  C   UNL     1       2.638   4.096  19.533  0.00  0.00    +0.000 A 
ATOM     24  C   UNL     1       2.911   3.101  18.583  0.00  0.00    +0.000 A 
ATOM     25  C   UNL     1       1.951   2.145  18.256  0.00  0.00    +0.000 A 
ATOM     26  C   UNL     1       0.713   2.147  18.896  0.00  0.00    +0.000 A 
ATOM     27  C   UNL     1       0.451   3.084  19.893  0.00  0.00    +0.000 A 
ATOM     28  C   UNL     1       1.407   4.047  20.213  0.00  0.00    +0.000 A 
ENDBRANCH  22  23
ENDBRANCH  10  22
TORSDOF 6
ENDMDL
MODEL 8
REMARK VINA RESULT:      -8.1      1.217      1.678
REMARK  Name = 
REMARK  7 active torsions:
REMARK  status: ('A' for Active; 'I' for Inactive)
REMARK    1  A    between atoms: C_1  and  C_2
REMARK    2  A    between atoms: C_6  and  N_7
REMARK    3  A    between atoms: N_7  and  C_8
REMARK    4  A    between atoms: C_8  and  C_9
REMARK    5  A    between atoms: C_14  and  O_15
REMARK    6  A    between atoms: N_19  and  C_20
REMARK    7  A    between atoms: C_20  and  C_21
REMARK                            x       y       z     vdW  Elec       q    Type
REMARK                         _______ _______ _______ _____ _____    ______ ____
ROOT
ATOM      1  C   UNL     1      -0.086  10.233  22.134  0.00  0.00    +0.000 C 
ATOM      2  C   UNL     1       0.600   9.289  21.215  0.00  0.00    +0.000 A 
ATOM      3  N   UNL     1       0.991   8.067  21.526  0.00  0.00    +0.000 NA
ATOM      4  C   UNL     1       1.595   7.567  20.401  0.00  0.00    +0.000 A 
ATOM      5  C   UNL     1       2.155   6.299  20.169  0.00  0.00    +0.000 A 
ATOM      6  C   UNL     1       2.748   6.008  18.928  0.00  0.00    +0.000 A 
ATOM      7  C   UNL     1       2.742   6.998  17.934  0.00  0.00    +0.000 A 
ATOM      8  C   UNL     1       2.196   8.272  18.142  0.00  0.00    +0.000 A 
ATOM      9  C   UNL     1       1.606   8.511  19.382  0.00  0.00    +0.000 A 
ATOM     10  N   UNL     1       0.916   9.580  19.905  0.00  0.00    +0.000 N 
ENDROOT
BRANCH   6  11
ATOM     11  N   UNL     1       3.183   4.693  18.685  0.00  0.00    +0.000 N 
ATOM     12  H   UNL     1       2.567   4.013  19.128  0.00  0.00    +0.000 HD
BRANCH  11  13
ATOM     13  C   UNL     1       4.591   4.373  18.936  0.00  0.00    +0.000 C 
BRANCH  13  14
ATOM     14  C   UNL     1       5.400   4.404  17.657  0.00  0.00    +0.000 A 
ATOM     15  C   UNL     1       4.785   4.273  16.400  0.00  0.00    +0.000 A 
ATOM     16  C   UNL     1       5.542   4.316  15.228  0.00  0.00    +0.000 A 
ATOM     17  C   UNL     1       6.916   4.523  15.292  0.00  0.00    +0.000 A 
ATOM     18  C   UNL     1       7.536   4.709  16.525  0.00  0.00    +0.000 A 
ATOM     19  C   UNL     1       6.776   4.658  17.695  0.00  0.00    +0.000 A 
BRANCH  19  20
ATOM     20  O   UNL     1       7.376   4.864  18.906  0.00  0.00    +0.000 OA
ATOM     21  H   UNL     1       7.439   5.821  19.063  0.00  0.00    +0.000 HD
ENDBRANCH  19  20
ENDBRANCH  13  14
ENDBRANCH  11  13
ENDBRANCH   6  11
BRANCH  10  22
ATOM     22  C   UNL     1       0.503  10.760  19.156  0.00  0.00    +0.000 C 
BRANCH  22  23
ATOM     23  C   UNL     1      -0.897  10.693  18.594  0.00  0.00    +0.000 A 
ATOM     24  C   UNL     1      -1.283   9.814  17.570  0.00  0.00    +0.000 A 
ATOM     25  C   UNL     1      -2.555   9.892  17.007  0.00  0.00    +0.000 A 
ATOM     26  C   UNL     1      -3.476  10.825  17.479  0.00  0.00    +0.000 A 
ATOM     27  C   UNL     1      -3.134  11.658  18.543  0.00  0.00    +0.000 A 
ATOM     28  C   UNL     1      -1.857  11.589  19.099  0.00  0.00    +0.000 A 
ENDBRANCH  22  23
ENDBRANCH  10  22
TORSDOF 6
ENDMDL
MODEL 9
REMARK VINA RESULT:      -8.0      2.103      3.122
REMARK  Name = 
REMARK  7 active torsions:
REMARK  status: ('A' for Active; 'I' for Inactive)
REMARK    1  A    between atoms: C_1  and  C_2
REMARK    2  A    between atoms: C_6  and  N_7
REMARK    3  A    between atoms: N_7  and  C_8
REMARK    4  A    between atoms: C_8  and  C_9
REMARK    5  A    between atoms: C_14  and  O_15
REMARK    6  A    between atoms: N_19  and  C_20
REMARK    7  A    between atoms: C_20  and  C_21
REMARK                            x       y       z     vdW  Elec       q    Type
REMARK                         _______ _______ _______ _____ _____    ______ ____
ROOT
ATOM      1  C   UNL     1      -0.851  10.795  22.515  0.00  0.00    +0.000 C 
ATOM      2  C   UNL     1      -0.060  10.136  21.444  0.00  0.00    +0.000 A 
ATOM      3  N   UNL     1       0.616   9.011  21.576  0.00  0.00    +0.000 NA
ATOM      4  C   UNL     1       1.212   8.785  20.361  0.00  0.00    +0.000 A 
ATOM      5  C   UNL     1       2.014   7.712  19.939  0.00  0.00    +0.000 A 
ATOM      6  C   UNL     1       2.543   7.698  18.636  0.00  0.00    +0.000 A 
ATOM      7  C   UNL     1       2.229   8.759  17.775  0.00  0.00    +0.000 A 
ATOM      8  C   UNL     1       1.437   9.845  18.174  0.00  0.00    +0.000 A 
ATOM      9  C   UNL     1       0.923   9.809  19.469  0.00  0.00    +0.000 A 
ATOM     10  N   UNL     1       0.064  10.630  20.163  0.00  0.00    +0.000 N 
ENDROOT
BRANCH   6  11
ATOM     11  N   UNL     1       3.233   6.552  18.205  0.00  0.00    +0.000 N 
ATOM     12  H   UNL     1       2.722   6.068  17.468  0.00  0.00    +0.000 HD
BRANCH  11  13
ATOM     13  C   UNL     1       3.713   5.610  19.221  0.00  0.00    +0.000 C 
BRANCH  13  14
ATOM     14  C   UNL     1       3.107   4.236  19.027  0.00  0.00    +0.000 A 
ATOM     15  C   UNL     1       1.728   4.069  18.808  0.00  0.00    +0.000 A 
ATOM     16  C   UNL     1       1.186   2.797  18.619  0.00  0.00    +0.000 A 
ATOM     17  C   UNL     1       2.014   1.679  18.613  0.00  0.00    +0.000 A 
ATOM     18  C   UNL     1       3.389   1.830  18.773  0.00  0.00    +0.000 A 
ATOM     19  C   UNL     1       3.927   3.103  18.970  0.00  0.00    +0.000 A 
BRANCH  19  20
ATOM     20  O   UNL     1       5.278   3.257  19.104  0.00  0.00    +0.000 OA
ATOM     21  H   UNL     1       5.458   4.153  19.434  0.00  0.00    +0.000 HD
ENDBRANCH  19  20
ENDBRANCH  13  14
ENDBRANCH  11  13
ENDBRANCH   6  11
BRANCH  10  22
ATOM     22  C   UNL     1      -0.665  11.756  19.594  0.00  0.00    +0.000 C 
BRANCH  22  23
ATOM     23  C   UNL     1      -2.006  11.404  18.998  0.00  0.00    +0.000 A 
ATOM     24  C   UNL     1      -2.186  10.418  18.016  0.00  0.00    +0.000 A 
ATOM     25  C   UNL     1      -3.429  10.231  17.415  0.00  0.00    +0.000 A 
ATOM     26  C   UNL     1      -4.522  11.002  17.805  0.00  0.00    +0.000 A 
ATOM     27  C   UNL     1      -4.378  11.937  18.828  0.00  0.00    +0.000 A 
ATOM     28  C   UNL     1      -3.132  12.133  19.424  0.00  0.00    +0.000 A 
ENDBRANCH  22  23
ENDBRANCH  10  22
TORSDOF 6
ENDMDL
