MODEL 1
REMARK VINA RESULT:      -7.0      0.000      0.000
REMARK  Name = 
REMARK  11 active torsions:
REMARK  status: ('A' for Active; 'I' for Inactive)
REMARK    1  A    between atoms: C_1  and  C_2
REMARK    2  A    between atoms: C_2  and  N_3
REMARK    3  A    between atoms: N_3  and  C_4
REMARK    4  A    between atoms: N_3  and  C_6
REMARK    5  A    between atoms: C_4  and  C_5
REMARK    6  A    between atoms: C_6  and  C_7
REMARK    7  A    between atoms: C_7  and  N_8
REMARK    8  A    between atoms: C_13  and  N_14
REMARK    9  A    between atoms: N_16  and  C_17
REMARK   10  A    between atoms: N_16  and  C_18
REMARK   11  A    between atoms: N_22  and  C_23
REMARK                            x       y       z     vdW  Elec       q    Type
REMARK                         _______ _______ _______ _____ _____    ______ ____
ROOT
ATOM      1  N   UNL     1       0.881   9.464  18.920  0.00  0.00    +0.000 N 
ATOM      2  N   UNL     1       0.074   9.432  17.823  0.00  0.00    +0.000 NA
ATOM      3  C   UNL     1      -0.949  10.220  18.175  0.00  0.00    +0.000 A 
ATOM      4  C   UNL     1      -0.803  10.727  19.470  0.00  0.00    +0.000 A 
ATOM      5  C   UNL     1      -1.683  11.584  20.157  0.00  0.00    +0.000 A 
ATOM      6  C   UNL     1      -1.276  11.910  21.479  0.00  0.00    +0.000 A 
ATOM      7  C   UNL     1      -0.025  11.420  21.956  0.00  0.00    +0.000 A 
ATOM      8  C   UNL     1       0.822  10.565  21.227  0.00  0.00    +0.000 A 
ATOM      9  C   UNL     1       0.388  10.233  19.955  0.00  0.00    +0.000 A 
ATOM     10  N   UNL     1      -2.815  11.962  19.407  0.00  0.00    +0.000 N 
ATOM     11  C   UNL     1      -3.691  13.025  19.890  0.00  0.00    +0.000 C 
ATOM     12  C   UNL     1      -3.090  11.434  18.082  0.00  0.00    +0.000 A 
ATOM     13  C   UNL     1      -4.275  11.712  17.378  0.00  0.00    +0.000 A 
ATOM     14  C   UNL     1      -4.488  11.210  16.086  0.00  0.00    +0.000 A 
ATOM     15  C   UNL     1      -3.532  10.410  15.462  0.00  0.00    +0.000 A 
ATOM     16  C   UNL     1      -2.359  10.084  16.134  0.00  0.00    +0.000 A 
ATOM     17  C   UNL     1      -2.144  10.574  17.427  0.00  0.00    +0.000 A 
ENDROOT
BRANCH   6  18
ATOM     18  N   UNL     1      -2.043  12.774  22.306  0.00  0.00    +0.000 NA
ATOM     19  C   UNL     1      -2.926  12.282  23.111  0.00  0.00    +0.000 C 
ATOM     20  N   UNL     1      -3.676  12.971  24.039  0.00  0.00    +0.000 N 
ATOM     21  C   UNL     1      -4.611  12.294  24.921  0.00  0.00    +0.000 C 
ATOM     22  C   UNL     1      -3.756  14.422  24.023  0.00  0.00    +0.000 C 
ENDBRANCH   6  18
BRANCH   1  23
ATOM     23  C   UNL     1       2.125   8.706  18.908  0.00  0.00    +0.000 C 
BRANCH  23  24
ATOM     24  C   UNL     1       2.079   7.508  19.867  0.00  0.00    +0.000 C 
BRANCH  24  25
ATOM     25  N   UNL     1       2.190   6.167  19.237  0.00  0.00    +0.000 NA
BRANCH  25  27
ATOM     26  C   UNL     1       3.674   4.900  17.618  0.00  0.00    +0.000 C 
ATOM     27  C   UNL     1       3.146   6.244  18.112  0.00  0.00    +0.000 C 
ENDBRANCH  25  27
BRANCH  25  28
ATOM     28  C   UNL     1       2.467   5.077  20.181  0.00  0.00    +0.000 C 
ATOM     29  C   UNL     1       1.278   4.207  20.576  0.00  0.00    +0.000 C 
ENDBRANCH  25  28
ENDBRANCH  24  25
ENDBRANCH  23  24
ENDBRANCH   1  23
TORSDOF 6
ENDMDL
MODEL 2
REMARK VINA RESULT:      -7.0      1.035      1.262
REMARK  Name = 
REMARK  11 active torsions:
REMARK  status: ('A' for Active; 'I' for Inactive)
REMARK    1  A    between atoms: C_1  and  C_2
REMARK    2  A    between atoms: C_2  and  N_3
REMARK    3  A    between atoms: N_3  and  C_4
REMARK    4  A    between atoms: N_3  and  C_6
REMARK    5  A    between atoms: C_4  and  C_5
REMARK    6  A    between atoms: C_6  and  C_7
REMARK    7  A    between atoms: C_7  and  N_8
REMARK    8  A    between atoms: C_13  and  N_14
REMARK    9  A    between atoms: N_16  and  C_17
REMARK   10  A    between atoms: N_16  and  C_18
REMARK   11  A    between atoms: N_22  and  C_23
REMARK                            x       y       z     vdW  Elec       q    Type
REMARK                         _______ _______ _______ _____ _____    ______ ____
ROOT
ATOM      1  N   UNL     1       0.972   9.568  18.720  0.00  0.00    +0.000 N 
ATOM      2  N   UNL     1       0.111   9.604  17.665  0.00  0.00    +0.000 NA
ATOM      3  C   UNL     1      -0.924  10.308  18.141  0.00  0.00    +0.000 A 
ATOM      4  C   UNL     1      -0.730  10.696  19.470  0.00  0.00    +0.000 A 
ATOM      5  C   UNL     1      -1.607  11.444  20.278  0.00  0.00    +0.000 A 
ATOM      6  C   UNL     1      -1.144  11.663  21.604  0.00  0.00    +0.000 A 
ATOM      7  C   UNL     1       0.149  11.187  21.970  0.00  0.00    +0.000 A 
ATOM      8  C   UNL     1       0.990  10.443  21.123  0.00  0.00    +0.000 A 
ATOM      9  C   UNL     1       0.503  10.213  19.847  0.00  0.00    +0.000 A 
ATOM     10  N   UNL     1      -2.791  11.840  19.624  0.00  0.00    +0.000 N 
ATOM     11  C   UNL     1      -3.682  12.812  20.249  0.00  0.00    +0.000 C 
ATOM     12  C   UNL     1      -3.114  11.428  18.269  0.00  0.00    +0.000 A 
ATOM     13  C   UNL     1      -4.344  11.717  17.653  0.00  0.00    +0.000 A 
ATOM     14  C   UNL     1      -4.604  11.329  16.330  0.00  0.00    +0.000 A 
ATOM     15  C   UNL     1      -3.650  10.636  15.587  0.00  0.00    +0.000 A 
ATOM     16  C   UNL     1      -2.432  10.301  16.167  0.00  0.00    +0.000 A 
ATOM     17  C   UNL     1      -2.169  10.676  17.489  0.00  0.00    +0.000 A 
ENDROOT
BRANCH   6  18
ATOM     18  N   UNL     1      -1.901  12.409  22.546  0.00  0.00    +0.000 NA
ATOM     19  C   UNL     1      -1.357  13.400  23.173  0.00  0.00    +0.000 C 
ATOM     20  N   UNL     1      -1.979  14.275  24.038  0.00  0.00    +0.000 N 
ATOM     21  C   UNL     1      -1.264  15.382  24.649  0.00  0.00    +0.000 C 
ATOM     22  C   UNL     1      -3.302  14.001  24.572  0.00  0.00    +0.000 C 
ENDBRANCH   6  18
BRANCH   1  23
ATOM     23  C   UNL     1       2.243   8.872  18.574  0.00  0.00    +0.000 C 
BRANCH  23  24
ATOM     24  C   UNL     1       2.183   7.441  19.131  0.00  0.00    +0.000 C 
BRANCH  24  25
ATOM     25  N   UNL     1       2.536   6.358  18.176  0.00  0.00    +0.000 NA
BRANCH  25  27
ATOM     26  C   UNL     1       4.997   5.747  18.182  0.00  0.00    +0.000 C 
ATOM     27  C   UNL     1       3.881   6.626  17.624  0.00  0.00    +0.000 C 
ENDBRANCH  25  27
BRANCH  25  28
ATOM     28  C   UNL     1       2.373   5.002  18.715  0.00  0.00    +0.000 C 
ATOM     29  C   UNL     1       1.509   4.050  17.895  0.00  0.00    +0.000 C 
ENDBRANCH  25  28
ENDBRANCH  24  25
ENDBRANCH  23  24
ENDBRANCH   1  23
TORSDOF 6
ENDMDL
MODEL 3
REMARK VINA RESULT:      -6.9      0.860      1.613
REMARK  Name = 
REMARK  11 active torsions:
REMARK  status: ('A' for Active; 'I' for Inactive)
REMARK    1  A    between atoms: C_1  and  C_2
REMARK    2  A    between atoms: C_2  and  N_3
REMARK    3  A    between atoms: N_3  and  C_4
REMARK    4  A    between atoms: N_3  and  C_6
REMARK    5  A    between atoms: C_4  and  C_5
REMARK    6  A    between atoms: C_6  and  C_7
REMARK    7  A    between atoms: C_7  and  N_8
REMARK    8  A    between atoms: C_13  and  N_14
REMARK    9  A    between atoms: N_16  and  C_17
REMARK   10  A    between atoms: N_16  and  C_18
REMARK   11  A    between atoms: N_22  and  C_23
REMARK                            x       y       z     vdW  Elec       q    Type
REMARK                         _______ _______ _______ _____ _____    ______ ____
ROOT
ATOM      1  N   UNL     1       0.957   9.347  18.794  0.00  0.00    +0.000 N 
ATOM      2  N   UNL     1       0.125   9.416  17.718  0.00  0.00    +0.000 NA
ATOM      3  C   UNL     1      -0.885  10.173  18.161  0.00  0.00    +0.000 A 
ATOM      4  C   UNL     1      -0.707  10.563  19.492  0.00  0.00    +0.000 A 
ATOM      5  C   UNL     1      -1.568  11.359  20.271  0.00  0.00    +0.000 A 
ATOM      6  C   UNL     1      -1.129  11.567  21.607  0.00  0.00    +0.000 A 
ATOM      7  C   UNL     1       0.130  11.032  22.011  0.00  0.00    +0.000 A 
ATOM      8  C   UNL     1       0.955  10.241  21.190  0.00  0.00    +0.000 A 
ATOM      9  C   UNL     1       0.491  10.024  19.904  0.00  0.00    +0.000 A 
ATOM     10  N   UNL     1      -2.714  11.806  19.583  0.00  0.00    +0.000 N 
ATOM     11  C   UNL     1      -3.573  12.826  20.178  0.00  0.00    +0.000 C 
ATOM     12  C   UNL     1      -3.021  11.398  18.224  0.00  0.00    +0.000 A 
ATOM     13  C   UNL     1      -4.220  11.741  17.574  0.00  0.00    +0.000 A 
ATOM     14  C   UNL     1      -4.465  11.355  16.248  0.00  0.00    +0.000 A 
ATOM     15  C   UNL     1      -3.527  10.610  15.534  0.00  0.00    +0.000 A 
ATOM     16  C   UNL     1      -2.341  10.221  16.149  0.00  0.00    +0.000 A 
ATOM     17  C   UNL     1      -2.094  10.595  17.475  0.00  0.00    +0.000 A 
ENDROOT
BRANCH   6  18
ATOM     18  N   UNL     1      -1.872  12.357  22.524  0.00  0.00    +0.000 NA
ATOM     19  C   UNL     1      -1.304  13.344  23.135  0.00  0.00    +0.000 C 
ATOM     20  N   UNL     1      -1.909  14.256  23.973  0.00  0.00    +0.000 N 
ATOM     21  C   UNL     1      -1.166  15.354  24.569  0.00  0.00    +0.000 C 
ATOM     22  C   UNL     1      -3.245  14.036  24.497  0.00  0.00    +0.000 C 
ENDBRANCH   6  18
BRANCH   1  23
ATOM     23  C   UNL     1       2.196   8.590  18.687  0.00  0.00    +0.000 C 
BRANCH  23  24
ATOM     24  C   UNL     1       2.155   7.298  19.518  0.00  0.00    +0.000 C 
BRANCH  24  25
ATOM     25  N   UNL     1       3.311   6.380  19.348  0.00  0.00    +0.000 NA
BRANCH  25  27
ATOM     26  C   UNL     1       1.614   4.992  20.622  0.00  0.00    +0.000 C 
ATOM     27  C   UNL     1       3.027   5.116  20.060  0.00  0.00    +0.000 C 
ENDBRANCH  25  27
BRANCH  25  28
ATOM     28  C   UNL     1       3.737   6.197  17.955  0.00  0.00    +0.000 C 
ATOM     29  C   UNL     1       3.572   4.795  17.378  0.00  0.00    +0.000 C 
ENDBRANCH  25  28
ENDBRANCH  24  25
ENDBRANCH  23  24
ENDBRANCH   1  23
TORSDOF 6
ENDMDL
MODEL 4
REMARK VINA RESULT:      -6.9      0.589      1.231
REMARK  Name = 
REMARK  11 active torsions:
REMARK  status: ('A' for Active; 'I' for Inactive)
REMARK    1  A    between atoms: C_1  and  C_2
REMARK    2  A    between atoms: C_2  and  N_3
REMARK    3  A    between atoms: N_3  and  C_4
REMARK    4  A    between atoms: N_3  and  C_6
REMARK    5  A    between atoms: C_4  and  C_5
REMARK    6  A    between atoms: C_6  and  C_7
REMARK    7  A    between atoms: C_7  and  N_8
REMARK    8  A    between atoms: C_13  and  N_14
REMARK    9  A    between atoms: N_16  and  C_17
REMARK   10  A    between atoms: N_16  and  C_18
REMARK   11  A    between atoms: N_22  and  C_23
REMARK                            x       y       z     vdW  Elec       q    Type
REMARK                         _______ _______ _______ _____ _____    ______ ____
ROOT
ATOM      1  N   UNL     1       0.948   9.461  18.838  0.00  0.00    +0.000 N 
ATOM      2  N   UNL     1       0.113   9.437  17.763  0.00  0.00    +0.000 NA
ATOM      3  C   UNL     1      -0.902  10.220  18.147  0.00  0.00    +0.000 A 
ATOM      4  C   UNL     1      -0.723  10.716  19.442  0.00  0.00    +0.000 A 
ATOM      5  C   UNL     1      -1.587  11.566  20.159  0.00  0.00    +0.000 A 
ATOM      6  C   UNL     1      -1.145  11.883  21.472  0.00  0.00    +0.000 A 
ATOM      7  C   UNL     1       0.119  11.392  21.912  0.00  0.00    +0.000 A 
ATOM      8  C   UNL     1       0.948  10.544  21.155  0.00  0.00    +0.000 A 
ATOM      9  C   UNL     1       0.481  10.221  19.892  0.00  0.00    +0.000 A 
ATOM     10  N   UNL     1      -2.738  11.948  19.442  0.00  0.00    +0.000 N 
ATOM     11  C   UNL     1      -3.603  13.006  19.956  0.00  0.00    +0.000 C 
ATOM     12  C   UNL     1      -3.047  11.431  18.120  0.00  0.00    +0.000 A 
ATOM     13  C   UNL     1      -4.250  11.712  17.450  0.00  0.00    +0.000 A 
ATOM     14  C   UNL     1      -4.496  11.219  16.160  0.00  0.00    +0.000 A 
ATOM     15  C   UNL     1      -3.555  10.426  15.504  0.00  0.00    +0.000 A 
ATOM     16  C   UNL     1      -2.365  10.097  16.143  0.00  0.00    +0.000 A 
ATOM     17  C   UNL     1      -2.116  10.577  17.434  0.00  0.00    +0.000 A 
ENDROOT
BRANCH   6  18
ATOM     18  N   UNL     1      -1.891  12.739  22.325  0.00  0.00    +0.000 NA
ATOM     19  C   UNL     1      -2.811  12.247  23.090  0.00  0.00    +0.000 C 
ATOM     20  N   UNL     1      -3.549  12.924  24.037  0.00  0.00    +0.000 N 
ATOM     21  C   UNL     1      -4.529  12.246  24.868  0.00  0.00    +0.000 C 
ATOM     22  C   UNL     1      -3.568  14.376  24.089  0.00  0.00    +0.000 C 
ENDBRANCH   6  18
BRANCH   1  23
ATOM     23  C   UNL     1       2.193   8.706  18.787  0.00  0.00    +0.000 C 
BRANCH  23  24
ATOM     24  C   UNL     1       2.126   7.427  19.636  0.00  0.00    +0.000 C 
BRANCH  24  25
ATOM     25  N   UNL     1       2.910   6.271  19.130  0.00  0.00    +0.000 NA
BRANCH  25  27
ATOM     26  C   UNL     1       1.728   4.417  17.868  0.00  0.00    +0.000 C 
ATOM     27  C   UNL     1       2.075   5.054  19.211  0.00  0.00    +0.000 C 
ENDBRANCH  25  27
BRANCH  25  28
ATOM     28  C   UNL     1       3.524   6.487  17.813  0.00  0.00    +0.000 C 
ATOM     29  C   UNL     1       5.033   6.283  17.730  0.00  0.00    +0.000 C 
ENDBRANCH  25  28
ENDBRANCH  24  25
ENDBRANCH  23  24
ENDBRANCH   1  23
TORSDOF 6
ENDMDL
MODEL 5
REMARK VINA RESULT:      -6.6      3.306      8.023
REMARK  Name = 
REMARK  11 active torsions:
REMARK  status: ('A' for Active; 'I' for Inactive)
REMARK    1  A    between atoms: C_1  and  C_2
REMARK    2  A    between atoms: C_2  and  N_3
REMARK    3  A    between atoms: N_3  and  C_4
REMARK    4  A    between atoms: N_3  and  C_6
REMARK    5  A    between atoms: C_4  and  C_5
REMARK    6  A    between atoms: C_6  and  C_7
REMARK    7  A    between atoms: C_7  and  N_8
REMARK    8  A    between atoms: C_13  and  N_14
REMARK    9  A    between atoms: N_16  and  C_17
REMARK   10  A    between atoms: N_16  and  C_18
REMARK   11  A    between atoms: N_22  and  C_23
REMARK                            x       y       z     vdW  Elec       q    Type
REMARK                         _______ _______ _______ _____ _____    ______ ____
ROOT
ATOM      1  N   UNL     1       5.106   5.174  16.814  0.00  0.00    +0.000 N 
ATOM      2  N   UNL     1       4.951   4.090  17.624  0.00  0.00    +0.000 NA
ATOM      3  C   UNL     1       4.049   4.506  18.521  0.00  0.00    +0.000 A 
ATOM      4  C   UNL     1       3.653   5.828  18.296  0.00  0.00    +0.000 A 
ATOM      5  C   UNL     1       2.725   6.580  19.040  0.00  0.00    +0.000 A 
ATOM      6  C   UNL     1       2.546   7.914  18.581  0.00  0.00    +0.000 A 
ATOM      7  C   UNL     1       3.239   8.340  17.411  0.00  0.00    +0.000 A 
ATOM      8  C   UNL     1       4.158   7.547  16.700  0.00  0.00    +0.000 A 
ATOM      9  C   UNL     1       4.342   6.263  17.186  0.00  0.00    +0.000 A 
ATOM     10  N   UNL     1       2.142   5.873  20.110  0.00  0.00    +0.000 N 
ATOM     11  C   UNL     1       0.997   6.434  20.821  0.00  0.00    +0.000 C 
ATOM     12  C   UNL     1       2.538   4.522  20.466  0.00  0.00    +0.000 A 
ATOM     13  C   UNL     1       2.049   3.854  21.602  0.00  0.00    +0.000 A 
ATOM     14  C   UNL     1       2.432   2.537  21.893  0.00  0.00    +0.000 A 
ATOM     15  C   UNL     1       3.319   1.849  21.066  0.00  0.00    +0.000 A 
ATOM     16  C   UNL     1       3.852   2.482  19.948  0.00  0.00    +0.000 A 
ATOM     17  C   UNL     1       3.482   3.800  19.657  0.00  0.00    +0.000 A 
ENDROOT
BRANCH   6  18
ATOM     18  N   UNL     1       1.636   8.804  19.211  0.00  0.00    +0.000 NA
ATOM     19  C   UNL     1       0.774   9.456  18.503  0.00  0.00    +0.000 C 
ATOM     20  N   UNL     1      -0.231  10.277  18.969  0.00  0.00    +0.000 N 
ATOM     21  C   UNL     1      -1.169  10.923  18.068  0.00  0.00    +0.000 C 
ATOM     22  C   UNL     1      -0.258  10.733  20.348  0.00  0.00    +0.000 C 
ENDBRANCH   6  18
BRANCH   1  23
ATOM     23  C   UNL     1       6.031   5.096  15.692  0.00  0.00    +0.000 C 
BRANCH  23  24
ATOM     24  C   UNL     1       5.470   4.245  14.542  0.00  0.00    +0.000 C 
BRANCH  24  25
ATOM     25  N   UNL     1       6.155   4.392  13.232  0.00  0.00    +0.000 NA
BRANCH  25  27
ATOM     26  C   UNL     1       8.166   5.769  12.533  0.00  0.00    +0.000 C 
ATOM     27  C   UNL     1       7.578   4.717  13.469  0.00  0.00    +0.000 C 
ENDBRANCH  25  27
BRANCH  25  28
ATOM     28  C   UNL     1       5.947   3.267  12.312  0.00  0.00    +0.000 C 
ATOM     29  C   UNL     1       4.579   3.188  11.641  0.00  0.00    +0.000 C 
ENDBRANCH  25  28
ENDBRANCH  24  25
ENDBRANCH  23  24
ENDBRANCH   1  23
TORSDOF 6
ENDMDL
MODEL 6
REMARK VINA RESULT:      -6.6      3.748      8.500
REMARK  Name = 
REMARK  11 active torsions:
REMARK  status: ('A' for Active; 'I' for Inactive)
REMARK    1  A    between atoms: C_1  and  C_2
REMARK    2  A    between atoms: C_2  and  N_3
REMARK    3  A    between atoms: N_3  and  C_4
REMARK    4  A    between atoms: N_3  and  C_6
REMARK    5  A    between atoms: C_4  and  C_5
REMARK    6  A    between atoms: C_6  and  C_7
REMARK    7  A    between atoms: C_7  and  N_8
REMARK    8  A    between atoms: C_13  and  N_14
REMARK    9  A    between atoms: N_16  and  C_17
REMARK   10  A    between atoms: N_16  and  C_18
REMARK   11  A    between atoms: N_22  and  C_23
REMARK                            x       y       z     vdW  Elec       q    Type
REMARK                         _______ _______ _______ _____ _____    ______ ____
ROOT
ATOM      1  N   UNL     1       5.338   4.185  16.576  0.00  0.00    +0.000 N 
ATOM      2  N   UNL     1       4.960   3.309  17.548  0.00  0.00    +0.000 NA
ATOM      3  C   UNL     1       4.165   4.048  18.332  0.00  0.00    +0.000 A 
ATOM      4  C   UNL     1       4.056   5.366  17.878  0.00  0.00    +0.000 A 
ATOM      5  C   UNL     1       3.306   6.408  18.455  0.00  0.00    +0.000 A 
ATOM      6  C   UNL     1       3.410   7.653  17.777  0.00  0.00    +0.000 A 
ATOM      7  C   UNL     1       4.177   7.723  16.577  0.00  0.00    +0.000 A 
ATOM      8  C   UNL     1       4.909   6.649  16.040  0.00  0.00    +0.000 A 
ATOM      9  C   UNL     1       4.820   5.455  16.736  0.00  0.00    +0.000 A 
ATOM     10  N   UNL     1       2.588   6.028  19.606  0.00  0.00    +0.000 N 
ATOM     11  C   UNL     1       1.587   6.926  20.174  0.00  0.00    +0.000 C 
ATOM     12  C   UNL     1       2.692   4.704  20.194  0.00  0.00    +0.000 A 
ATOM     13  C   UNL     1       2.074   4.353  21.407  0.00  0.00    +0.000 A 
ATOM     14  C   UNL     1       2.173   3.053  21.925  0.00  0.00    +0.000 A 
ATOM     15  C   UNL     1       2.895   2.068  21.253  0.00  0.00    +0.000 A 
ATOM     16  C   UNL     1       3.549   2.379  20.066  0.00  0.00    +0.000 A 
ATOM     17  C   UNL     1       3.463   3.677  19.548  0.00  0.00    +0.000 A 
ENDROOT
BRANCH   6  18
ATOM     18  N   UNL     1       2.708   8.806  18.219  0.00  0.00    +0.000 NA
ATOM     19  C   UNL     1       1.491   9.009  17.834  0.00  0.00    +0.000 C 
ATOM     20  N   UNL     1       0.649  10.020  18.248  0.00  0.00    +0.000 N 
ATOM     21  C   UNL     1      -0.720  10.116  17.771  0.00  0.00    +0.000 C 
ATOM     22  C   UNL     1       1.148  11.170  18.982  0.00  0.00    +0.000 C 
ENDBRANCH   6  18
BRANCH   1  23
ATOM     23  C   UNL     1       6.226   3.729  15.515  0.00  0.00    +0.000 C 
BRANCH  23  24
ATOM     24  C   UNL     1       5.861   4.344  14.156  0.00  0.00    +0.000 C 
BRANCH  24  25
ATOM     25  N   UNL     1       6.342   3.605  12.959  0.00  0.00    +0.000 NA
BRANCH  25  27
ATOM     26  C   UNL     1       5.435   1.947  11.269  0.00  0.00    +0.000 C 
ATOM     27  C   UNL     1       5.173   3.142  12.182  0.00  0.00    +0.000 C 
ENDBRANCH  25  27
BRANCH  25  28
ATOM     28  C   UNL     1       7.339   4.331  12.162  0.00  0.00    +0.000 C 
ATOM     29  C   UNL     1       7.977   5.548  12.824  0.00  0.00    +0.000 C 
ENDBRANCH  25  28
ENDBRANCH  24  25
ENDBRANCH  23  24
ENDBRANCH   1  23
TORSDOF 6
ENDMDL
MODEL 7
REMARK VINA RESULT:      -6.6      3.282      7.923
REMARK  Name = 
REMARK  11 active torsions:
REMARK  status: ('A' for Active; 'I' for Inactive)
REMARK    1  A    between atoms: C_1  and  C_2
REMARK    2  A    between atoms: C_2  and  N_3
REMARK    3  A    between atoms: N_3  and  C_4
REMARK    4  A    between atoms: N_3  and  C_6
REMARK    5  A    between atoms: C_4  and  C_5
REMARK    6  A    between atoms: C_6  and  C_7
REMARK    7  A    between atoms: C_7  and  N_8
REMARK    8  A    between atoms: C_13  and  N_14
REMARK    9  A    between atoms: N_16  and  C_17
REMARK   10  A    between atoms: N_16  and  C_18
REMARK   11  A    between atoms: N_22  and  C_23
REMARK                            x       y       z     vdW  Elec       q    Type
REMARK                         _______ _______ _______ _____ _____    ______ ____
ROOT
ATOM      1  N   UNL     1       4.907   5.397  16.775  0.00  0.00    +0.000 N 
ATOM      2  N   UNL     1       4.798   4.281  17.547  0.00  0.00    +0.000 NA
ATOM      3  C   UNL     1       3.924   4.647  18.492  0.00  0.00    +0.000 A 
ATOM      4  C   UNL     1       3.501   5.970  18.333  0.00  0.00    +0.000 A 
ATOM      5  C   UNL     1       2.590   6.679  19.140  0.00  0.00    +0.000 A 
ATOM      6  C   UNL     1       2.374   8.026  18.740  0.00  0.00    +0.000 A 
ATOM      7  C   UNL     1       3.017   8.508  17.563  0.00  0.00    +0.000 A 
ATOM      8  C   UNL     1       3.921   7.757  16.789  0.00  0.00    +0.000 A 
ATOM      9  C   UNL     1       4.141   6.458  17.217  0.00  0.00    +0.000 A 
ATOM     10  N   UNL     1       2.057   5.922  20.203  0.00  0.00    +0.000 N 
ATOM     11  C   UNL     1       0.932   6.437  20.976  0.00  0.00    +0.000 C 
ATOM     12  C   UNL     1       2.487   4.564  20.491  0.00  0.00    +0.000 A 
ATOM     13  C   UNL     1       2.050   3.846  21.618  0.00  0.00    +0.000 A 
ATOM     14  C   UNL     1       2.463   2.525  21.843  0.00  0.00    +0.000 A 
ATOM     15  C   UNL     1       3.328   1.884  20.957  0.00  0.00    +0.000 A 
ATOM     16  C   UNL     1       3.810   2.568  19.846  0.00  0.00    +0.000 A 
ATOM     17  C   UNL     1       3.410   3.890  19.620  0.00  0.00    +0.000 A 
ENDROOT
BRANCH   6  18
ATOM     18  N   UNL     1       1.476   8.877  19.437  0.00  0.00    +0.000 NA
ATOM     19  C   UNL     1       0.732   9.707  18.783  0.00  0.00    +0.000 C 
ATOM     20  N   UNL     1      -0.250  10.524  19.300  0.00  0.00    +0.000 N 
ATOM     21  C   UNL     1      -1.052  11.387  18.449  0.00  0.00    +0.000 C 
ATOM     22  C   UNL     1      -0.374  10.750  20.729  0.00  0.00    +0.000 C 
ENDBRANCH   6  18
BRANCH   1  23
ATOM     23  C   UNL     1       5.791   5.377  15.617  0.00  0.00    +0.000 C 
BRANCH  23  24
ATOM     24  C   UNL     1       5.912   3.971  15.011  0.00  0.00    +0.000 C 
BRANCH  24  25
ATOM     25  N   UNL     1       6.602   3.887  13.698  0.00  0.00    +0.000 NA
BRANCH  25  27
ATOM     26  C   UNL     1       5.703   2.478  11.792  0.00  0.00    +0.000 C 
ATOM     27  C   UNL     1       5.588   3.747  12.632  0.00  0.00    +0.000 C 
ENDBRANCH  25  27
BRANCH  25  28
ATOM     28  C   UNL     1       7.574   4.962  13.458  0.00  0.00    +0.000 C 
ATOM     29  C   UNL     1       7.744   5.406  12.009  0.00  0.00    +0.000 C 
ENDBRANCH  25  28
ENDBRANCH  24  25
ENDBRANCH  23  24
ENDBRANCH   1  23
TORSDOF 6
ENDMDL
MODEL 8
REMARK VINA RESULT:      -6.4      3.232      7.482
REMARK  Name = 
REMARK  11 active torsions:
REMARK  status: ('A' for Active; 'I' for Inactive)
REMARK    1  A    between atoms: C_1  and  C_2
REMARK    2  A    between atoms: C_2  and  N_3
REMARK    3  A    between atoms: N_3  and  C_4
REMARK    4  A    between atoms: N_3  and  C_6
REMARK    5  A    between atoms: C_4  and  C_5
REMARK    6  A    between atoms: C_6  and  C_7
REMARK    7  A    between atoms: C_7  and  N_8
REMARK    8  A    between atoms: C_13  and  N_14
REMARK    9  A    between atoms: N_16  and  C_17
REMARK   10  A    between atoms: N_16  and  C_18
REMARK   11  A    between atoms: N_22  and  C_23
REMARK                            x       y       z     vdW  Elec       q    Type
REMARK                         _______ _______ _______ _____ _____    ______ ____
ROOT
ATOM      1  N   UNL     1       4.944   5.617  17.025  0.00  0.00    +0.000 N 
ATOM      2  N   UNL     1       4.814   4.481  17.765  0.00  0.00    +0.000 NA
ATOM      3  C   UNL     1       3.866   4.803  18.653  0.00  0.00    +0.000 A 
ATOM      4  C   UNL     1       3.417   6.117  18.491  0.00  0.00    +0.000 A 
ATOM      5  C   UNL     1       2.431   6.782  19.245  0.00  0.00    +0.000 A 
ATOM      6  C   UNL     1       2.205   8.131  18.858  0.00  0.00    +0.000 A 
ATOM      7  C   UNL     1       2.915   8.656  17.738  0.00  0.00    +0.000 A 
ATOM      8  C   UNL     1       3.892   7.947  17.015  0.00  0.00    +0.000 A 
ATOM      9  C   UNL     1       4.119   6.646  17.432  0.00  0.00    +0.000 A 
ATOM     10  N   UNL     1       1.848   5.987  20.252  0.00  0.00    +0.000 N 
ATOM     11  C   UNL     1       0.656   6.455  20.954  0.00  0.00    +0.000 C 
ATOM     12  C   UNL     1       2.295   4.637  20.543  0.00  0.00    +0.000 A 
ATOM     13  C   UNL     1       1.801   3.883  21.621  0.00  0.00    +0.000 A 
ATOM     14  C   UNL     1       2.235   2.568  21.849  0.00  0.00    +0.000 A 
ATOM     15  C   UNL     1       3.178   1.971  21.014  0.00  0.00    +0.000 A 
ATOM     16  C   UNL     1       3.717   2.692  19.954  0.00  0.00    +0.000 A 
ATOM     17  C   UNL     1       3.296   4.007  19.726  0.00  0.00    +0.000 A 
ENDROOT
BRANCH   6  18
ATOM     18  N   UNL     1       1.236   8.942  19.506  0.00  0.00    +0.000 NA
ATOM     19  C   UNL     1       1.040  10.157  19.110  0.00  0.00    +0.000 C 
ATOM     20  N   UNL     1       0.078  11.032  19.567  0.00  0.00    +0.000 N 
ATOM     21  C   UNL     1      -0.070  12.364  19.007  0.00  0.00    +0.000 C 
ATOM     22  C   UNL     1      -0.672  10.767  20.783  0.00  0.00    +0.000 C 
ENDBRANCH   6  18
BRANCH   1  23
ATOM     23  C   UNL     1       5.907   5.645  15.932  0.00  0.00    +0.000 C 
BRANCH  23  24
ATOM     24  C   UNL     1       7.288   6.134  16.395  0.00  0.00    +0.000 C 
BRANCH  24  25
ATOM     25  N   UNL     1       7.298   7.006  17.598  0.00  0.00    +0.000 NA
BRANCH  25  27
ATOM     26  C   UNL     1       7.383   5.538  19.664  0.00  0.00    +0.000 C 
ATOM     27  C   UNL     1       8.140   6.377  18.638  0.00  0.00    +0.000 C 
ENDBRANCH  25  27
BRANCH  25  28
ATOM     28  C   UNL     1       7.638   8.409  17.325  0.00  0.00    +0.000 C 
ATOM     29  C   UNL     1       8.504   9.108  18.367  0.00  0.00    +0.000 C 
ENDBRANCH  25  28
ENDBRANCH  24  25
ENDBRANCH  23  24
ENDBRANCH   1  23
TORSDOF 6
ENDMDL
MODEL 9
REMARK VINA RESULT:      -6.4      3.316      9.840
REMARK  Name = 
REMARK  11 active torsions:
REMARK  status: ('A' for Active; 'I' for Inactive)
REMARK    1  A    between atoms: C_1  and  C_2
REMARK    2  A    between atoms: C_2  and  N_3
REMARK    3  A    between atoms: N_3  and  C_4
REMARK    4  A    between atoms: N_3  and  C_6
REMARK    5  A    between atoms: C_4  and  C_5
REMARK    6  A    between atoms: C_6  and  C_7
REMARK    7  A    between atoms: C_7  and  N_8
REMARK    8  A    between atoms: C_13  and  N_14
REMARK    9  A    between atoms: N_16  and  C_17
REMARK   10  A    between atoms: N_16  and  C_18
REMARK   11  A    between atoms: N_22  and  C_23
REMARK                            x       y       z     vdW  Elec       q    Type
REMARK                         _______ _______ _______ _____ _____    ______ ____
ROOT
ATOM      1  N   UNL     1       1.649   7.928  19.762  0.00  0.00    +0.000 N 
ATOM      2  N   UNL     1       1.492   6.846  20.574  0.00  0.00    +0.000 NA
ATOM      3  C   UNL     1       2.351   5.955  20.065  0.00  0.00    +0.000 A 
ATOM      4  C   UNL     1       3.026   6.454  18.946  0.00  0.00    +0.000 A 
ATOM      5  C   UNL     1       3.996   5.794  18.168  0.00  0.00    +0.000 A 
ATOM      6  C   UNL     1       4.488   6.554  17.072  0.00  0.00    +0.000 A 
ATOM      7  C   UNL     1       4.030   7.893  16.900  0.00  0.00    +0.000 A 
ATOM      8  C   UNL     1       3.058   8.509  17.709  0.00  0.00    +0.000 A 
ATOM      9  C   UNL     1       2.568   7.738  18.749  0.00  0.00    +0.000 A 
ATOM     10  N   UNL     1       4.301   4.493  18.617  0.00  0.00    +0.000 N 
ATOM     11  C   UNL     1       5.447   3.779  18.063  0.00  0.00    +0.000 C 
ATOM     12  C   UNL     1       3.606   3.862  19.725  0.00  0.00    +0.000 A 
ATOM     13  C   UNL     1       3.820   2.525  20.101  0.00  0.00    +0.000 A 
ATOM     14  C   UNL     1       3.152   1.962  21.199  0.00  0.00    +0.000 A 
ATOM     15  C   UNL     1       2.245   2.712  21.946  0.00  0.00    +0.000 A 
ATOM     16  C   UNL     1       1.979   4.030  21.589  0.00  0.00    +0.000 A 
ATOM     17  C   UNL     1       2.635   4.595  20.490  0.00  0.00    +0.000 A 
ENDROOT
BRANCH   6  18
ATOM     18  N   UNL     1       5.480   6.042  16.194  0.00  0.00    +0.000 NA
ATOM     19  C   UNL     1       5.146   5.228  15.246  0.00  0.00    +0.000 C 
ATOM     20  N   UNL     1       5.967   4.724  14.260  0.00  0.00    +0.000 N 
ATOM     21  C   UNL     1       5.460   3.847  13.219  0.00  0.00    +0.000 C 
ATOM     22  C   UNL     1       7.413   4.841  14.344  0.00  0.00    +0.000 C 
ENDBRANCH   6  18
BRANCH   1  23
ATOM     23  C   UNL     1       0.859   9.125  20.015  0.00  0.00    +0.000 C 
BRANCH  23  24
ATOM     24  C   UNL     1       0.495   9.271  21.501  0.00  0.00    +0.000 C 
BRANCH  24  25
ATOM     25  N   UNL     1       0.254  10.658  21.977  0.00  0.00    +0.000 NA
BRANCH  25  27
ATOM     26  C   UNL     1       1.312  12.618  20.764  0.00  0.00    +0.000 C 
ATOM     27  C   UNL     1       0.209  11.564  20.809  0.00  0.00    +0.000 C 
ENDBRANCH  25  27
BRANCH  25  28
ATOM     28  C   UNL     1      -0.895  10.795  22.881  0.00  0.00    +0.000 C 
ATOM     29  C   UNL     1      -1.481  12.196  23.020  0.00  0.00    +0.000 C 
ENDBRANCH  25  28
ENDBRANCH  24  25
ENDBRANCH  23  24
ENDBRANCH   1  23
TORSDOF 6
ENDMDL
