MODEL 1
REMARK VINA RESULT:      -8.3      0.000      0.000
REMARK  Name = 
REMARK  3 active torsions:
REMARK  status: ('A' for Active; 'I' for Inactive)
REMARK    1  A    between atoms: C_1  and  C_2
REMARK    2  A    between atoms: C_9  and  O_10
REMARK    3  A    between atoms: C_19  and  O_20
REMARK                            x       y       z     vdW  Elec       q    Type
REMARK                         _______ _______ _______ _____ _____    ______ ____
ROOT
ATOM      1  C   UNL     1       1.083   2.773  19.344  0.00  0.00    +0.000 C 
ATOM      2  C   UNL     1       2.554   3.254  19.381  0.00  0.00    +0.000 C 
ATOM      3  C   UNL     1       2.751   3.818  20.789  0.00  0.00    +0.000 C 
ATOM      4  C   UNL     1       1.972   5.128  20.949  0.00  0.00    +0.000 C 
ATOM      5  C   UNL     1       2.438   6.219  19.972  0.00  0.00    +0.000 C 
ATOM      6  C   UNL     1       1.677   7.534  20.084  0.00  0.00    +0.000 A 
ATOM      7  C   UNL     1       0.868   7.830  21.200  0.00  0.00    +0.000 A 
ATOM      8  C   UNL     1       0.223   9.059  21.328  0.00  0.00    +0.000 A 
ATOM      9  C   UNL     1       0.392  10.016  20.343  0.00  0.00    +0.000 A 
ATOM     10  C   UNL     1       1.187   9.753  19.227  0.00  0.00    +0.000 A 
ATOM     11  C   UNL     1       1.833   8.508  19.081  0.00  0.00    +0.000 A 
ATOM     12  C   UNL     1       2.636   8.228  17.825  0.00  0.00    +0.000 C 
ATOM     13  C   UNL     1       3.321   6.843  17.759  0.00  0.00    +0.000 C 
ATOM     14  C   UNL     1       2.496   5.750  18.486  0.00  0.00    +0.000 C 
ATOM     15  C   UNL     1       3.120   4.336  18.404  0.00  0.00    +0.000 C 
ATOM     16  C   UNL     1       3.280   3.614  17.069  0.00  0.00    +0.000 C 
ATOM     17  C   UNL     1       3.709   2.190  17.466  0.00  0.00    +0.000 C 
ATOM     18  C   UNL     1       3.411   2.027  18.973  0.00  0.00    +0.000 C 
ENDROOT
BRANCH   9  19
ATOM     19  O   UNL     1      -0.219  11.227  20.438  0.00  0.00    +0.000 OA
ATOM     20  H   UNL     1      -0.612  11.313  21.324  0.00  0.00    +0.000 HD
ENDBRANCH   9  19
BRANCH  18  21
ATOM     21  O   UNL     1       4.632   1.974  19.700  0.00  0.00    +0.000 OA
ATOM     22  H   UNL     1       5.151   2.765  19.477  0.00  0.00    +0.000 HD
ENDBRANCH  18  21
TORSDOF 2
ENDMDL
MODEL 2
REMARK VINA RESULT:      -8.0      3.211      5.866
REMARK  Name = 
REMARK  3 active torsions:
REMARK  status: ('A' for Active; 'I' for Inactive)
REMARK    1  A    between atoms: C_1  and  C_2
REMARK    2  A    between atoms: C_9  and  O_10
REMARK    3  A    between atoms: C_19  and  O_20
REMARK                            x       y       z     vdW  Elec       q    Type
REMARK                         _______ _______ _______ _____ _____    ______ ____
ROOT
ATOM      1  C   UNL     1       3.715   2.064  20.198  0.00  0.00    +0.000 C 
ATOM      2  C   UNL     1       2.554   2.819  19.507  0.00  0.00    +0.000 C 
ATOM      3  C   UNL     1       2.422   2.166  18.130  0.00  0.00    +0.000 C 
ATOM      4  C   UNL     1       3.624   2.533  17.252  0.00  0.00    +0.000 C 
ATOM      5  C   UNL     1       3.741   4.047  17.009  0.00  0.00    +0.000 C 
ATOM      6  C   UNL     1       4.934   4.458  16.155  0.00  0.00    +0.000 A 
ATOM      7  C   UNL     1       5.652   3.523  15.383  0.00  0.00    +0.000 A 
ATOM      8  C   UNL     1       6.702   3.913  14.556  0.00  0.00    +0.000 A 
ATOM      9  C   UNL     1       7.040   5.252  14.480  0.00  0.00    +0.000 A 
ATOM     10  C   UNL     1       6.348   6.203  15.230  0.00  0.00    +0.000 A 
ATOM     11  C   UNL     1       5.291   5.818  16.082  0.00  0.00    +0.000 A 
ATOM     12  C   UNL     1       4.603   6.864  16.936  0.00  0.00    +0.000 C 
ATOM     13  C   UNL     1       3.446   6.351  17.826  0.00  0.00    +0.000 C 
ATOM     14  C   UNL     1       3.686   4.899  18.314  0.00  0.00    +0.000 C 
ATOM     15  C   UNL     1       2.577   4.361  19.249  0.00  0.00    +0.000 C 
ATOM     16  C   UNL     1       2.313   4.991  20.614  0.00  0.00    +0.000 C 
ATOM     17  C   UNL     1       1.319   4.025  21.283  0.00  0.00    +0.000 C 
ATOM     18  C   UNL     1       1.344   2.711  20.472  0.00  0.00    +0.000 C 
ENDROOT
BRANCH   9  19
ATOM     19  O   UNL     1       8.057   5.669  13.678  0.00  0.00    +0.000 OA
ATOM     20  H   UNL     1       7.786   5.571  12.749  0.00  0.00    +0.000 HD
ENDBRANCH   9  19
BRANCH  18  21
ATOM     21  O   UNL     1       0.120   2.560  19.764  0.00  0.00    +0.000 OA
ATOM     22  H   UNL     1      -0.479   2.022  20.308  0.00  0.00    +0.000 HD
ENDBRANCH  18  21
TORSDOF 2
ENDMDL
MODEL 3
REMARK VINA RESULT:      -7.9      3.976      5.971
REMARK  Name = 
REMARK  3 active torsions:
REMARK  status: ('A' for Active; 'I' for Inactive)
REMARK    1  A    between atoms: C_1  and  C_2
REMARK    2  A    between atoms: C_9  and  O_10
REMARK    3  A    between atoms: C_19  and  O_20
REMARK                            x       y       z     vdW  Elec       q    Type
REMARK                         _______ _______ _______ _____ _____    ______ ____
ROOT
ATOM      1  C   UNL     1       2.188   1.430  18.582  0.00  0.00    +0.000 C 
ATOM      2  C   UNL     1       2.044   2.874  19.122  0.00  0.00    +0.000 C 
ATOM      3  C   UNL     1       1.570   3.698  17.925  0.00  0.00    +0.000 C 
ATOM      4  C   UNL     1       2.700   3.841  16.898  0.00  0.00    +0.000 C 
ATOM      5  C   UNL     1       3.931   4.564  17.468  0.00  0.00    +0.000 C 
ATOM      6  C   UNL     1       5.087   4.711  16.486  0.00  0.00    +0.000 A 
ATOM      7  C   UNL     1       4.914   4.515  15.101  0.00  0.00    +0.000 A 
ATOM      8  C   UNL     1       5.958   4.711  14.200  0.00  0.00    +0.000 A 
ATOM      9  C   UNL     1       7.191   5.122  14.675  0.00  0.00    +0.000 A 
ATOM     10  C   UNL     1       7.394   5.326  16.040  0.00  0.00    +0.000 A 
ATOM     11  C   UNL     1       6.347   5.117  16.963  0.00  0.00    +0.000 A 
ATOM     12  C   UNL     1       6.617   5.282  18.446  0.00  0.00    +0.000 C 
ATOM     13  C   UNL     1       5.406   5.047  19.380  0.00  0.00    +0.000 C 
ATOM     14  C   UNL     1       4.438   3.974  18.819  0.00  0.00    +0.000 C 
ATOM     15  C   UNL     1       3.236   3.671  19.746  0.00  0.00    +0.000 C 
ATOM     16  C   UNL     1       3.434   3.061  21.131  0.00  0.00    +0.000 C 
ATOM     17  C   UNL     1       2.006   2.719  21.594  0.00  0.00    +0.000 C 
ATOM     18  C   UNL     1       1.097   2.776  20.346  0.00  0.00    +0.000 C 
ENDROOT
BRANCH   9  19
ATOM     19  O   UNL     1       8.231   5.328  13.824  0.00  0.00    +0.000 OA
ATOM     20  H   UNL     1       8.873   4.606  13.931  0.00  0.00    +0.000 HD
ENDBRANCH   9  19
BRANCH  18  21
ATOM     21  O   UNL     1       0.233   3.902  20.433  0.00  0.00    +0.000 OA
ATOM     22  H   UNL     1      -0.683   3.585  20.364  0.00  0.00    +0.000 HD
ENDBRANCH  18  21
TORSDOF 2
ENDMDL
MODEL 4
REMARK VINA RESULT:      -7.1      9.424     10.935
REMARK  Name = 
REMARK  3 active torsions:
REMARK  status: ('A' for Active; 'I' for Inactive)
REMARK    1  A    between atoms: C_1  and  C_2
REMARK    2  A    between atoms: C_9  and  O_10
REMARK    3  A    between atoms: C_19  and  O_20
REMARK                            x       y       z     vdW  Elec       q    Type
REMARK                         _______ _______ _______ _____ _____    ______ ____
ROOT
ATOM      1  C   UNL     1       8.701  12.163  17.819  0.00  0.00    +0.000 C 
ATOM      2  C   UNL     1      10.108  12.406  18.418  0.00  0.00    +0.000 C 
ATOM      3  C   UNL     1      10.362  11.208  19.333  0.00  0.00    +0.000 C 
ATOM      4  C   UNL     1       9.459  11.284  20.570  0.00  0.00    +0.000 C 
ATOM      5  C   UNL     1       9.717  12.542  21.415  0.00  0.00    +0.000 C 
ATOM      6  C   UNL     1       8.827  12.668  22.646  0.00  0.00    +0.000 A 
ATOM      7  C   UNL     1       8.090  11.575  23.144  0.00  0.00    +0.000 A 
ATOM      8  C   UNL     1       7.327  11.677  24.305  0.00  0.00    +0.000 A 
ATOM      9  C   UNL     1       7.304  12.877  24.994  0.00  0.00    +0.000 A 
ATOM     10  C   UNL     1       8.024  13.977  24.528  0.00  0.00    +0.000 A 
ATOM     11  C   UNL     1       8.789  13.888  23.346  0.00  0.00    +0.000 A 
ATOM     12  C   UNL     1       9.506  15.120  22.827  0.00  0.00    +0.000 C 
ATOM     13  C   UNL     1      10.332  14.924  21.534  0.00  0.00    +0.000 C 
ATOM     14  C   UNL     1       9.698  13.867  20.593  0.00  0.00    +0.000 C 
ATOM     15  C   UNL     1      10.465  13.673  19.263  0.00  0.00    +0.000 C 
ATOM     16  C   UNL     1      10.587  14.803  18.244  0.00  0.00    +0.000 C 
ATOM     17  C   UNL     1      11.204  14.123  17.008  0.00  0.00    +0.000 C 
ATOM     18  C   UNL     1      11.056  12.598  17.206  0.00  0.00    +0.000 C 
ENDROOT
BRANCH   9  19
ATOM     19  O   UNL     1       6.574  13.011  26.133  0.00  0.00    +0.000 OA
ATOM     20  H   UNL     1       6.143  13.882  26.131  0.00  0.00    +0.000 HD
ENDBRANCH   9  19
BRANCH  18  21
ATOM     21  O   UNL     1      12.333  12.019  17.442  0.00  0.00    +0.000 OA
ATOM     22  H   UNL     1      12.875  12.668  17.922  0.00  0.00    +0.000 HD
ENDBRANCH  18  21
TORSDOF 2
ENDMDL
MODEL 5
REMARK VINA RESULT:      -7.0      3.573      5.453
REMARK  Name = 
REMARK  3 active torsions:
REMARK  status: ('A' for Active; 'I' for Inactive)
REMARK    1  A    between atoms: C_1  and  C_2
REMARK    2  A    between atoms: C_9  and  O_10
REMARK    3  A    between atoms: C_19  and  O_20
REMARK                            x       y       z     vdW  Elec       q    Type
REMARK                         _______ _______ _______ _____ _____    ______ ____
ROOT
ATOM      1  C   UNL     1       7.034   5.345  17.631  0.00  0.00    +0.000 C 
ATOM      2  C   UNL     1       5.828   5.519  16.676  0.00  0.00    +0.000 C 
ATOM      3  C   UNL     1       4.913   6.528  17.372  0.00  0.00    +0.000 C 
ATOM      4  C   UNL     1       4.266   5.892  18.608  0.00  0.00    +0.000 C 
ATOM      5  C   UNL     1       3.392   4.676  18.260  0.00  0.00    +0.000 C 
ATOM      6  C   UNL     1       2.744   4.001  19.462  0.00  0.00    +0.000 A 
ATOM      7  C   UNL     1       2.673   4.633  20.720  0.00  0.00    +0.000 A 
ATOM      8  C   UNL     1       2.025   4.039  21.800  0.00  0.00    +0.000 A 
ATOM      9  C   UNL     1       1.424   2.804  21.631  0.00  0.00    +0.000 A 
ATOM     10  C   UNL     1       1.475   2.153  20.398  0.00  0.00    +0.000 A 
ATOM     11  C   UNL     1       2.141   2.739  19.301  0.00  0.00    +0.000 A 
ATOM     12  C   UNL     1       2.238   1.978  17.994  0.00  0.00    +0.000 C 
ATOM     13  C   UNL     1       2.972   2.706  16.843  0.00  0.00    +0.000 C 
ATOM     14  C   UNL     1       4.111   3.620  17.366  0.00  0.00    +0.000 C 
ATOM     15  C   UNL     1       4.906   4.332  16.245  0.00  0.00    +0.000 C 
ATOM     16  C   UNL     1       5.729   3.543  15.231  0.00  0.00    +0.000 C 
ATOM     17  C   UNL     1       6.519   4.625  14.471  0.00  0.00    +0.000 C 
ATOM     18  C   UNL     1       6.429   5.923  15.304  0.00  0.00    +0.000 C 
ENDROOT
BRANCH   9  19
ATOM     19  O   UNL     1       0.778   2.197  22.662  0.00  0.00    +0.000 OA
ATOM     20  H   UNL     1      -0.139   2.013  22.395  0.00  0.00    +0.000 HD
ENDBRANCH   9  19
BRANCH  18  21
ATOM     21  O   UNL     1       5.609   6.869  14.630  0.00  0.00    +0.000 OA
ATOM     22  H   UNL     1       5.740   7.735  15.050  0.00  0.00    +0.000 HD
ENDBRANCH  18  21
TORSDOF 2
ENDMDL
MODEL 6
REMARK VINA RESULT:      -6.7      2.497      3.940
REMARK  Name = 
REMARK  3 active torsions:
REMARK  status: ('A' for Active; 'I' for Inactive)
REMARK    1  A    between atoms: C_1  and  C_2
REMARK    2  A    between atoms: C_9  and  O_10
REMARK    3  A    between atoms: C_19  and  O_20
REMARK                            x       y       z     vdW  Elec       q    Type
REMARK                         _______ _______ _______ _____ _____    ______ ____
ROOT
ATOM      1  C   UNL     1       6.841   7.570  17.418  0.00  0.00    +0.000 C 
ATOM      2  C   UNL     1       5.979   6.361  16.977  0.00  0.00    +0.000 C 
ATOM      3  C   UNL     1       4.823   6.968  16.183  0.00  0.00    +0.000 C 
ATOM      4  C   UNL     1       3.874   7.725  17.120  0.00  0.00    +0.000 C 
ATOM      5  C   UNL     1       3.243   6.815  18.186  0.00  0.00    +0.000 C 
ATOM      6  C   UNL     1       2.307   7.530  19.152  0.00  0.00    +0.000 A 
ATOM      7  C   UNL     1       1.805   8.819  18.882  0.00  0.00    +0.000 A 
ATOM      8  C   UNL     1       0.900   9.444  19.737  0.00  0.00    +0.000 A 
ATOM      9  C   UNL     1       0.474   8.779  20.873  0.00  0.00    +0.000 A 
ATOM     10  C   UNL     1       0.952   7.501  21.167  0.00  0.00    +0.000 A 
ATOM     11  C   UNL     1       1.878   6.864  20.315  0.00  0.00    +0.000 A 
ATOM     12  C   UNL     1       2.431   5.505  20.697  0.00  0.00    +0.000 C 
ATOM     13  C   UNL     1       3.428   4.877  19.695  0.00  0.00    +0.000 C 
ATOM     14  C   UNL     1       4.278   5.953  18.970  0.00  0.00    +0.000 C 
ATOM     15  C   UNL     1       5.326   5.367  17.993  0.00  0.00    +0.000 C 
ATOM     16  C   UNL     1       6.478   4.499  18.489  0.00  0.00    +0.000 C 
ATOM     17  C   UNL     1       7.381   4.338  17.253  0.00  0.00    +0.000 C 
ATOM     18  C   UNL     1       6.943   5.405  16.226  0.00  0.00    +0.000 C 
ENDROOT
BRANCH   9  19
ATOM     19  O   UNL     1      -0.412   9.357  21.727  0.00  0.00    +0.000 OA
ATOM     20  H   UNL     1      -0.979   8.664  22.107  0.00  0.00    +0.000 HD
ENDBRANCH   9  19
BRANCH  18  21
ATOM     21  O   UNL     1       6.304   4.776  15.123  0.00  0.00    +0.000 OA
ATOM     22  H   UNL     1       5.349   4.751  15.302  0.00  0.00    +0.000 HD
ENDBRANCH  18  21
TORSDOF 2
ENDMDL
MODEL 7
REMARK VINA RESULT:      -6.5      1.253      1.546
REMARK  Name = 
REMARK  3 active torsions:
REMARK  status: ('A' for Active; 'I' for Inactive)
REMARK    1  A    between atoms: C_1  and  C_2
REMARK    2  A    between atoms: C_9  and  O_10
REMARK    3  A    between atoms: C_19  and  O_20
REMARK                            x       y       z     vdW  Elec       q    Type
REMARK                         _______ _______ _______ _____ _____    ______ ____
ROOT
ATOM      1  C   UNL     1       2.498   3.446  18.157  0.00  0.00    +0.000 C 
ATOM      2  C   UNL     1       3.768   4.314  18.329  0.00  0.00    +0.000 C 
ATOM      3  C   UNL     1       3.830   4.634  19.823  0.00  0.00    +0.000 C 
ATOM      4  C   UNL     1       2.710   5.609  20.204  0.00  0.00    +0.000 C 
ATOM      5  C   UNL     1       2.817   6.953  19.464  0.00  0.00    +0.000 C 
ATOM      6  C   UNL     1       1.712   7.947  19.799  0.00  0.00    +0.000 A 
ATOM      7  C   UNL     1       0.882   7.781  20.925  0.00  0.00    +0.000 A 
ATOM      8  C   UNL     1      -0.086   8.724  21.264  0.00  0.00    +0.000 A 
ATOM      9  C   UNL     1      -0.226   9.858  20.482  0.00  0.00    +0.000 A 
ATOM     10  C   UNL     1       0.582  10.051  19.362  0.00  0.00    +0.000 A 
ATOM     11  C   UNL     1       1.556   9.096  19.002  0.00  0.00    +0.000 A 
ATOM     12  C   UNL     1       2.372   9.301  17.741  0.00  0.00    +0.000 C 
ATOM     13  C   UNL     1       3.426   8.211  17.436  0.00  0.00    +0.000 C 
ATOM     14  C   UNL     1       2.970   6.810  17.919  0.00  0.00    +0.000 C 
ATOM     15  C   UNL     1       3.973   5.678  17.590  0.00  0.00    +0.000 C 
ATOM     16  C   UNL     1       4.299   5.298  16.149  0.00  0.00    +0.000 C 
ATOM     17  C   UNL     1       5.131   4.010  16.282  0.00  0.00    +0.000 C 
ATOM     18  C   UNL     1       4.931   3.486  17.722  0.00  0.00    +0.000 C 
ENDROOT
BRANCH   9  19
ATOM     19  O   UNL     1      -1.157  10.801  20.786  0.00  0.00    +0.000 OA
ATOM     20  H   UNL     1      -1.739  10.456  21.484  0.00  0.00    +0.000 HD
ENDBRANCH   9  19
BRANCH  18  21
ATOM     21  O   UNL     1       6.134   3.650  18.463  0.00  0.00    +0.000 OA
ATOM     22  H   UNL     1       6.544   4.488  18.192  0.00  0.00    +0.000 HD
ENDBRANCH  18  21
TORSDOF 2
ENDMDL
MODEL 8
REMARK VINA RESULT:      -6.5      1.365      3.015
REMARK  Name = 
REMARK  3 active torsions:
REMARK  status: ('A' for Active; 'I' for Inactive)
REMARK    1  A    between atoms: C_1  and  C_2
REMARK    2  A    between atoms: C_9  and  O_10
REMARK    3  A    between atoms: C_19  and  O_20
REMARK                            x       y       z     vdW  Elec       q    Type
REMARK                         _______ _______ _______ _____ _____    ______ ____
ROOT
ATOM      1  C   UNL     1       4.769   4.893  19.248  0.00  0.00    +0.000 C 
ATOM      2  C   UNL     1       3.268   4.519  19.180  0.00  0.00    +0.000 C 
ATOM      3  C   UNL     1       2.790   5.042  17.825  0.00  0.00    +0.000 C 
ATOM      4  C   UNL     1       2.748   6.574  17.832  0.00  0.00    +0.000 C 
ATOM      5  C   UNL     1       1.779   7.136  18.884  0.00  0.00    +0.000 C 
ATOM      6  C   UNL     1       1.719   8.657  18.939  0.00  0.00    +0.000 A 
ATOM      7  C   UNL     1       2.237   9.458  17.901  0.00  0.00    +0.000 A 
ATOM      8  C   UNL     1       2.125  10.846  17.925  0.00  0.00    +0.000 A 
ATOM      9  C   UNL     1       1.478  11.453  18.987  0.00  0.00    +0.000 A 
ATOM     10  C   UNL     1       0.955  10.688  20.030  0.00  0.00    +0.000 A 
ATOM     11  C   UNL     1       1.074   9.283  20.022  0.00  0.00    +0.000 A 
ATOM     12  C   UNL     1       0.555   8.483  21.202  0.00  0.00    +0.000 C 
ATOM     13  C   UNL     1       0.715   6.948  21.098  0.00  0.00    +0.000 C 
ATOM     14  C   UNL     1       1.991   6.549  20.313  0.00  0.00    +0.000 C 
ATOM     15  C   UNL     1       2.219   5.020  20.227  0.00  0.00    +0.000 C 
ATOM     16  C   UNL     1       2.480   4.183  21.476  0.00  0.00    +0.000 C 
ATOM     17  C   UNL     1       2.875   2.802  20.922  0.00  0.00    +0.000 C 
ATOM     18  C   UNL     1       3.202   2.989  19.424  0.00  0.00    +0.000 C 
ENDROOT
BRANCH   9  19
ATOM     19  O   UNL     1       1.346  12.805  19.041  0.00  0.00    +0.000 OA
ATOM     20  H   UNL     1       2.186  13.192  19.344  0.00  0.00    +0.000 HD
ENDBRANCH   9  19
BRANCH  18  21
ATOM     21  O   UNL     1       2.193   2.375  18.632  0.00  0.00    +0.000 OA
ATOM     22  H   UNL     1       1.957   1.529  19.048  0.00  0.00    +0.000 HD
ENDBRANCH  18  21
TORSDOF 2
ENDMDL
MODEL 9
REMARK VINA RESULT:      -6.4      9.545     11.632
REMARK  Name = 
REMARK  3 active torsions:
REMARK  status: ('A' for Active; 'I' for Inactive)
REMARK    1  A    between atoms: C_1  and  C_2
REMARK    2  A    between atoms: C_9  and  O_10
REMARK    3  A    between atoms: C_19  and  O_20
REMARK                            x       y       z     vdW  Elec       q    Type
REMARK                         _______ _______ _______ _____ _____    ______ ____
ROOT
ATOM      1  C   UNL     1       7.056  14.836  23.209  0.00  0.00    +0.000 C 
ATOM      2  C   UNL     1       8.175  13.878  23.685  0.00  0.00    +0.000 C 
ATOM      3  C   UNL     1       9.473  14.666  23.508  0.00  0.00    +0.000 C 
ATOM      4  C   UNL     1       9.793  14.832  22.018  0.00  0.00    +0.000 C 
ATOM      5  C   UNL     1       9.997  13.488  21.301  0.00  0.00    +0.000 C 
ATOM      6  C   UNL     1      10.299  13.606  19.812  0.00  0.00    +0.000 A 
ATOM      7  C   UNL     1      10.694  14.828  19.230  0.00  0.00    +0.000 A 
ATOM      8  C   UNL     1      11.030  14.918  17.881  0.00  0.00    +0.000 A 
ATOM      9  C   UNL     1      10.987  13.779  17.097  0.00  0.00    +0.000 A 
ATOM     10  C   UNL     1      10.602  12.555  17.644  0.00  0.00    +0.000 A 
ATOM     11  C   UNL     1      10.247  12.454  19.005  0.00  0.00    +0.000 A 
ATOM     12  C   UNL     1       9.767  11.125  19.555  0.00  0.00    +0.000 C 
ATOM     13  C   UNL     1       9.415  11.107  21.061  0.00  0.00    +0.000 C 
ATOM     14  C   UNL     1       8.844  12.466  21.542  0.00  0.00    +0.000 C 
ATOM     15  C   UNL     1       8.431  12.479  23.033  0.00  0.00    +0.000 C 
ATOM     16  C   UNL     1       7.304  11.591  23.554  0.00  0.00    +0.000 C 
ATOM     17  C   UNL     1       7.078  12.083  24.995  0.00  0.00    +0.000 C 
ATOM     18  C   UNL     1       7.784  13.452  25.124  0.00  0.00    +0.000 C 
ENDROOT
BRANCH   9  19
ATOM     19  O   UNL     1      11.314  13.830  15.778  0.00  0.00    +0.000 OA
ATOM     20  H   UNL     1      10.518  14.054  15.265  0.00  0.00    +0.000 HD
ENDBRANCH   9  19
BRANCH  18  21
ATOM     21  O   UNL     1       8.925  13.326  25.963  0.00  0.00    +0.000 OA
ATOM     22  H   UNL     1       8.617  13.145  26.866  0.00  0.00    +0.000 HD
ENDBRANCH  18  21
TORSDOF 2
ENDMDL
