MODEL 1
REMARK VINA RESULT:      -7.3      0.000      0.000
REMARK  Name = 
REMARK  9 active torsions:
REMARK  status: ('A' for Active; 'I' for Inactive)
REMARK    1  A    between atoms: C_1  and  C_2
REMARK    2  A    between atoms: C_2  and  C_3
REMARK    3  A    between atoms: C_2  and  O_4
REMARK    4  A    between atoms: C_2  and  C_5
REMARK    5  A    between atoms: C_5  and  N_6
REMARK    6  A    between atoms: N_10  and  C_11
REMARK    7  A    between atoms: C_16  and  C_17
REMARK    8  A    between atoms: C_21  and  C_22
REMARK    9  A    between atoms: C_26  and  C_27
REMARK                            x       y       z     vdW  Elec       q    Type
REMARK                         _______ _______ _______ _____ _____    ______ ____
ROOT
ATOM      1  N   UNL     1       1.710   9.938  17.721  0.00  0.00    +0.000 N 
ATOM      2  C   UNL     1       2.325   8.753  18.101  0.00  0.00    +0.000 A 
ATOM      3  N   UNL     1       1.802   8.040  19.090  0.00  0.00    +0.000 NA
ATOM      4  C   UNL     1       2.417   6.904  19.392  0.00  0.00    +0.000 A 
ATOM      5  N   UNL     1       1.914   6.142  20.453  0.00  0.00    +0.000 N 
ATOM      6  N   UNL     1       3.479   6.450  18.744  0.00  0.00    +0.000 NA
ATOM      7  C   UNL     1       3.947   7.239  17.788  0.00  0.00    +0.000 A 
ATOM      8  N   UNL     1       3.396   8.405  17.435  0.00  0.00    +0.000 NA
ATOM      9  H   UNL     1       2.415  10.683  17.737  0.00  0.00    +0.000 HD
ATOM     10  H   UNL     1       1.085   6.581  20.827  0.00  0.00    +0.000 HD
ENDROOT
BRANCH   5  11
ATOM     11  C   UNL     1       1.897   4.731  20.483  0.00  0.00    +0.000 A 
ATOM     12  C   UNL     1       0.798   4.038  19.974  0.00  0.00    +0.000 A 
ATOM     13  C   UNL     1       0.844   2.643  19.874  0.00  0.00    +0.000 A 
ATOM     14  F   UNL     1      -0.195   1.993  19.335  0.00  0.00    +0.000 F 
ATOM     15  C   UNL     1       1.969   1.931  20.252  0.00  0.00    +0.000 A 
ATOM     16  C   UNL     1       3.064   2.606  20.791  0.00  0.00    +0.000 A 
ATOM     17  C   UNL     1       3.011   4.001  20.918  0.00  0.00    +0.000 A 
BRANCH  16  18
ATOM     18  C   UNL     1       4.254   1.899  21.144  0.00  0.00    +0.000 C 
ATOM     19  N   UNL     1       5.214   1.327  21.464  0.00  0.00    +0.000 NA
ENDBRANCH  16  18
ENDBRANCH   5  11
BRANCH   7  20
ATOM     20  C   UNL     1       5.169   6.838  17.069  0.00  0.00    +0.000 A 
ATOM     21  C   UNL     1       6.384   7.461  17.337  0.00  0.00    +0.000 A 
ATOM     22  C   UNL     1       7.518   7.078  16.646  0.00  0.00    +0.000 A 
ATOM     23  C   UNL     1       7.421   6.080  15.691  0.00  0.00    +0.000 A 
ATOM     24  C   UNL     1       6.184   5.476  15.449  0.00  0.00    +0.000 A 
ATOM     25  N   UNL     1       5.067   5.841  16.140  0.00  0.00    +0.000 NA
BRANCH  24  26
ATOM     26  C   UNL     1       6.064   4.398  14.374  0.00  0.00    +0.000 C 
ATOM     27  F   UNL     1       6.284   3.138  14.860  0.00  0.00    +0.000 F 
ATOM     28  F   UNL     1       4.830   4.349  13.795  0.00  0.00    +0.000 F 
ATOM     29  F   UNL     1       6.957   4.551  13.357  0.00  0.00    +0.000 F 
ENDBRANCH  24  26
ENDBRANCH   7  20
BRANCH   1  30
ATOM     30  C   UNL     1       0.509  10.303  18.461  0.00  0.00    +0.000 C 
BRANCH  30  32
ATOM     31  C   UNL     1       1.107  12.006  20.229  0.00  0.00    +0.000 C 
ATOM     32  C   UNL     1       0.539  11.809  18.822  0.00  0.00    +0.000 C 
ATOM     33  C   UNL     1      -0.850  12.445  18.724  0.00  0.00    +0.000 C 
BRANCH  32  34
ATOM     34  O   UNL     1       1.415  12.472  17.895  0.00  0.00    +0.000 OA
ATOM     35  H   UNL     1       0.910  12.636  17.081  0.00  0.00    +0.000 HD
ENDBRANCH  32  34
ENDBRANCH  30  32
ENDBRANCH   1  30
TORSDOF 7
ENDMDL
MODEL 2
REMARK VINA RESULT:      -7.0      6.001      9.913
REMARK  Name = 
REMARK  9 active torsions:
REMARK  status: ('A' for Active; 'I' for Inactive)
REMARK    1  A    between atoms: C_1  and  C_2
REMARK    2  A    between atoms: C_2  and  C_3
REMARK    3  A    between atoms: C_2  and  O_4
REMARK    4  A    between atoms: C_2  and  C_5
REMARK    5  A    between atoms: C_5  and  N_6
REMARK    6  A    between atoms: N_10  and  C_11
REMARK    7  A    between atoms: C_16  and  C_17
REMARK    8  A    between atoms: C_21  and  C_22
REMARK    9  A    between atoms: C_26  and  C_27
REMARK                            x       y       z     vdW  Elec       q    Type
REMARK                         _______ _______ _______ _____ _____    ______ ____
ROOT
ATOM      1  N   UNL     1       1.973   8.419  17.598  0.00  0.00    +0.000 N 
ATOM      2  C   UNL     1       0.918   9.056  18.235  0.00  0.00    +0.000 A 
ATOM      3  N   UNL     1       0.998   9.300  19.537  0.00  0.00    +0.000 NA
ATOM      4  C   UNL     1      -0.030   9.935  20.086  0.00  0.00    +0.000 A 
ATOM      5  N   UNL     1       0.006  10.179  21.464  0.00  0.00    +0.000 N 
ATOM      6  N   UNL     1      -1.084  10.351  19.403  0.00  0.00    +0.000 NA
ATOM      7  C   UNL     1      -1.091  10.042  18.115  0.00  0.00    +0.000 A 
ATOM      8  N   UNL     1      -0.105   9.391  17.490  0.00  0.00    +0.000 NA
ATOM      9  H   UNL     1       1.600   7.607  17.094  0.00  0.00    +0.000 HD
ATOM     10  H   UNL     1       0.879   9.848  21.848  0.00  0.00    +0.000 HD
ENDROOT
BRANCH   5  11
ATOM     11  C   UNL     1      -0.506  11.340  22.081  0.00  0.00    +0.000 A 
ATOM     12  C   UNL     1       0.085  12.579  21.828  0.00  0.00    +0.000 A 
ATOM     13  C   UNL     1      -0.510  13.744  22.324  0.00  0.00    +0.000 A 
ATOM     14  F   UNL     1       0.036  14.931  22.031  0.00  0.00    +0.000 F 
ATOM     15  C   UNL     1      -1.688  13.699  23.049  0.00  0.00    +0.000 A 
ATOM     16  C   UNL     1      -2.275  12.466  23.336  0.00  0.00    +0.000 A 
ATOM     17  C   UNL     1      -1.668  11.295  22.863  0.00  0.00    +0.000 A 
BRANCH  16  18
ATOM     18  C   UNL     1      -3.515  12.397  24.041  0.00  0.00    +0.000 C 
ATOM     19  N   UNL     1      -4.525  12.307  24.609  0.00  0.00    +0.000 NA
ENDBRANCH  16  18
ENDBRANCH   5  11
BRANCH   7  20
ATOM     20  C   UNL     1      -2.264  10.408  17.301  0.00  0.00    +0.000 A 
ATOM     21  C   UNL     1      -2.301  10.115  15.942  0.00  0.00    +0.000 A 
ATOM     22  C   UNL     1      -3.406  10.474  15.193  0.00  0.00    +0.000 A 
ATOM     23  C   UNL     1      -4.457  11.127  15.812  0.00  0.00    +0.000 A 
ATOM     24  C   UNL     1      -4.386  11.406  17.180  0.00  0.00    +0.000 A 
ATOM     25  N   UNL     1      -3.303  11.039  17.925  0.00  0.00    +0.000 NA
BRANCH  24  26
ATOM     26  C   UNL     1      -5.527  12.156  17.862  0.00  0.00    +0.000 C 
ATOM     27  F   UNL     1      -5.954  13.239  17.144  0.00  0.00    +0.000 F 
ATOM     28  F   UNL     1      -6.639  11.390  18.051  0.00  0.00    +0.000 F 
ATOM     29  F   UNL     1      -5.190  12.649  19.088  0.00  0.00    +0.000 F 
ENDBRANCH  24  26
ENDBRANCH   7  20
BRANCH   1  30
ATOM     30  C   UNL     1       3.111   8.068  18.438  0.00  0.00    +0.000 C 
BRANCH  30  32
ATOM     31  C   UNL     1       4.527   5.988  18.200  0.00  0.00    +0.000 C 
ATOM     32  C   UNL     1       3.169   6.534  18.646  0.00  0.00    +0.000 C 
ATOM     33  C   UNL     1       2.044   5.816  17.895  0.00  0.00    +0.000 C 
BRANCH  32  34
ATOM     34  O   UNL     1       3.026   6.269  20.051  0.00  0.00    +0.000 OA
ATOM     35  H   UNL     1       3.089   7.121  20.517  0.00  0.00    +0.000 HD
ENDBRANCH  32  34
ENDBRANCH  30  32
ENDBRANCH   1  30
TORSDOF 7
ENDMDL
MODEL 3
REMARK VINA RESULT:      -7.0      2.301      5.879
REMARK  Name = 
REMARK  9 active torsions:
REMARK  status: ('A' for Active; 'I' for Inactive)
REMARK    1  A    between atoms: C_1  and  C_2
REMARK    2  A    between atoms: C_2  and  C_3
REMARK    3  A    between atoms: C_2  and  O_4
REMARK    4  A    between atoms: C_2  and  C_5
REMARK    5  A    between atoms: C_5  and  N_6
REMARK    6  A    between atoms: N_10  and  C_11
REMARK    7  A    between atoms: C_16  and  C_17
REMARK    8  A    between atoms: C_21  and  C_22
REMARK    9  A    between atoms: C_26  and  C_27
REMARK                            x       y       z     vdW  Elec       q    Type
REMARK                         _______ _______ _______ _____ _____    ______ ____
ROOT
ATOM      1  N   UNL     1       1.071   9.151  20.267  0.00  0.00    +0.000 N 
ATOM      2  C   UNL     1       1.748   8.113  19.642  0.00  0.00    +0.000 A 
ATOM      3  N   UNL     1       2.420   8.358  18.524  0.00  0.00    +0.000 NA
ATOM      4  C   UNL     1       3.069   7.332  17.987  0.00  0.00    +0.000 A 
ATOM      5  N   UNL     1       3.762   7.545  16.789  0.00  0.00    +0.000 N 
ATOM      6  N   UNL     1       3.100   6.122  18.521  0.00  0.00    +0.000 NA
ATOM      7  C   UNL     1       2.381   5.964  19.622  0.00  0.00    +0.000 A 
ATOM      8  N   UNL     1       1.686   6.939  20.217  0.00  0.00    +0.000 NA
ATOM      9  H   UNL     1       0.098   8.859  20.409  0.00  0.00    +0.000 HD
ATOM     10  H   UNL     1       3.688   8.515  16.518  0.00  0.00    +0.000 HD
ENDROOT
BRANCH   5  11
ATOM     11  C   UNL     1       4.989   6.933  16.458  0.00  0.00    +0.000 A 
ATOM     12  C   UNL     1       6.089   7.082  17.303  0.00  0.00    +0.000 A 
ATOM     13  C   UNL     1       7.261   6.359  17.050  0.00  0.00    +0.000 A 
ATOM     14  F   UNL     1       8.291   6.469  17.897  0.00  0.00    +0.000 F 
ATOM     15  C   UNL     1       7.348   5.480  15.985  0.00  0.00    +0.000 A 
ATOM     16  C   UNL     1       6.267   5.342  15.114  0.00  0.00    +0.000 A 
ATOM     17  C   UNL     1       5.102   6.084  15.349  0.00  0.00    +0.000 A 
BRANCH  16  18
ATOM     18  C   UNL     1       6.315   4.405  14.036  0.00  0.00    +0.000 C 
ATOM     19  N   UNL     1       6.388   3.648  13.157  0.00  0.00    +0.000 NA
ENDBRANCH  16  18
ENDBRANCH   5  11
BRANCH   7  20
ATOM     20  C   UNL     1       2.306   4.626  20.237  0.00  0.00    +0.000 A 
ATOM     21  C   UNL     1       1.157   4.219  20.907  0.00  0.00    +0.000 A 
ATOM     22  C   UNL     1       1.108   2.965  21.486  0.00  0.00    +0.000 A 
ATOM     23  C   UNL     1       2.212   2.136  21.392  0.00  0.00    +0.000 A 
ATOM     24  C   UNL     1       3.350   2.577  20.711  0.00  0.00    +0.000 A 
ATOM     25  N   UNL     1       3.395   3.809  20.126  0.00  0.00    +0.000 NA
BRANCH  24  26
ATOM     26  C   UNL     1       4.583   1.681  20.633  0.00  0.00    +0.000 C 
ATOM     27  F   UNL     1       5.728   2.377  20.356  0.00  0.00    +0.000 F 
ATOM     28  F   UNL     1       4.841   1.015  21.794  0.00  0.00    +0.000 F 
ATOM     29  F   UNL     1       4.497   0.732  19.659  0.00  0.00    +0.000 F 
ENDBRANCH  24  26
ENDBRANCH   7  20
BRANCH   1  30
ATOM     30  C   UNL     1       1.164  10.455  19.624  0.00  0.00    +0.000 C 
BRANCH  30  32
ATOM     31  C   UNL     1      -0.286  12.253  18.599  0.00  0.00    +0.000 C 
ATOM     32  C   UNL     1      -0.125  10.747  18.817  0.00  0.00    +0.000 C 
ATOM     33  C   UNL     1      -1.369  10.184  19.510  0.00  0.00    +0.000 C 
BRANCH  32  34
ATOM     34  O   UNL     1       0.005  10.125  17.528  0.00  0.00    +0.000 OA
ATOM     35  H   UNL     1       0.650   9.402  17.616  0.00  0.00    +0.000 HD
ENDBRANCH  32  34
ENDBRANCH  30  32
ENDBRANCH   1  30
TORSDOF 7
ENDMDL
MODEL 4
REMARK VINA RESULT:      -7.0      3.931      7.374
REMARK  Name = 
REMARK  9 active torsions:
REMARK  status: ('A' for Active; 'I' for Inactive)
REMARK    1  A    between atoms: C_1  and  C_2
REMARK    2  A    between atoms: C_2  and  C_3
REMARK    3  A    between atoms: C_2  and  O_4
REMARK    4  A    between atoms: C_2  and  C_5
REMARK    5  A    between atoms: C_5  and  N_6
REMARK    6  A    between atoms: N_10  and  C_11
REMARK    7  A    between atoms: C_16  and  C_17
REMARK    8  A    between atoms: C_21  and  C_22
REMARK    9  A    between atoms: C_26  and  C_27
REMARK                            x       y       z     vdW  Elec       q    Type
REMARK                         _______ _______ _______ _____ _____    ______ ____
ROOT
ATOM      1  N   UNL     1       3.291  13.510  17.993  0.00  0.00    +0.000 N 
ATOM      2  C   UNL     1       2.245  12.637  18.257  0.00  0.00    +0.000 A 
ATOM      3  N   UNL     1       1.003  13.103  18.284  0.00  0.00    +0.000 NA
ATOM      4  C   UNL     1       0.042  12.218  18.516  0.00  0.00    +0.000 A 
ATOM      5  N   UNL     1      -1.278  12.679  18.584  0.00  0.00    +0.000 N 
ATOM      6  N   UNL     1       0.262  10.923  18.683  0.00  0.00    +0.000 NA
ATOM      7  C   UNL     1       1.534  10.552  18.665  0.00  0.00    +0.000 A 
ATOM      8  N   UNL     1       2.560  11.382  18.455  0.00  0.00    +0.000 NA
ATOM      9  H   UNL     1       3.984  13.416  18.743  0.00  0.00    +0.000 HD
ATOM     10  H   UNL     1      -1.304  13.671  18.399  0.00  0.00    +0.000 HD
ENDROOT
BRANCH   5  11
ATOM     11  C   UNL     1      -2.398  11.962  18.113  0.00  0.00    +0.000 A 
ATOM     12  C   UNL     1      -3.553  11.889  18.893  0.00  0.00    +0.000 A 
ATOM     13  C   UNL     1      -4.709  11.302  18.366  0.00  0.00    +0.000 A 
ATOM     14  F   UNL     1      -5.827  11.285  19.103  0.00  0.00    +0.000 F 
ATOM     15  C   UNL     1      -4.740  10.807  17.074  0.00  0.00    +0.000 A 
ATOM     16  C   UNL     1      -3.585  10.846  16.292  0.00  0.00    +0.000 A 
ATOM     17  C   UNL     1      -2.418  11.408  16.827  0.00  0.00    +0.000 A 
BRANCH  16  18
ATOM     18  C   UNL     1      -3.605  10.385  14.941  0.00  0.00    +0.000 C 
ATOM     19  N   UNL     1      -3.615   9.978  13.852  0.00  0.00    +0.000 NA
ENDBRANCH  16  18
ENDBRANCH   5  11
BRANCH   7  20
ATOM     20  C   UNL     1       1.866   9.138  18.916  0.00  0.00    +0.000 A 
ATOM     21  C   UNL     1       1.314   8.463  20.000  0.00  0.00    +0.000 A 
ATOM     22  C   UNL     1       1.643   7.140  20.225  0.00  0.00    +0.000 A 
ATOM     23  C   UNL     1       2.526   6.510  19.365  0.00  0.00    +0.000 A 
ATOM     24  C   UNL     1       3.061   7.218  18.285  0.00  0.00    +0.000 A 
ATOM     25  N   UNL     1       2.725   8.519  18.052  0.00  0.00    +0.000 NA
BRANCH  24  26
ATOM     26  C   UNL     1       4.060   6.539  17.352  0.00  0.00    +0.000 C 
ATOM     27  F   UNL     1       3.702   5.258  17.032  0.00  0.00    +0.000 F 
ATOM     28  F   UNL     1       4.204   7.180  16.157  0.00  0.00    +0.000 F 
ATOM     29  F   UNL     1       5.311   6.438  17.884  0.00  0.00    +0.000 F 
ENDBRANCH  24  26
ENDBRANCH   7  20
BRANCH   1  30
ATOM     30  C   UNL     1       2.923  14.900  17.757  0.00  0.00    +0.000 C 
BRANCH  30  32
ATOM     31  C   UNL     1       5.333  15.450  18.283  0.00  0.00    +0.000 C 
ATOM     32  C   UNL     1       3.875  15.844  18.531  0.00  0.00    +0.000 C 
ATOM     33  C   UNL     1       3.581  15.841  20.034  0.00  0.00    +0.000 C 
BRANCH  32  34
ATOM     34  O   UNL     1       3.686  17.177  18.028  0.00  0.00    +0.000 OA
ATOM     35  H   UNL     1       3.243  17.693  18.724  0.00  0.00    +0.000 HD
ENDBRANCH  32  34
ENDBRANCH  30  32
ENDBRANCH   1  30
TORSDOF 7
ENDMDL
MODEL 5
REMARK VINA RESULT:      -6.8      5.945      9.940
REMARK  Name = 
REMARK  9 active torsions:
REMARK  status: ('A' for Active; 'I' for Inactive)
REMARK    1  A    between atoms: C_1  and  C_2
REMARK    2  A    between atoms: C_2  and  C_3
REMARK    3  A    between atoms: C_2  and  O_4
REMARK    4  A    between atoms: C_2  and  C_5
REMARK    5  A    between atoms: C_5  and  N_6
REMARK    6  A    between atoms: N_10  and  C_11
REMARK    7  A    between atoms: C_16  and  C_17
REMARK    8  A    between atoms: C_21  and  C_22
REMARK    9  A    between atoms: C_26  and  C_27
REMARK                            x       y       z     vdW  Elec       q    Type
REMARK                         _______ _______ _______ _____ _____    ______ ____
ROOT
ATOM      1  N   UNL     1       1.897   8.376  17.618  0.00  0.00    +0.000 N 
ATOM      2  C   UNL     1       0.850   9.029  18.253  0.00  0.00    +0.000 A 
ATOM      3  N   UNL     1       0.927   9.264  19.556  0.00  0.00    +0.000 NA
ATOM      4  C   UNL     1      -0.092   9.915  20.103  0.00  0.00    +0.000 A 
ATOM      5  N   UNL     1      -0.061  10.150  21.483  0.00  0.00    +0.000 N 
ATOM      6  N   UNL     1      -1.133  10.356  19.416  0.00  0.00    +0.000 NA
ATOM      7  C   UNL     1      -1.138  10.056  18.126  0.00  0.00    +0.000 A 
ATOM      8  N   UNL     1      -0.161   9.390  17.503  0.00  0.00    +0.000 NA
ATOM      9  H   UNL     1       1.511   7.575  17.107  0.00  0.00    +0.000 HD
ATOM     10  H   UNL     1       0.803   9.799  21.871  0.00  0.00    +0.000 HD
ENDROOT
BRANCH   5  11
ATOM     11  C   UNL     1      -0.554  11.317  22.104  0.00  0.00    +0.000 A 
ATOM     12  C   UNL     1       0.061  12.546  21.860  0.00  0.00    +0.000 A 
ATOM     13  C   UNL     1      -0.514  13.720  22.360  0.00  0.00    +0.000 A 
ATOM     14  F   UNL     1       0.055  14.898  22.076  0.00  0.00    +0.000 F 
ATOM     15  C   UNL     1      -1.696  13.693  23.080  0.00  0.00    +0.000 A 
ATOM     16  C   UNL     1      -2.307  12.469  23.357  0.00  0.00    +0.000 A 
ATOM     17  C   UNL     1      -1.720  11.290  22.880  0.00  0.00    +0.000 A 
BRANCH  16  18
ATOM     18  C   UNL     1      -3.552  12.419  24.056  0.00  0.00    +0.000 C 
ATOM     19  N   UNL     1      -4.548  12.373  24.653  0.00  0.00    +0.000 NA
ENDBRANCH  16  18
ENDBRANCH   5  11
BRANCH   7  20
ATOM     20  C   UNL     1      -2.298  10.450  17.307  0.00  0.00    +0.000 A 
ATOM     21  C   UNL     1      -2.323  10.186  15.942  0.00  0.00    +0.000 A 
ATOM     22  C   UNL     1      -3.415  10.571  15.188  0.00  0.00    +0.000 A 
ATOM     23  C   UNL     1      -4.468  11.221  15.809  0.00  0.00    +0.000 A 
ATOM     24  C   UNL     1      -4.410  11.469  17.184  0.00  0.00    +0.000 A 
ATOM     25  N   UNL     1      -3.340  11.076  17.932  0.00  0.00    +0.000 NA
BRANCH  24  26
ATOM     26  C   UNL     1      -5.552  12.214  17.869  0.00  0.00    +0.000 C 
ATOM     27  F   UNL     1      -5.189  12.749  19.074  0.00  0.00    +0.000 F 
ATOM     28  F   UNL     1      -6.027  13.262  17.139  0.00  0.00    +0.000 F 
ATOM     29  F   UNL     1      -6.627  11.420  18.140  0.00  0.00    +0.000 F 
ENDBRANCH  24  26
ENDBRANCH   7  20
BRANCH   1  30
ATOM     30  C   UNL     1       3.022   7.997  18.463  0.00  0.00    +0.000 C 
BRANCH  30  32
ATOM     31  C   UNL     1       2.601   6.076  20.050  0.00  0.00    +0.000 C 
ATOM     32  C   UNL     1       3.063   6.460  18.642  0.00  0.00    +0.000 C 
ATOM     33  C   UNL     1       4.461   5.893  18.378  0.00  0.00    +0.000 C 
BRANCH  32  34
ATOM     34  O   UNL     1       2.146   5.877  17.702  0.00  0.00    +0.000 OA
ATOM     35  H   UNL     1       2.626   5.185  17.215  0.00  0.00    +0.000 HD
ENDBRANCH  32  34
ENDBRANCH  30  32
ENDBRANCH   1  30
TORSDOF 7
ENDMDL
MODEL 6
REMARK VINA RESULT:      -6.8      2.382      5.872
REMARK  Name = 
REMARK  9 active torsions:
REMARK  status: ('A' for Active; 'I' for Inactive)
REMARK    1  A    between atoms: C_1  and  C_2
REMARK    2  A    between atoms: C_2  and  C_3
REMARK    3  A    between atoms: C_2  and  O_4
REMARK    4  A    between atoms: C_2  and  C_5
REMARK    5  A    between atoms: C_5  and  N_6
REMARK    6  A    between atoms: N_10  and  C_11
REMARK    7  A    between atoms: C_16  and  C_17
REMARK    8  A    between atoms: C_21  and  C_22
REMARK    9  A    between atoms: C_26  and  C_27
REMARK                            x       y       z     vdW  Elec       q    Type
REMARK                         _______ _______ _______ _____ _____    ______ ____
ROOT
ATOM      1  N   UNL     1       0.843   9.029  20.563  0.00  0.00    +0.000 N 
ATOM      2  C   UNL     1       1.573   8.049  19.905  0.00  0.00    +0.000 A 
ATOM      3  N   UNL     1       2.238   8.366  18.802  0.00  0.00    +0.000 NA
ATOM      4  C   UNL     1       2.939   7.394  18.232  0.00  0.00    +0.000 A 
ATOM      5  N   UNL     1       3.627   7.684  17.048  0.00  0.00    +0.000 N 
ATOM      6  N   UNL     1       3.026   6.168  18.722  0.00  0.00    +0.000 NA
ATOM      7  C   UNL     1       2.309   5.934  19.811  0.00  0.00    +0.000 A 
ATOM      8  N   UNL     1       1.565   6.852  20.437  0.00  0.00    +0.000 NA
ATOM      9  H   UNL     1      -0.115   8.685  20.687  0.00  0.00    +0.000 HD
ATOM     10  H   UNL     1       3.508   8.659  16.812  0.00  0.00    +0.000 HD
ENDROOT
BRANCH   5  11
ATOM     11  C   UNL     1       4.884   7.144  16.703  0.00  0.00    +0.000 A 
ATOM     12  C   UNL     1       6.004   7.442  17.481  0.00  0.00    +0.000 A 
ATOM     13  C   UNL     1       7.218   6.795  17.225  0.00  0.00    +0.000 A 
ATOM     14  F   UNL     1       8.272   7.048  18.011  0.00  0.00    +0.000 F 
ATOM     15  C   UNL     1       7.330   5.845  16.225  0.00  0.00    +0.000 A 
ATOM     16  C   UNL     1       6.228   5.558  15.419  0.00  0.00    +0.000 A 
ATOM     17  C   UNL     1       5.018   6.224  15.656  0.00  0.00    +0.000 A 
BRANCH  16  18
ATOM     18  C   UNL     1       6.305   4.548  14.412  0.00  0.00    +0.000 C 
ATOM     19  N   UNL     1       6.350   3.707  13.611  0.00  0.00    +0.000 NA
ENDBRANCH  16  18
ENDBRANCH   5  11
BRANCH   7  20
ATOM     20  C   UNL     1       2.296   4.573  20.377  0.00  0.00    +0.000 A 
ATOM     21  C   UNL     1       1.197   4.117  21.097  0.00  0.00    +0.000 A 
ATOM     22  C   UNL     1       1.206   2.841  21.628  0.00  0.00    +0.000 A 
ATOM     23  C   UNL     1       2.318   2.039  21.436  0.00  0.00    +0.000 A 
ATOM     24  C   UNL     1       3.404   2.530  20.706  0.00  0.00    +0.000 A 
ATOM     25  N   UNL     1       3.391   3.783  20.168  0.00  0.00    +0.000 NA
BRANCH  24  26
ATOM     26  C   UNL     1       4.647   1.663  20.519  0.00  0.00    +0.000 C 
ATOM     27  F   UNL     1       5.718   2.367  20.044  0.00  0.00    +0.000 F 
ATOM     28  F   UNL     1       5.081   1.085  21.675  0.00  0.00    +0.000 F 
ATOM     29  F   UNL     1       4.464   0.646  19.629  0.00  0.00    +0.000 F 
ENDBRANCH  24  26
ENDBRANCH   7  20
BRANCH   1  30
ATOM     30  C   UNL     1       0.876  10.359  19.969  0.00  0.00    +0.000 C 
BRANCH  30  32
ATOM     31  C   UNL     1      -0.285  10.691  22.189  0.00  0.00    +0.000 C 
ATOM     32  C   UNL     1       0.197  11.383  20.912  0.00  0.00    +0.000 C 
ATOM     33  C   UNL     1      -0.973  12.096  20.229  0.00  0.00    +0.000 C 
BRANCH  32  34
ATOM     34  O   UNL     1       1.179  12.364  21.285  0.00  0.00    +0.000 OA
ATOM     35  H   UNL     1       2.012  11.893  21.460  0.00  0.00    +0.000 HD
ENDBRANCH  32  34
ENDBRANCH  30  32
ENDBRANCH   1  30
TORSDOF 7
ENDMDL
MODEL 7
REMARK VINA RESULT:      -6.7      4.054      7.562
REMARK  Name = 
REMARK  9 active torsions:
REMARK  status: ('A' for Active; 'I' for Inactive)
REMARK    1  A    between atoms: C_1  and  C_2
REMARK    2  A    between atoms: C_2  and  C_3
REMARK    3  A    between atoms: C_2  and  O_4
REMARK    4  A    between atoms: C_2  and  C_5
REMARK    5  A    between atoms: C_5  and  N_6
REMARK    6  A    between atoms: N_10  and  C_11
REMARK    7  A    between atoms: C_16  and  C_17
REMARK    8  A    between atoms: C_21  and  C_22
REMARK    9  A    between atoms: C_26  and  C_27
REMARK                            x       y       z     vdW  Elec       q    Type
REMARK                         _______ _______ _______ _____ _____    ______ ____
ROOT
ATOM      1  N   UNL     1       2.955  13.540  18.501  0.00  0.00    +0.000 N 
ATOM      2  C   UNL     1       1.893  12.666  18.688  0.00  0.00    +0.000 A 
ATOM      3  N   UNL     1       0.652  13.116  18.555  0.00  0.00    +0.000 NA
ATOM      4  C   UNL     1      -0.321  12.230  18.720  0.00  0.00    +0.000 A 
ATOM      5  N   UNL     1      -1.644  12.676  18.620  0.00  0.00    +0.000 N 
ATOM      6  N   UNL     1      -0.111  10.947  18.971  0.00  0.00    +0.000 NA
ATOM      7  C   UNL     1       1.158  10.592  19.112  0.00  0.00    +0.000 A 
ATOM      8  N   UNL     1       2.194  11.426  18.979  0.00  0.00    +0.000 NA
ATOM      9  H   UNL     1       3.561  13.489  19.327  0.00  0.00    +0.000 HD
ATOM     10  H   UNL     1      -1.658  13.658  18.386  0.00  0.00    +0.000 HD
ENDROOT
BRANCH   5  11
ATOM     11  C   UNL     1      -2.700  11.923  18.062  0.00  0.00    +0.000 A 
ATOM     12  C   UNL     1      -3.905  11.798  18.754  0.00  0.00    +0.000 A 
ATOM     13  C   UNL     1      -4.996  11.175  18.139  0.00  0.00    +0.000 A 
ATOM     14  F   UNL     1      -6.163  11.107  18.791  0.00  0.00    +0.000 F 
ATOM     15  C   UNL     1      -4.914  10.694  16.843  0.00  0.00    +0.000 A 
ATOM     16  C   UNL     1      -3.708  10.786  16.148  0.00  0.00    +0.000 A 
ATOM     17  C   UNL     1      -2.605  11.385  16.772  0.00  0.00    +0.000 A 
BRANCH  16  18
ATOM     18  C   UNL     1      -3.611  10.341  14.794  0.00  0.00    +0.000 C 
ATOM     19  N   UNL     1      -3.560   9.996  13.686  0.00  0.00    +0.000 NA
ENDBRANCH  16  18
ENDBRANCH   5  11
BRANCH   7  20
ATOM     20  C   UNL     1       1.471   9.196  19.464  0.00  0.00    +0.000 A 
ATOM     21  C   UNL     1       1.004   8.644  20.653  0.00  0.00    +0.000 A 
ATOM     22  C   UNL     1       1.315   7.335  20.971  0.00  0.00    +0.000 A 
ATOM     23  C   UNL     1       2.095   6.597  20.098  0.00  0.00    +0.000 A 
ATOM     24  C   UNL     1       2.546   7.183  18.912  0.00  0.00    +0.000 A 
ATOM     25  N   UNL     1       2.228   8.469  18.589  0.00  0.00    +0.000 NA
BRANCH  24  26
ATOM     26  C   UNL     1       3.434   6.385  17.961  0.00  0.00    +0.000 C 
ATOM     27  F   UNL     1       4.581   5.937  18.556  0.00  0.00    +0.000 F 
ATOM     28  F   UNL     1       2.827   5.268  17.466  0.00  0.00    +0.000 F 
ATOM     29  F   UNL     1       3.848   7.104  16.880  0.00  0.00    +0.000 F 
ENDBRANCH  24  26
ENDBRANCH   7  20
BRANCH   1  30
ATOM     30  C   UNL     1       2.604  14.912  18.161  0.00  0.00    +0.000 C 
BRANCH  30  32
ATOM     31  C   UNL     1       2.421  17.113  19.388  0.00  0.00    +0.000 C 
ATOM     32  C   UNL     1       3.314  15.899  19.120  0.00  0.00    +0.000 C 
ATOM     33  C   UNL     1       4.666  16.357  18.565  0.00  0.00    +0.000 C 
BRANCH  32  34
ATOM     34  O   UNL     1       3.533  15.227  20.370  0.00  0.00    +0.000 OA
ATOM     35  H   UNL     1       3.844  15.891  21.009  0.00  0.00    +0.000 HD
ENDBRANCH  32  34
ENDBRANCH  30  32
ENDBRANCH   1  30
TORSDOF 7
ENDMDL
MODEL 8
REMARK VINA RESULT:      -6.7      6.119     10.757
REMARK  Name = 
REMARK  9 active torsions:
REMARK  status: ('A' for Active; 'I' for Inactive)
REMARK    1  A    between atoms: C_1  and  C_2
REMARK    2  A    between atoms: C_2  and  C_3
REMARK    3  A    between atoms: C_2  and  O_4
REMARK    4  A    between atoms: C_2  and  C_5
REMARK    5  A    between atoms: C_5  and  N_6
REMARK    6  A    between atoms: N_10  and  C_11
REMARK    7  A    between atoms: C_16  and  C_17
REMARK    8  A    between atoms: C_21  and  C_22
REMARK    9  A    between atoms: C_26  and  C_27
REMARK                            x       y       z     vdW  Elec       q    Type
REMARK                         _______ _______ _______ _____ _____    ______ ____
ROOT
ATOM      1  N   UNL     1       1.511   8.405  17.658  0.00  0.00    +0.000 N 
ATOM      2  C   UNL     1       0.882   9.541  18.149  0.00  0.00    +0.000 A 
ATOM      3  N   UNL     1       1.556  10.362  18.944  0.00  0.00    +0.000 NA
ATOM      4  C   UNL     1       0.912  11.445  19.361  0.00  0.00    +0.000 A 
ATOM      5  N   UNL     1       1.580  12.317  20.229  0.00  0.00    +0.000 N 
ATOM      6  N   UNL     1      -0.324  11.747  18.999  0.00  0.00    +0.000 NA
ATOM      7  C   UNL     1      -0.928  10.859  18.224  0.00  0.00    +0.000 A 
ATOM      8  N   UNL     1      -0.357   9.737  17.775  0.00  0.00    +0.000 NA
ATOM      9  H   UNL     1       0.924   7.593  17.881  0.00  0.00    +0.000 HD
ATOM     10  H   UNL     1       2.522  11.988  20.387  0.00  0.00    +0.000 HD
ENDROOT
BRANCH   5  11
ATOM     11  C   UNL     1       1.442  13.721  20.211  0.00  0.00    +0.000 A 
ATOM     12  C   UNL     1       0.950  14.385  21.335  0.00  0.00    +0.000 A 
ATOM     13  C   UNL     1       0.948  15.783  21.369  0.00  0.00    +0.000 A 
ATOM     14  F   UNL     1       0.523  16.410  22.473  0.00  0.00    +0.000 F 
ATOM     15  C   UNL     1       1.445  16.530  20.314  0.00  0.00    +0.000 A 
ATOM     16  C   UNL     1       1.913  15.881  19.171  0.00  0.00    +0.000 A 
ATOM     17  C   UNL     1       1.891  14.481  19.123  0.00  0.00    +0.000 A 
BRANCH  16  18
ATOM     18  C   UNL     1       2.474  16.627  18.089  0.00  0.00    +0.000 C 
ATOM     19  N   UNL     1       2.914  17.214  17.187  0.00  0.00    +0.000 NA
ENDBRANCH  16  18
ENDBRANCH   5  11
BRANCH   7  20
ATOM     20  C   UNL     1      -2.331  11.089  17.837  0.00  0.00    +0.000 A 
ATOM     21  C   UNL     1      -2.760  10.825  16.540  0.00  0.00    +0.000 A 
ATOM     22  C   UNL     1      -4.078  11.055  16.192  0.00  0.00    +0.000 A 
ATOM     23  C   UNL     1      -4.949  11.552  17.146  0.00  0.00    +0.000 A 
ATOM     24  C   UNL     1      -4.485  11.805  18.440  0.00  0.00    +0.000 A 
ATOM     25  N   UNL     1      -3.188  11.564  18.789  0.00  0.00    +0.000 NA
BRANCH  24  26
ATOM     26  C   UNL     1      -5.433  12.384  19.487  0.00  0.00    +0.000 C 
ATOM     27  F   UNL     1      -5.828  13.661  19.196  0.00  0.00    +0.000 F 
ATOM     28  F   UNL     1      -6.588  11.673  19.620  0.00  0.00    +0.000 F 
ATOM     29  F   UNL     1      -4.882  12.454  20.731  0.00  0.00    +0.000 F 
ENDBRANCH  24  26
ENDBRANCH   7  20
BRANCH   1  30
ATOM     30  C   UNL     1       2.895   8.210  18.069  0.00  0.00    +0.000 C 
BRANCH  30  32
ATOM     31  C   UNL     1       4.464   6.266  17.687  0.00  0.00    +0.000 C 
ATOM     32  C   UNL     1       3.162   6.712  18.357  0.00  0.00    +0.000 C 
ATOM     33  C   UNL     1       2.003   5.827  17.888  0.00  0.00    +0.000 C 
BRANCH  32  34
ATOM     34  O   UNL     1       3.318   6.551  19.776  0.00  0.00    +0.000 OA
ATOM     35  H   UNL     1       2.434   6.614  20.177  0.00  0.00    +0.000 HD
ENDBRANCH  32  34
ENDBRANCH  30  32
ENDBRANCH   1  30
TORSDOF 7
ENDMDL
MODEL 9
REMARK VINA RESULT:      -6.6      5.554     10.913
REMARK  Name = 
REMARK  9 active torsions:
REMARK  status: ('A' for Active; 'I' for Inactive)
REMARK    1  A    between atoms: C_1  and  C_2
REMARK    2  A    between atoms: C_2  and  C_3
REMARK    3  A    between atoms: C_2  and  O_4
REMARK    4  A    between atoms: C_2  and  C_5
REMARK    5  A    between atoms: C_5  and  N_6
REMARK    6  A    between atoms: N_10  and  C_11
REMARK    7  A    between atoms: C_16  and  C_17
REMARK    8  A    between atoms: C_21  and  C_22
REMARK    9  A    between atoms: C_26  and  C_27
REMARK                            x       y       z     vdW  Elec       q    Type
REMARK                         _______ _______ _______ _____ _____    ______ ____
ROOT
ATOM      1  N   UNL     1       1.418   8.290  17.767  0.00  0.00    +0.000 N 
ATOM      2  C   UNL     1       0.920   9.541  18.104  0.00  0.00    +0.000 A 
ATOM      3  N   UNL     1       1.737  10.445  18.628  0.00  0.00    +0.000 NA
ATOM      4  C   UNL     1       1.211  11.631  18.906  0.00  0.00    +0.000 A 
ATOM      5  N   UNL     1       2.035  12.598  19.492  0.00  0.00    +0.000 N 
ATOM      6  N   UNL     1      -0.049  11.950  18.657  0.00  0.00    +0.000 NA
ATOM      7  C   UNL     1      -0.798  10.979  18.155  0.00  0.00    +0.000 A 
ATOM      8  N   UNL     1      -0.349   9.754  17.864  0.00  0.00    +0.000 NA
ATOM      9  H   UNL     1       0.832   7.580  18.218  0.00  0.00    +0.000 HD
ATOM     10  H   UNL     1       2.973  12.237  19.587  0.00  0.00    +0.000 HD
ENDROOT
BRANCH   5  11
ATOM     11  C   UNL     1       1.962  13.981  19.218  0.00  0.00    +0.000 A 
ATOM     12  C   UNL     1       2.742  14.528  18.199  0.00  0.00    +0.000 A 
ATOM     13  C   UNL     1       2.564  15.867  17.833  0.00  0.00    +0.000 A 
ATOM     14  F   UNL     1       3.280  16.368  16.819  0.00  0.00    +0.000 F 
ATOM     15  C   UNL     1       1.612  16.661  18.449  0.00  0.00    +0.000 A 
ATOM     16  C   UNL     1       0.845  16.136  19.489  0.00  0.00    +0.000 A 
ATOM     17  C   UNL     1       1.039  14.804  19.876  0.00  0.00    +0.000 A 
BRANCH  16  18
ATOM     18  C   UNL     1      -0.176  16.921  20.109  0.00  0.00    +0.000 C 
ATOM     19  N   UNL     1      -1.014  17.533  20.632  0.00  0.00    +0.000 NA
ENDBRANCH  16  18
ENDBRANCH   5  11
BRANCH   7  20
ATOM     20  C   UNL     1      -2.230  11.235  17.917  0.00  0.00    +0.000 A 
ATOM     21  C   UNL     1      -2.791  11.002  16.666  0.00  0.00    +0.000 A 
ATOM     22  C   UNL     1      -4.134  11.256  16.458  0.00  0.00    +0.000 A 
ATOM     23  C   UNL     1      -4.897  11.745  17.505  0.00  0.00    +0.000 A 
ATOM     24  C   UNL     1      -4.300  11.967  18.749  0.00  0.00    +0.000 A 
ATOM     25  N   UNL     1      -2.978  11.702  18.960  0.00  0.00    +0.000 NA
BRANCH  24  26
ATOM     26  C   UNL     1      -5.128  12.537  19.898  0.00  0.00    +0.000 C 
ATOM     27  F   UNL     1      -5.311  13.889  19.799  0.00  0.00    +0.000 F 
ATOM     28  F   UNL     1      -6.383  12.010  19.972  0.00  0.00    +0.000 F 
ATOM     29  F   UNL     1      -4.559  12.341  21.120  0.00  0.00    +0.000 F 
ENDBRANCH  24  26
ENDBRANCH   7  20
BRANCH   1  30
ATOM     30  C   UNL     1       2.836   8.075  18.023  0.00  0.00    +0.000 C 
BRANCH  30  32
ATOM     31  C   UNL     1       4.471   6.148  18.020  0.00  0.00    +0.000 C 
ATOM     32  C   UNL     1       3.083   6.612  18.468  0.00  0.00    +0.000 C 
ATOM     33  C   UNL     1       2.012   5.663  17.922  0.00  0.00    +0.000 C 
BRANCH  32  34
ATOM     34  O   UNL     1       3.046   6.571  19.904  0.00  0.00    +0.000 OA
ATOM     35  H   UNL     1       3.327   5.681  20.179  0.00  0.00    +0.000 HD
ENDBRANCH  32  34
ENDBRANCH  30  32
ENDBRANCH   1  30
TORSDOF 7
ENDMDL
