MODEL 1
REMARK VINA RESULT:      -7.8      0.000      0.000
REMARK  Name = 
REMARK  7 active torsions:
REMARK  status: ('A' for Active; 'I' for Inactive)
REMARK    1  A    between atoms: C_1  and  O_2
REMARK    2  A    between atoms: O_2  and  C_3
REMARK    3  A    between atoms: C_9  and  C_10
REMARK    4  A    between atoms: C_10  and  N_12
REMARK    5  A    between atoms: N_12  and  C_13
REMARK    6  A    between atoms: C_16  and  C_17
REMARK    7  A    between atoms: C_22  and  O_23
REMARK                            x       y       z     vdW  Elec       q    Type
REMARK                         _______ _______ _______ _____ _____    ______ ____
ROOT
ATOM      1  N   UNL     1       4.098   4.648  19.081  0.00  0.00    +0.000 N 
ATOM      2  H   UNL     1       4.415   4.417  20.023  0.00  0.00    +0.000 HD
ENDROOT
BRANCH   1   3
ATOM      3  C   UNL     1       3.501   5.927  18.954  0.00  0.00    +0.000 A 
ATOM      4  C   UNL     1       3.711   6.724  17.829  0.00  0.00    +0.000 A 
ATOM      5  C   UNL     1       3.031   7.931  17.671  0.00  0.00    +0.000 A 
ATOM      6  C   UNL     1       2.122   8.369  18.642  0.00  0.00    +0.000 A 
ATOM      7  C   UNL     1       1.917   7.576  19.785  0.00  0.00    +0.000 A 
ATOM      8  C   UNL     1       2.585   6.357  19.924  0.00  0.00    +0.000 A 
BRANCH   6   9
ATOM      9  C   UNL     1       1.339   9.644  18.451  0.00  0.00    +0.000 C 
ATOM     10  F   UNL     1       2.068  10.658  17.907  0.00  0.00    +0.000 F 
ATOM     11  F   UNL     1       0.268   9.472  17.626  0.00  0.00    +0.000 F 
ATOM     12  F   UNL     1       0.835  10.128  19.619  0.00  0.00    +0.000 F 
ENDBRANCH   6   9
BRANCH   8  13
ATOM     13  O   UNL     1       2.357   5.570  21.024  0.00  0.00    +0.000 OA
ATOM     14  H   UNL     1       2.500   6.105  21.822  0.00  0.00    +0.000 HD
ENDBRANCH   8  13
ENDBRANCH   1   3
BRANCH   1  15
ATOM     15  C   UNL     1       4.307   3.701  18.087  0.00  0.00    +0.000 C 
ATOM     16  S   UNL     1       3.474   2.219  18.061  0.00  0.00    +0.000 S 
BRANCH  15  23
ATOM     17  C   UNL     1       6.584   4.506  17.166  0.00  0.00    +0.000 A 
ATOM     18  C   UNL     1       7.379   4.852  16.056  0.00  0.00    +0.000 A 
ATOM     19  C   UNL     1       6.854   4.817  14.764  0.00  0.00    +0.000 A 
ATOM     20 CL   UNL     1       7.837   5.264  13.426  0.00  0.00    +0.000 Cl
ATOM     21  C   UNL     1       5.545   4.414  14.550  0.00  0.00    +0.000 A 
ATOM     22  C   UNL     1       4.753   4.053  15.641  0.00  0.00    +0.000 A 
ATOM     23  C   UNL     1       5.245   4.104  16.965  0.00  0.00    +0.000 A 
BRANCH  17  25
ATOM     24  C   UNL     1       7.718   5.702  18.891  0.00  0.00    +0.000 C 
ATOM     25  O   UNL     1       7.072   4.510  18.450  0.00  0.00    +0.000 OA
ENDBRANCH  17  25
ENDBRANCH  15  23
ENDBRANCH   1  15
TORSDOF 6
ENDMDL
MODEL 2
REMARK VINA RESULT:      -7.4      4.839      7.040
REMARK  Name = 
REMARK  7 active torsions:
REMARK  status: ('A' for Active; 'I' for Inactive)
REMARK    1  A    between atoms: C_1  and  O_2
REMARK    2  A    between atoms: O_2  and  C_3
REMARK    3  A    between atoms: C_9  and  C_10
REMARK    4  A    between atoms: C_10  and  N_12
REMARK    5  A    between atoms: N_12  and  C_13
REMARK    6  A    between atoms: C_16  and  C_17
REMARK    7  A    between atoms: C_22  and  O_23
REMARK                            x       y       z     vdW  Elec       q    Type
REMARK                         _______ _______ _______ _____ _____    ______ ____
ROOT
ATOM      1  N   UNL     1       5.486   5.796  17.409  0.00  0.00    +0.000 N 
ATOM      2  H   UNL     1       5.092   6.734  17.335  0.00  0.00    +0.000 HD
ENDROOT
BRANCH   1   3
ATOM      3  C   UNL     1       5.727   5.154  16.170  0.00  0.00    +0.000 A 
ATOM      4  C   UNL     1       4.792   4.292  15.599  0.00  0.00    +0.000 A 
ATOM      5  C   UNL     1       4.998   3.753  14.328  0.00  0.00    +0.000 A 
ATOM      6  C   UNL     1       6.153   4.067  13.600  0.00  0.00    +0.000 A 
ATOM      7  C   UNL     1       7.106   4.925  14.179  0.00  0.00    +0.000 A 
ATOM      8  C   UNL     1       6.880   5.479  15.441  0.00  0.00    +0.000 A 
BRANCH   6   9
ATOM      9  C   UNL     1       6.356   3.537  12.203  0.00  0.00    +0.000 C 
ATOM     10  F   UNL     1       6.772   2.240  12.165  0.00  0.00    +0.000 F 
ATOM     11  F   UNL     1       5.212   3.581  11.464  0.00  0.00    +0.000 F 
ATOM     12  F   UNL     1       7.280   4.248  11.503  0.00  0.00    +0.000 F 
ENDBRANCH   6   9
BRANCH   8  13
ATOM     13  O   UNL     1       7.795   6.341  15.987  0.00  0.00    +0.000 OA
ATOM     14  H   UNL     1       7.348   6.888  16.653  0.00  0.00    +0.000 HD
ENDBRANCH   8  13
ENDBRANCH   1   3
BRANCH   1  15
ATOM     15  C   UNL     1       5.732   5.307  18.686  0.00  0.00    +0.000 C 
ATOM     16  S   UNL     1       7.237   5.500  19.453  0.00  0.00    +0.000 S 
BRANCH  15  23
ATOM     17  C   UNL     1       3.378   5.388  19.753  0.00  0.00    +0.000 A 
ATOM     18  C   UNL     1       2.331   4.712  20.407  0.00  0.00    +0.000 A 
ATOM     19  C   UNL     1       2.444   3.359  20.727  0.00  0.00    +0.000 A 
ATOM     20 CL   UNL     1       1.160   2.560  21.546  0.00  0.00    +0.000 Cl
ATOM     21  C   UNL     1       3.582   2.650  20.379  0.00  0.00    +0.000 A 
ATOM     22  C   UNL     1       4.620   3.304  19.715  0.00  0.00    +0.000 A 
ATOM     23  C   UNL     1       4.550   4.681  19.402  0.00  0.00    +0.000 A 
BRANCH  17  25
ATOM     24  C   UNL     1       2.108   7.407  19.787  0.00  0.00    +0.000 C 
ATOM     25  O   UNL     1       3.295   6.714  19.406  0.00  0.00    +0.000 OA
ENDBRANCH  17  25
ENDBRANCH  15  23
ENDBRANCH   1  15
TORSDOF 6
ENDMDL
MODEL 3
REMARK VINA RESULT:      -7.0      3.945      5.624
REMARK  Name = 
REMARK  7 active torsions:
REMARK  status: ('A' for Active; 'I' for Inactive)
REMARK    1  A    between atoms: C_1  and  O_2
REMARK    2  A    between atoms: O_2  and  C_3
REMARK    3  A    between atoms: C_9  and  C_10
REMARK    4  A    between atoms: C_10  and  N_12
REMARK    5  A    between atoms: N_12  and  C_13
REMARK    6  A    between atoms: C_16  and  C_17
REMARK    7  A    between atoms: C_22  and  O_23
REMARK                            x       y       z     vdW  Elec       q    Type
REMARK                         _______ _______ _______ _____ _____    ______ ____
ROOT
ATOM      1  N   UNL     1       6.568   4.762  17.912  0.00  0.00    +0.000 N 
ATOM      2  H   UNL     1       6.877   4.125  18.647  0.00  0.00    +0.000 HD
ENDROOT
BRANCH   1   3
ATOM      3  C   UNL     1       7.171   6.043  17.946  0.00  0.00    +0.000 A 
ATOM      4  C   UNL     1       6.826   7.039  17.034  0.00  0.00    +0.000 A 
ATOM      5  C   UNL     1       7.349   8.328  17.148  0.00  0.00    +0.000 A 
ATOM      6  C   UNL     1       8.236   8.646  18.184  0.00  0.00    +0.000 A 
ATOM      7  C   UNL     1       8.600   7.641  19.098  0.00  0.00    +0.000 A 
ATOM      8  C   UNL     1       8.052   6.361  18.990  0.00  0.00    +0.000 A 
BRANCH   6   9
ATOM      9  C   UNL     1       8.761  10.051  18.349  0.00  0.00    +0.000 C 
ATOM     10  F   UNL     1       9.977  10.252  17.770  0.00  0.00    +0.000 F 
ATOM     11  F   UNL     1       7.929  10.979  17.800  0.00  0.00    +0.000 F 
ATOM     12  F   UNL     1       8.904  10.405  19.655  0.00  0.00    +0.000 F 
ENDBRANCH   6   9
BRANCH   8  13
ATOM     13  O   UNL     1       8.383   5.393  19.903  0.00  0.00    +0.000 OA
ATOM     14  H   UNL     1       9.185   5.673  20.374  0.00  0.00    +0.000 HD
ENDBRANCH   8  13
ENDBRANCH   1   3
BRANCH   1  15
ATOM     15  C   UNL     1       5.633   4.282  17.003  0.00  0.00    +0.000 C 
ATOM     16  S   UNL     1       6.020   4.006  15.371  0.00  0.00    +0.000 S 
BRANCH  15  23
ATOM     17  C   UNL     1       3.399   4.852  18.173  0.00  0.00    +0.000 A 
ATOM     18  C   UNL     1       2.152   4.418  18.661  0.00  0.00    +0.000 A 
ATOM     19  C   UNL     1       1.778   3.077  18.569  0.00  0.00    +0.000 A 
ATOM     20 CL   UNL     1       0.258   2.565  19.191  0.00  0.00    +0.000 Cl
ATOM     21  C   UNL     1       2.620   2.153  17.970  0.00  0.00    +0.000 A 
ATOM     22  C   UNL     1       3.851   2.575  17.468  0.00  0.00    +0.000 A 
ATOM     23  C   UNL     1       4.274   3.920  17.571  0.00  0.00    +0.000 A 
BRANCH  17  25
ATOM     24  C   UNL     1       2.769   7.152  18.121  0.00  0.00    +0.000 C 
ATOM     25  O   UNL     1       3.794   6.166  18.229  0.00  0.00    +0.000 OA
ENDBRANCH  17  25
ENDBRANCH  15  23
ENDBRANCH   1  15
TORSDOF 6
ENDMDL
MODEL 4
REMARK VINA RESULT:      -7.0      1.271      1.666
REMARK  Name = 
REMARK  7 active torsions:
REMARK  status: ('A' for Active; 'I' for Inactive)
REMARK    1  A    between atoms: C_1  and  O_2
REMARK    2  A    between atoms: O_2  and  C_3
REMARK    3  A    between atoms: C_9  and  C_10
REMARK    4  A    between atoms: C_10  and  N_12
REMARK    5  A    between atoms: N_12  and  C_13
REMARK    6  A    between atoms: C_16  and  C_17
REMARK    7  A    between atoms: C_22  and  O_23
REMARK                            x       y       z     vdW  Elec       q    Type
REMARK                         _______ _______ _______ _____ _____    ______ ____
ROOT
ATOM      1  N   UNL     1       2.806   4.371  18.569  0.00  0.00    +0.000 N 
ATOM      2  H   UNL     1       2.051   3.919  18.054  0.00  0.00    +0.000 HD
ENDROOT
BRANCH   1   3
ATOM      3  C   UNL     1       2.450   5.591  19.195  0.00  0.00    +0.000 A 
ATOM      4  C   UNL     1       2.591   6.816  18.544  0.00  0.00    +0.000 A 
ATOM      5  C   UNL     1       2.135   7.996  19.132  0.00  0.00    +0.000 A 
ATOM      6  C   UNL     1       1.527   7.974  20.394  0.00  0.00    +0.000 A 
ATOM      7  C   UNL     1       1.395   6.742  21.061  0.00  0.00    +0.000 A 
ATOM      8  C   UNL     1       1.833   5.563  20.454  0.00  0.00    +0.000 A 
BRANCH   6   9
ATOM      9  C   UNL     1       0.978   9.235  21.011  0.00  0.00    +0.000 C 
ATOM     10  F   UNL     1       1.622   9.611  22.151  0.00  0.00    +0.000 F 
ATOM     11  F   UNL     1       1.065  10.302  20.167  0.00  0.00    +0.000 F 
ATOM     12  F   UNL     1      -0.337   9.128  21.340  0.00  0.00    +0.000 F 
ENDBRANCH   6   9
BRANCH   8  13
ATOM     13  O   UNL     1       1.672   4.361  21.093  0.00  0.00    +0.000 OA
ATOM     14  H   UNL     1       0.824   3.975  20.819  0.00  0.00    +0.000 HD
ENDBRANCH   8  13
ENDBRANCH   1   3
BRANCH   1  15
ATOM     15  C   UNL     1       4.038   3.729  18.590  0.00  0.00    +0.000 C 
ATOM     16  S   UNL     1       4.405   2.513  19.720  0.00  0.00    +0.000 S 
BRANCH  15  23
ATOM     17  C   UNL     1       6.305   4.602  17.705  0.00  0.00    +0.000 A 
ATOM     18  C   UNL     1       7.130   4.907  16.607  0.00  0.00    +0.000 A 
ATOM     19  C   UNL     1       6.673   4.732  15.300  0.00  0.00    +0.000 A 
ATOM     20 CL   UNL     1       7.691   5.132  13.973  0.00  0.00    +0.000 Cl
ATOM     21  C   UNL     1       5.403   4.229  15.064  0.00  0.00    +0.000 A 
ATOM     22  C   UNL     1       4.582   3.908  16.145  0.00  0.00    +0.000 A 
ATOM     23  C   UNL     1       5.004   4.099  17.480  0.00  0.00    +0.000 A 
BRANCH  17  25
ATOM     24  C   UNL     1       7.694   5.759  19.262  0.00  0.00    +0.000 C 
ATOM     25  O   UNL     1       6.728   4.742  19.005  0.00  0.00    +0.000 OA
ENDBRANCH  17  25
ENDBRANCH  15  23
ENDBRANCH   1  15
TORSDOF 6
ENDMDL
MODEL 5
REMARK VINA RESULT:      -6.9      4.763      6.884
REMARK  Name = 
REMARK  7 active torsions:
REMARK  status: ('A' for Active; 'I' for Inactive)
REMARK    1  A    between atoms: C_1  and  O_2
REMARK    2  A    between atoms: O_2  and  C_3
REMARK    3  A    between atoms: C_9  and  C_10
REMARK    4  A    between atoms: C_10  and  N_12
REMARK    5  A    between atoms: N_12  and  C_13
REMARK    6  A    between atoms: C_16  and  C_17
REMARK    7  A    between atoms: C_22  and  O_23
REMARK                            x       y       z     vdW  Elec       q    Type
REMARK                         _______ _______ _______ _____ _____    ______ ____
ROOT
ATOM      1  N   UNL     1       7.578   5.716  16.207  0.00  0.00    +0.000 N 
ATOM      2  H   UNL     1       8.570   5.516  16.340  0.00  0.00    +0.000 HD
ENDROOT
BRANCH   1   3
ATOM      3  C   UNL     1       6.967   5.007  15.145  0.00  0.00    +0.000 A 
ATOM      4  C   UNL     1       5.797   4.272  15.333  0.00  0.00    +0.000 A 
ATOM      5  C   UNL     1       5.149   3.669  14.254  0.00  0.00    +0.000 A 
ATOM      6  C   UNL     1       5.663   3.790  12.957  0.00  0.00    +0.000 A 
ATOM      7  C   UNL     1       6.851   4.518  12.764  0.00  0.00    +0.000 A 
ATOM      8  C   UNL     1       7.480   5.139  13.846  0.00  0.00    +0.000 A 
BRANCH   6   9
ATOM      9  C   UNL     1       4.938   3.191  11.778  0.00  0.00    +0.000 C 
ATOM     10  F   UNL     1       5.458   2.003  11.361  0.00  0.00    +0.000 F 
ATOM     11  F   UNL     1       3.625   2.948  12.050  0.00  0.00    +0.000 F 
ATOM     12  F   UNL     1       4.948   4.007  10.689  0.00  0.00    +0.000 F 
ENDBRANCH   6   9
BRANCH   8  13
ATOM     13  O   UNL     1       8.618   5.876  13.649  0.00  0.00    +0.000 OA
ATOM     14  H   UNL     1       8.999   5.633  12.789  0.00  0.00    +0.000 HD
ENDBRANCH   8  13
ENDBRANCH   1   3
BRANCH   1  15
ATOM     15  C   UNL     1       6.989   6.624  17.078  0.00  0.00    +0.000 C 
ATOM     16  S   UNL     1       7.585   8.203  17.278  0.00  0.00    +0.000 S 
BRANCH  15  23
ATOM     17  C   UNL     1       5.685   5.175  18.777  0.00  0.00    +0.000 A 
ATOM     18  C   UNL     1       4.455   4.823  19.363  0.00  0.00    +0.000 A 
ATOM     19  C   UNL     1       3.268   5.426  18.946  0.00  0.00    +0.000 A 
ATOM     20 CL   UNL     1       1.773   4.963  19.661  0.00  0.00    +0.000 Cl
ATOM     21  C   UNL     1       3.285   6.404  17.965  0.00  0.00    +0.000 A 
ATOM     22  C   UNL     1       4.501   6.773  17.389  0.00  0.00    +0.000 A 
ATOM     23  C   UNL     1       5.718   6.162  17.767  0.00  0.00    +0.000 A 
BRANCH  17  25
ATOM     24  C   UNL     1       7.753   5.444  19.936  0.00  0.00    +0.000 C 
ATOM     25  O   UNL     1       6.876   4.617  19.175  0.00  0.00    +0.000 OA
ENDBRANCH  17  25
ENDBRANCH  15  23
ENDBRANCH   1  15
TORSDOF 6
ENDMDL
MODEL 6
REMARK VINA RESULT:      -6.9      1.847      2.350
REMARK  Name = 
REMARK  7 active torsions:
REMARK  status: ('A' for Active; 'I' for Inactive)
REMARK    1  A    between atoms: C_1  and  O_2
REMARK    2  A    between atoms: O_2  and  C_3
REMARK    3  A    between atoms: C_9  and  C_10
REMARK    4  A    between atoms: C_10  and  N_12
REMARK    5  A    between atoms: N_12  and  C_13
REMARK    6  A    between atoms: C_16  and  C_17
REMARK    7  A    between atoms: C_22  and  O_23
REMARK                            x       y       z     vdW  Elec       q    Type
REMARK                         _______ _______ _______ _____ _____    ______ ____
ROOT
ATOM      1  N   UNL     1       3.121   6.710  20.082  0.00  0.00    +0.000 N 
ATOM      2  H   UNL     1       3.877   6.998  20.703  0.00  0.00    +0.000 HD
ENDROOT
BRANCH   1   3
ATOM      3  C   UNL     1       2.264   7.758  19.665  0.00  0.00    +0.000 A 
ATOM      4  C   UNL     1       2.118   8.092  18.319  0.00  0.00    +0.000 A 
ATOM      5  C   UNL     1       1.189   9.052  17.917  0.00  0.00    +0.000 A 
ATOM      6  C   UNL     1       0.384   9.703  18.860  0.00  0.00    +0.000 A 
ATOM      7  C   UNL     1       0.538   9.381  20.221  0.00  0.00    +0.000 A 
ATOM      8  C   UNL     1       1.453   8.400  20.612  0.00  0.00    +0.000 A 
BRANCH   6   9
ATOM      9  C   UNL     1      -0.662  10.700  18.429  0.00  0.00    +0.000 C 
ATOM     10  F   UNL     1      -0.170  11.951  18.212  0.00  0.00    +0.000 F 
ATOM     11  F   UNL     1      -1.274  10.334  17.268  0.00  0.00    +0.000 F 
ATOM     12  F   UNL     1      -1.658  10.843  19.346  0.00  0.00    +0.000 F 
ENDBRANCH   6   9
BRANCH   8  13
ATOM     13  O   UNL     1       1.576   8.064  21.935  0.00  0.00    +0.000 OA
ATOM     14  H   UNL     1       2.375   8.488  22.290  0.00  0.00    +0.000 HD
ENDBRANCH   8  13
ENDBRANCH   1   3
BRANCH   1  15
ATOM     15  C   UNL     1       3.056   5.365  19.737  0.00  0.00    +0.000 C 
ATOM     16  S   UNL     1       2.002   4.282  20.514  0.00  0.00    +0.000 S 
BRANCH  15  23
ATOM     17  C   UNL     1       5.314   5.046  18.518  0.00  0.00    +0.000 A 
ATOM     18  C   UNL     1       6.014   4.610  17.377  0.00  0.00    +0.000 A 
ATOM     19  C   UNL     1       5.331   4.086  16.279  0.00  0.00    +0.000 A 
ATOM     20 CL   UNL     1       6.206   3.580  14.886  0.00  0.00    +0.000 Cl
ATOM     21  C   UNL     1       3.951   3.962  16.305  0.00  0.00    +0.000 A 
ATOM     22  C   UNL     1       3.249   4.376  17.437  0.00  0.00    +0.000 A 
ATOM     23  C   UNL     1       3.906   4.937  18.555  0.00  0.00    +0.000 A 
BRANCH  17  25
ATOM     24  C   UNL     1       7.373   5.657  19.556  0.00  0.00    +0.000 C 
ATOM     25  O   UNL     1       5.953   5.549  19.625  0.00  0.00    +0.000 OA
ENDBRANCH  17  25
ENDBRANCH  15  23
ENDBRANCH   1  15
TORSDOF 6
ENDMDL
MODEL 7
REMARK VINA RESULT:      -6.9      4.827      7.134
REMARK  Name = 
REMARK  7 active torsions:
REMARK  status: ('A' for Active; 'I' for Inactive)
REMARK    1  A    between atoms: C_1  and  O_2
REMARK    2  A    between atoms: O_2  and  C_3
REMARK    3  A    between atoms: C_9  and  C_10
REMARK    4  A    between atoms: C_10  and  N_12
REMARK    5  A    between atoms: N_12  and  C_13
REMARK    6  A    between atoms: C_16  and  C_17
REMARK    7  A    between atoms: C_22  and  O_23
REMARK                            x       y       z     vdW  Elec       q    Type
REMARK                         _______ _______ _______ _____ _____    ______ ____
ROOT
ATOM      1  N   UNL     1       5.452   5.545  17.631  0.00  0.00    +0.000 N 
ATOM      2  H   UNL     1       6.225   5.515  18.296  0.00  0.00    +0.000 HD
ENDROOT
BRANCH   1   3
ATOM      3  C   UNL     1       5.749   5.009  16.354  0.00  0.00    +0.000 A 
ATOM      4  C   UNL     1       4.902   4.094  15.729  0.00  0.00    +0.000 A 
ATOM      5  C   UNL     1       5.153   3.659  14.427  0.00  0.00    +0.000 A 
ATOM      6  C   UNL     1       6.265   4.133  13.720  0.00  0.00    +0.000 A 
ATOM      7  C   UNL     1       7.131   5.044  14.351  0.00  0.00    +0.000 A 
ATOM      8  C   UNL     1       6.859   5.493  15.646  0.00  0.00    +0.000 A 
BRANCH   6   9
ATOM      9  C   UNL     1       6.512   3.714  12.293  0.00  0.00    +0.000 C 
ATOM     10  F   UNL     1       7.326   4.562  11.606  0.00  0.00    +0.000 F 
ATOM     11  F   UNL     1       7.099   2.487  12.211  0.00  0.00    +0.000 F 
ATOM     12  F   UNL     1       5.364   3.626  11.568  0.00  0.00    +0.000 F 
ENDBRANCH   6   9
BRANCH   8  13
ATOM     13  O   UNL     1       7.687   6.407  16.245  0.00  0.00    +0.000 OA
ATOM     14  H   UNL     1       8.582   6.296  15.886  0.00  0.00    +0.000 HD
ENDBRANCH   8  13
ENDBRANCH   1   3
BRANCH   1  15
ATOM     15  C   UNL     1       4.250   6.082  18.073  0.00  0.00    +0.000 C 
ATOM     16  S   UNL     1       3.619   7.528  17.441  0.00  0.00    +0.000 S 
BRANCH  15  23
ATOM     17  C   UNL     1       2.533   5.788  19.983  0.00  0.00    +0.000 A 
ATOM     18  C   UNL     1       1.859   4.931  20.873  0.00  0.00    +0.000 A 
ATOM     19  C   UNL     1       2.124   3.562  20.884  0.00  0.00    +0.000 A 
ATOM     20 CL   UNL     1       1.304   2.536  21.996  0.00  0.00    +0.000 Cl
ATOM     21  C   UNL     1       3.039   3.018  19.997  0.00  0.00    +0.000 A 
ATOM     22  C   UNL     1       3.701   3.856  19.098  0.00  0.00    +0.000 A 
ATOM     23  C   UNL     1       3.477   5.251  19.080  0.00  0.00    +0.000 A 
BRANCH  17  25
ATOM     24  C   UNL     1       1.397   7.668  20.914  0.00  0.00    +0.000 C 
ATOM     25  O   UNL     1       2.283   7.138  19.931  0.00  0.00    +0.000 OA
ENDBRANCH  17  25
ENDBRANCH  15  23
ENDBRANCH   1  15
TORSDOF 6
ENDMDL
MODEL 8
REMARK VINA RESULT:      -6.9      3.928      5.761
REMARK  Name = 
REMARK  7 active torsions:
REMARK  status: ('A' for Active; 'I' for Inactive)
REMARK    1  A    between atoms: C_1  and  O_2
REMARK    2  A    between atoms: O_2  and  C_3
REMARK    3  A    between atoms: C_9  and  C_10
REMARK    4  A    between atoms: C_10  and  N_12
REMARK    5  A    between atoms: N_12  and  C_13
REMARK    6  A    between atoms: C_16  and  C_17
REMARK    7  A    between atoms: C_22  and  O_23
REMARK                            x       y       z     vdW  Elec       q    Type
REMARK                         _______ _______ _______ _____ _____    ______ ____
ROOT
ATOM      1  N   UNL     1       6.770   4.474  17.915  0.00  0.00    +0.000 N 
ATOM      2  H   UNL     1       7.322   3.767  18.401  0.00  0.00    +0.000 HD
ENDROOT
BRANCH   1   3
ATOM      3  C   UNL     1       7.320   5.779  17.948  0.00  0.00    +0.000 A 
ATOM      4  C   UNL     1       7.075   6.702  16.932  0.00  0.00    +0.000 A 
ATOM      5  C   UNL     1       7.533   8.016  17.032  0.00  0.00    +0.000 A 
ATOM      6  C   UNL     1       8.252   8.435  18.159  0.00  0.00    +0.000 A 
ATOM      7  C   UNL     1       8.514   7.504  19.180  0.00  0.00    +0.000 A 
ATOM      8  C   UNL     1       8.030   6.197  19.082  0.00  0.00    +0.000 A 
BRANCH   6   9
ATOM      9  C   UNL     1       8.700   9.868  18.303  0.00  0.00    +0.000 C 
ATOM     10  F   UNL     1       7.805  10.773  17.817  0.00  0.00    +0.000 F 
ATOM     11  F   UNL     1       8.909  10.214  19.604  0.00  0.00    +0.000 F 
ATOM     12  F   UNL     1       9.872  10.116  17.659  0.00  0.00    +0.000 F 
ENDBRANCH   6   9
BRANCH   8  13
ATOM     13  O   UNL     1       8.260   5.302  20.095  0.00  0.00    +0.000 OA
ATOM     14  H   UNL     1       9.219   5.197  20.205  0.00  0.00    +0.000 HD
ENDBRANCH   8  13
ENDBRANCH   1   3
BRANCH   1  15
ATOM     15  C   UNL     1       5.598   4.056  17.298  0.00  0.00    +0.000 C 
ATOM     16  S   UNL     1       5.533   3.679  15.642  0.00  0.00    +0.000 S 
BRANCH  15  23
ATOM     17  C   UNL     1       3.651   4.914  18.767  0.00  0.00    +0.000 A 
ATOM     18  C   UNL     1       2.547   4.624  19.590  0.00  0.00    +0.000 A 
ATOM     19  C   UNL     1       2.194   3.303  19.870  0.00  0.00    +0.000 A 
ATOM     20 CL   UNL     1       0.854   2.972  20.897  0.00  0.00    +0.000 Cl
ATOM     21  C   UNL     1       2.911   2.254  19.318  0.00  0.00    +0.000 A 
ATOM     22  C   UNL     1       3.997   2.530  18.487  0.00  0.00    +0.000 A 
ATOM     23  C   UNL     1       4.399   3.856  18.206  0.00  0.00    +0.000 A 
BRANCH  17  25
ATOM     24  C   UNL     1       2.962   7.140  18.255  0.00  0.00    +0.000 C 
ATOM     25  O   UNL     1       4.016   6.201  18.453  0.00  0.00    +0.000 OA
ENDBRANCH  17  25
ENDBRANCH  15  23
ENDBRANCH   1  15
TORSDOF 6
ENDMDL
MODEL 9
REMARK VINA RESULT:      -6.8      1.040      1.339
REMARK  Name = 
REMARK  7 active torsions:
REMARK  status: ('A' for Active; 'I' for Inactive)
REMARK    1  A    between atoms: C_1  and  O_2
REMARK    2  A    between atoms: O_2  and  C_3
REMARK    3  A    between atoms: C_9  and  C_10
REMARK    4  A    between atoms: C_10  and  N_12
REMARK    5  A    between atoms: N_12  and  C_13
REMARK    6  A    between atoms: C_16  and  C_17
REMARK    7  A    between atoms: C_22  and  O_23
REMARK                            x       y       z     vdW  Elec       q    Type
REMARK                         _______ _______ _______ _____ _____    ______ ____
ROOT
ATOM      1  N   UNL     1       2.821   4.722  18.509  0.00  0.00    +0.000 N 
ATOM      2  H   UNL     1       2.020   4.125  18.302  0.00  0.00    +0.000 HD
ENDROOT
BRANCH   1   3
ATOM      3  C   UNL     1       2.500   6.079  18.759  0.00  0.00    +0.000 A 
ATOM      4  C   UNL     1       2.474   7.026  17.736  0.00  0.00    +0.000 A 
ATOM      5  C   UNL     1       2.051   8.332  17.980  0.00  0.00    +0.000 A 
ATOM      6  C   UNL     1       1.643   8.721  19.263  0.00  0.00    +0.000 A 
ATOM      7  C   UNL     1       1.680   7.773  20.302  0.00  0.00    +0.000 A 
ATOM      8  C   UNL     1       2.083   6.461  20.043  0.00  0.00    +0.000 A 
BRANCH   6   9
ATOM      9  C   UNL     1       1.128  10.114  19.523  0.00  0.00    +0.000 C 
ATOM     10  F   UNL     1      -0.194  10.273  19.233  0.00  0.00    +0.000 F 
ATOM     11  F   UNL     1       1.269  10.480  20.828  0.00  0.00    +0.000 F 
ATOM     12  F   UNL     1       1.787  11.058  18.798  0.00  0.00    +0.000 F 
ENDBRANCH   6   9
BRANCH   8  13
ATOM     13  O   UNL     1       2.086   5.532  21.051  0.00  0.00    +0.000 OA
ATOM     14  H   UNL     1       2.498   4.717  20.721  0.00  0.00    +0.000 HD
ENDBRANCH   8  13
ENDBRANCH   1   3
BRANCH   1  15
ATOM     15  C   UNL     1       4.075   4.125  18.527  0.00  0.00    +0.000 C 
ATOM     16  S   UNL     1       4.519   2.991  19.713  0.00  0.00    +0.000 S 
BRANCH  15  23
ATOM     17  C   UNL     1       6.088   5.351  17.466  0.00  0.00    +0.000 A 
ATOM     18  C   UNL     1       6.889   5.592  16.333  0.00  0.00    +0.000 A 
ATOM     19  C   UNL     1       6.604   4.976  15.114  0.00  0.00    +0.000 A 
ATOM     20 CL   UNL     1       7.584   5.302  13.738  0.00  0.00    +0.000 Cl
ATOM     21  C   UNL     1       5.541   4.094  15.006  0.00  0.00    +0.000 A 
ATOM     22  C   UNL     1       4.751   3.834  16.126  0.00  0.00    +0.000 A 
ATOM     23  C   UNL     1       4.994   4.464  17.368  0.00  0.00    +0.000 A 
BRANCH  17  25
ATOM     24  C   UNL     1       7.638   5.685  19.248  0.00  0.00    +0.000 C 
ATOM     25  O   UNL     1       6.350   5.924  18.687  0.00  0.00    +0.000 OA
ENDBRANCH  17  25
ENDBRANCH  15  23
ENDBRANCH   1  15
TORSDOF 6
ENDMDL
