MODEL 1
REMARK VINA RESULT:      -7.8      0.000      0.000
REMARK  Name = 
REMARK  8 active torsions:
REMARK  status: ('A' for Active; 'I' for Inactive)
REMARK    1  A    between atoms: C_1  and  C_2
REMARK    2  A    between atoms: C_6  and  C_7
REMARK    3  A    between atoms: C_7  and  N_8
REMARK    4  A    between atoms: C_9  and  C_10
REMARK    5  A    between atoms: C_11  and  C_12
REMARK    6  A    between atoms: C_15  and  C_16
REMARK    7  A    between atoms: N_18  and  C_19
REMARK    8  A    between atoms: C_19  and  C_20
REMARK                            x       y       z     vdW  Elec       q    Type
REMARK                         _______ _______ _______ _____ _____    ______ ____
ROOT
ATOM      1  N   UNL     1       5.549   4.782  16.688  0.00  0.00    +0.000 N 
ATOM      2  C   UNL     1       6.095   5.981  17.190  0.00  0.00    +0.000 A 
ATOM      3  C   UNL     1       6.522   5.912  18.651  0.00  0.00    +0.000 C 
ATOM      4  C   UNL     1       5.166   6.828  16.554  0.00  0.00    +0.000 A 
ATOM      5  C   UNL     1       5.036   7.084  15.061  0.00  0.00    +0.000 C 
ATOM      6  C   UNL     1       4.066   6.307  17.279  0.00  0.00    +0.000 A 
ATOM      7  C   UNL     1       3.213   6.818  18.265  0.00  0.00    +0.000 A 
ATOM      8  C   UNL     1       2.435   5.898  18.959  0.00  0.00    +0.000 A 
ATOM      9  C   UNL     1       2.306   4.583  18.470  0.00  0.00    +0.000 A 
ATOM     10  C   UNL     1       3.171   4.053  17.476  0.00  0.00    +0.000 A 
ATOM     11  C   UNL     1       4.206   4.903  17.085  0.00  0.00    +0.000 A 
ENDROOT
BRANCH   8  12
ATOM     12  C   UNL     1       1.933   6.326  20.309  0.00  0.00    +0.000 C 
ATOM     13  O   UNL     1       1.474   5.512  21.096  0.00  0.00    +0.000 OA
ATOM     14  N   UNL     1       1.909   7.689  20.523  0.00  0.00    +0.000 N 
ATOM     15  H   UNL     1       2.181   8.316  19.782  0.00  0.00    +0.000 HD
BRANCH  14  16
ATOM     16  C   UNL     1       1.277   8.297  21.674  0.00  0.00    +0.000 C 
BRANCH  16  17
ATOM     17  C   UNL     1       0.569   9.535  21.251  0.00  0.00    +0.000 A 
ATOM     18  C   UNL     1      -0.040   9.936  20.071  0.00  0.00    +0.000 A 
ATOM     19  C   UNL     1      -0.591  11.220  20.310  0.00  0.00    +0.000 A 
ATOM     20  C   UNL     1      -0.281  11.533  21.611  0.00  0.00    +0.000 A 
ATOM     21  O   UNL     1       0.432  10.528  22.186  0.00  0.00    +0.000 OA
ENDBRANCH  16  17
ENDBRANCH  14  16
ENDBRANCH   8  12
BRANCH   1  22
ATOM     22  C   UNL     1       6.432   3.862  15.972  0.00  0.00    +0.000 C 
BRANCH  22  28
ATOM     23  C   UNL     1       4.507   3.091  11.348  0.00  0.00    +0.000 C 
ATOM     24  C   UNL     1       5.598   3.626  12.223  0.00  0.00    +0.000 A 
ATOM     25  C   UNL     1       6.614   4.418  11.685  0.00  0.00    +0.000 A 
ATOM     26  C   UNL     1       7.598   4.947  12.512  0.00  0.00    +0.000 A 
ATOM     27  C   UNL     1       7.547   4.707  13.886  0.00  0.00    +0.000 A 
ATOM     28  C   UNL     1       6.539   3.907  14.466  0.00  0.00    +0.000 A 
ATOM     29  C   UNL     1       5.566   3.381  13.611  0.00  0.00    +0.000 A 
ENDBRANCH  22  28
ENDBRANCH   1  22
TORSDOF 5
ENDMDL
MODEL 2
REMARK VINA RESULT:      -7.5      2.197      3.439
REMARK  Name = 
REMARK  8 active torsions:
REMARK  status: ('A' for Active; 'I' for Inactive)
REMARK    1  A    between atoms: C_1  and  C_2
REMARK    2  A    between atoms: C_6  and  C_7
REMARK    3  A    between atoms: C_7  and  N_8
REMARK    4  A    between atoms: C_9  and  C_10
REMARK    5  A    between atoms: C_11  and  C_12
REMARK    6  A    between atoms: C_15  and  C_16
REMARK    7  A    between atoms: N_18  and  C_19
REMARK    8  A    between atoms: C_19  and  C_20
REMARK                            x       y       z     vdW  Elec       q    Type
REMARK                         _______ _______ _______ _____ _____    ______ ____
ROOT
ATOM      1  N   UNL     1       3.350   4.787  17.626  0.00  0.00    +0.000 N 
ATOM      2  C   UNL     1       2.830   4.221  18.808  0.00  0.00    +0.000 A 
ATOM      3  C   UNL     1       1.310   4.162  18.860  0.00  0.00    +0.000 C 
ATOM      4  C   UNL     1       3.745   4.855  19.672  0.00  0.00    +0.000 A 
ATOM      5  C   UNL     1       5.240   4.595  19.770  0.00  0.00    +0.000 C 
ATOM      6  C   UNL     1       3.273   6.153  19.358  0.00  0.00    +0.000 A 
ATOM      7  C   UNL     1       2.575   7.138  20.066  0.00  0.00    +0.000 A 
ATOM      8  C   UNL     1       2.020   8.172  19.320  0.00  0.00    +0.000 A 
ATOM      9  C   UNL     1       2.413   8.355  17.980  0.00  0.00    +0.000 A 
ATOM     10  C   UNL     1       3.115   7.358  17.250  0.00  0.00    +0.000 A 
ATOM     11  C   UNL     1       3.308   6.158  17.934  0.00  0.00    +0.000 A 
ENDROOT
BRANCH   8  12
ATOM     12  C   UNL     1       0.876   8.917  19.950  0.00  0.00    +0.000 C 
ATOM     13  O   UNL     1       0.356   8.515  20.980  0.00  0.00    +0.000 OA
ATOM     14  N   UNL     1       0.392   9.979  19.216  0.00  0.00    +0.000 N 
ATOM     15  H   UNL     1       0.781  10.180  18.309  0.00  0.00    +0.000 HD
BRANCH  14  16
ATOM     16  C   UNL     1      -0.824  10.687  19.558  0.00  0.00    +0.000 C 
BRANCH  16  17
ATOM     17  C   UNL     1      -1.777  10.610  18.420  0.00  0.00    +0.000 A 
ATOM     18  C   UNL     1      -1.779   9.922  17.215  0.00  0.00    +0.000 A 
ATOM     19  C   UNL     1      -3.006  10.222  16.573  0.00  0.00    +0.000 A 
ATOM     20  C   UNL     1      -3.676  11.079  17.412  0.00  0.00    +0.000 A 
ATOM     21  O   UNL     1      -2.938  11.331  18.525  0.00  0.00    +0.000 OA
ENDBRANCH  16  17
ENDBRANCH  14  16
ENDBRANCH   8  12
BRANCH   1  22
ATOM     22  C   UNL     1       3.746   3.890  16.541  0.00  0.00    +0.000 C 
BRANCH  22  28
ATOM     23  C   UNL     1       6.544   3.733  12.319  0.00  0.00    +0.000 C 
ATOM     24  C   UNL     1       6.396   4.111  13.761  0.00  0.00    +0.000 A 
ATOM     25  C   UNL     1       7.359   4.903  14.388  0.00  0.00    +0.000 A 
ATOM     26  C   UNL     1       7.192   5.286  15.713  0.00  0.00    +0.000 A 
ATOM     27  C   UNL     1       6.041   4.899  16.404  0.00  0.00    +0.000 A 
ATOM     28  C   UNL     1       5.048   4.094  15.805  0.00  0.00    +0.000 A 
ATOM     29  C   UNL     1       5.245   3.716  14.473  0.00  0.00    +0.000 A 
ENDBRANCH  22  28
ENDBRANCH   1  22
TORSDOF 5
ENDMDL
MODEL 3
REMARK VINA RESULT:      -7.5      4.458     10.882
REMARK  Name = 
REMARK  8 active torsions:
REMARK  status: ('A' for Active; 'I' for Inactive)
REMARK    1  A    between atoms: C_1  and  C_2
REMARK    2  A    between atoms: C_6  and  C_7
REMARK    3  A    between atoms: C_7  and  N_8
REMARK    4  A    between atoms: C_9  and  C_10
REMARK    5  A    between atoms: C_11  and  C_12
REMARK    6  A    between atoms: C_15  and  C_16
REMARK    7  A    between atoms: N_18  and  C_19
REMARK    8  A    between atoms: C_19  and  C_20
REMARK                            x       y       z     vdW  Elec       q    Type
REMARK                         _______ _______ _______ _____ _____    ______ ____
ROOT
ATOM      1  N   UNL     1      -1.995  11.935  19.577  0.00  0.00    +0.000 N 
ATOM      2  C   UNL     1      -1.752  12.163  18.207  0.00  0.00    +0.000 A 
ATOM      3  C   UNL     1      -2.082  10.980  17.306  0.00  0.00    +0.000 C 
ATOM      4  C   UNL     1      -0.535  12.846  18.400  0.00  0.00    +0.000 A 
ATOM      5  C   UNL     1      -0.346  14.215  19.036  0.00  0.00    +0.000 C 
ATOM      6  C   UNL     1       0.111  11.714  18.955  0.00  0.00    +0.000 A 
ATOM      7  C   UNL     1       1.144  10.871  18.530  0.00  0.00    +0.000 A 
ATOM      8  C   UNL     1       1.299   9.673  19.219  0.00  0.00    +0.000 A 
ATOM      9  C   UNL     1       0.646   9.489  20.454  0.00  0.00    +0.000 A 
ATOM     10  C   UNL     1      -0.409  10.334  20.891  0.00  0.00    +0.000 A 
ATOM     11  C   UNL     1      -0.802  11.305  19.969  0.00  0.00    +0.000 A 
ENDROOT
BRANCH   8  12
ATOM     12  C   UNL     1       2.011   8.567  18.492  0.00  0.00    +0.000 C 
ATOM     13  O   UNL     1       2.250   8.652  17.298  0.00  0.00    +0.000 OA
ATOM     14  N   UNL     1       2.242   7.428  19.236  0.00  0.00    +0.000 N 
ATOM     15  H   UNL     1       1.903   7.372  20.183  0.00  0.00    +0.000 HD
BRANCH  14  16
ATOM     16  C   UNL     1       2.730   6.193  18.660  0.00  0.00    +0.000 C 
BRANCH  16  17
ATOM     17  C   UNL     1       2.092   5.041  19.349  0.00  0.00    +0.000 A 
ATOM     18  C   UNL     1       1.778   4.768  20.672  0.00  0.00    +0.000 A 
ATOM     19  C   UNL     1       1.123   3.512  20.688  0.00  0.00    +0.000 A 
ATOM     20  C   UNL     1       1.083   3.085  19.383  0.00  0.00    +0.000 A 
ATOM     21  O   UNL     1       1.677   3.994  18.566  0.00  0.00    +0.000 OA
ENDBRANCH  16  17
ENDBRANCH  14  16
ENDBRANCH   8  12
BRANCH   1  22
ATOM     22  C   UNL     1      -3.272  12.375  20.138  0.00  0.00    +0.000 C 
BRANCH  22  28
ATOM     23  C   UNL     1      -1.400  14.685  24.241  0.00  0.00    +0.000 C 
ATOM     24  C   UNL     1      -2.531  13.988  23.552  0.00  0.00    +0.000 A 
ATOM     25  C   UNL     1      -3.800  13.953  24.132  0.00  0.00    +0.000 A 
ATOM     26  C   UNL     1      -4.856  13.343  23.465  0.00  0.00    +0.000 A 
ATOM     27  C   UNL     1      -4.645  12.792  22.199  0.00  0.00    +0.000 A 
ATOM     28  C   UNL     1      -3.375  12.803  21.583  0.00  0.00    +0.000 A 
ATOM     29  C   UNL     1      -2.330  13.417  22.279  0.00  0.00    +0.000 A 
ENDBRANCH  22  28
ENDBRANCH   1  22
TORSDOF 5
ENDMDL
MODEL 4
REMARK VINA RESULT:      -7.5      0.545      1.408
REMARK  Name = 
REMARK  8 active torsions:
REMARK  status: ('A' for Active; 'I' for Inactive)
REMARK    1  A    between atoms: C_1  and  C_2
REMARK    2  A    between atoms: C_6  and  C_7
REMARK    3  A    between atoms: C_7  and  N_8
REMARK    4  A    between atoms: C_9  and  C_10
REMARK    5  A    between atoms: C_11  and  C_12
REMARK    6  A    between atoms: C_15  and  C_16
REMARK    7  A    between atoms: N_18  and  C_19
REMARK    8  A    between atoms: C_19  and  C_20
REMARK                            x       y       z     vdW  Elec       q    Type
REMARK                         _______ _______ _______ _____ _____    ______ ____
ROOT
ATOM      1  N   UNL     1       5.150   4.682  16.654  0.00  0.00    +0.000 N 
ATOM      2  C   UNL     1       5.864   5.753  17.231  0.00  0.00    +0.000 A 
ATOM      3  C   UNL     1       6.304   5.511  18.669  0.00  0.00    +0.000 C 
ATOM      4  C   UNL     1       5.047   6.765  16.689  0.00  0.00    +0.000 A 
ATOM      5  C   UNL     1       4.927   7.155  15.224  0.00  0.00    +0.000 C 
ATOM      6  C   UNL     1       3.900   6.340  17.403  0.00  0.00    +0.000 A 
ATOM      7  C   UNL     1       3.143   6.881  18.450  0.00  0.00    +0.000 A 
ATOM      8  C   UNL     1       2.259   6.021  19.093  0.00  0.00    +0.000 A 
ATOM      9  C   UNL     1       1.944   4.779  18.508  0.00  0.00    +0.000 A 
ATOM     10  C   UNL     1       2.710   4.218  17.452  0.00  0.00    +0.000 A 
ATOM     11  C   UNL     1       3.844   4.950  17.097  0.00  0.00    +0.000 A 
ENDROOT
BRANCH   8  12
ATOM     12  C   UNL     1       1.844   6.403  20.486  0.00  0.00    +0.000 C 
ATOM     13  O   UNL     1       1.499   5.554  21.293  0.00  0.00    +0.000 OA
ATOM     14  N   UNL     1       1.760   7.759  20.722  0.00  0.00    +0.000 N 
ATOM     15  H   UNL     1       1.933   8.410  19.973  0.00  0.00    +0.000 HD
BRANCH  14  16
ATOM     16  C   UNL     1       1.189   8.316  21.931  0.00  0.00    +0.000 C 
BRANCH  16  17
ATOM     17  C   UNL     1       0.479   9.581  21.603  0.00  0.00    +0.000 A 
ATOM     18  C   UNL     1       0.015  10.143  20.423  0.00  0.00    +0.000 A 
ATOM     19  C   UNL     1      -0.633  11.354  20.771  0.00  0.00    +0.000 A 
ATOM     20  C   UNL     1      -0.519  11.469  22.136  0.00  0.00    +0.000 A 
ATOM     21  O   UNL     1       0.162  10.410  22.648  0.00  0.00    +0.000 OA
ENDBRANCH  16  17
ENDBRANCH  14  16
ENDBRANCH   8  12
BRANCH   1  22
ATOM     22  C   UNL     1       5.887   3.713  15.844  0.00  0.00    +0.000 C 
BRANCH  22  28
ATOM     23  C   UNL     1       8.849   6.076  12.481  0.00  0.00    +0.000 C 
ATOM     24  C   UNL     1       7.758   5.096  12.780  0.00  0.00    +0.000 A 
ATOM     25  C   UNL     1       7.266   4.256  11.779  0.00  0.00    +0.000 A 
ATOM     26  C   UNL     1       6.285   3.318  12.076  0.00  0.00    +0.000 A 
ATOM     27  C   UNL     1       5.816   3.200  13.387  0.00  0.00    +0.000 A 
ATOM     28  C   UNL     1       6.286   4.035  14.424  0.00  0.00    +0.000 A 
ATOM     29  C   UNL     1       7.268   4.975  14.096  0.00  0.00    +0.000 A 
ENDBRANCH  22  28
ENDBRANCH   1  22
TORSDOF 5
ENDMDL
MODEL 5
REMARK VINA RESULT:      -7.4      3.635     11.026
REMARK  Name = 
REMARK  8 active torsions:
REMARK  status: ('A' for Active; 'I' for Inactive)
REMARK    1  A    between atoms: C_1  and  C_2
REMARK    2  A    between atoms: C_6  and  C_7
REMARK    3  A    between atoms: C_7  and  N_8
REMARK    4  A    between atoms: C_9  and  C_10
REMARK    5  A    between atoms: C_11  and  C_12
REMARK    6  A    between atoms: C_15  and  C_16
REMARK    7  A    between atoms: N_18  and  C_19
REMARK    8  A    between atoms: C_19  and  C_20
REMARK                            x       y       z     vdW  Elec       q    Type
REMARK                         _______ _______ _______ _____ _____    ______ ____
ROOT
ATOM      1  N   UNL     1      -1.238  12.620  20.687  0.00  0.00    +0.000 N 
ATOM      2  C   UNL     1      -0.064  12.620  21.469  0.00  0.00    +0.000 A 
ATOM      3  C   UNL     1       1.168  13.151  20.750  0.00  0.00    +0.000 C 
ATOM      4  C   UNL     1      -0.300  11.364  22.062  0.00  0.00    +0.000 A 
ATOM      5  C   UNL     1      -1.398  11.014  23.054  0.00  0.00    +0.000 C 
ATOM      6  C   UNL     1      -0.213  10.670  20.831  0.00  0.00    +0.000 A 
ATOM      7  C   UNL     1       0.701   9.763  20.281  0.00  0.00    +0.000 A 
ATOM      8  C   UNL     1       0.607   9.530  18.913  0.00  0.00    +0.000 A 
ATOM      9  C   UNL     1      -0.538   9.955  18.210  0.00  0.00    +0.000 A 
ATOM     10  C   UNL     1      -1.466  10.881  18.755  0.00  0.00    +0.000 A 
ATOM     11  C   UNL     1      -1.114  11.399  20.002  0.00  0.00    +0.000 A 
ENDROOT
BRANCH   8  12
ATOM     12  C   UNL     1       1.840   9.002  18.235  0.00  0.00    +0.000 C 
ATOM     13  O   UNL     1       2.313   9.568  17.262  0.00  0.00    +0.000 OA
ATOM     14  N   UNL     1       2.296   7.789  18.707  0.00  0.00    +0.000 N 
ATOM     15  H   UNL     1       1.783   7.308  19.429  0.00  0.00    +0.000 HD
BRANCH  14  16
ATOM     16  C   UNL     1       3.342   7.030  18.054  0.00  0.00    +0.000 C 
BRANCH  16  17
ATOM     17  C   UNL     1       2.921   5.608  17.940  0.00  0.00    +0.000 A 
ATOM     18  C   UNL     1       1.834   4.888  18.413  0.00  0.00    +0.000 A 
ATOM     19  C   UNL     1       1.971   3.567  17.920  0.00  0.00    +0.000 A 
ATOM     20  C   UNL     1       3.133   3.551  17.188  0.00  0.00    +0.000 A 
ATOM     21  O   UNL     1       3.723   4.775  17.203  0.00  0.00    +0.000 OA
ENDBRANCH  16  17
ENDBRANCH  14  16
ENDBRANCH   8  12
BRANCH   1  22
ATOM     22  C   UNL     1      -2.151  13.757  20.803  0.00  0.00    +0.000 C 
BRANCH  22  28
ATOM     23  C   UNL     1      -6.780  11.699  20.709  0.00  0.00    +0.000 C 
ATOM     24  C   UNL     1      -5.749  12.533  21.403  0.00  0.00    +0.000 A 
ATOM     25  C   UNL     1      -5.943  12.947  22.722  0.00  0.00    +0.000 A 
ATOM     26  C   UNL     1      -4.961  13.683  23.374  0.00  0.00    +0.000 A 
ATOM     27  C   UNL     1      -3.767  13.979  22.713  0.00  0.00    +0.000 A 
ATOM     28  C   UNL     1      -3.536  13.581  21.378  0.00  0.00    +0.000 A 
ATOM     29  C   UNL     1      -4.544  12.849  20.743  0.00  0.00    +0.000 A 
ENDBRANCH  22  28
ENDBRANCH   1  22
TORSDOF 5
ENDMDL
MODEL 6
REMARK VINA RESULT:      -7.4      4.432     10.768
REMARK  Name = 
REMARK  8 active torsions:
REMARK  status: ('A' for Active; 'I' for Inactive)
REMARK    1  A    between atoms: C_1  and  C_2
REMARK    2  A    between atoms: C_6  and  C_7
REMARK    3  A    between atoms: C_7  and  N_8
REMARK    4  A    between atoms: C_9  and  C_10
REMARK    5  A    between atoms: C_11  and  C_12
REMARK    6  A    between atoms: C_15  and  C_16
REMARK    7  A    between atoms: N_18  and  C_19
REMARK    8  A    between atoms: C_19  and  C_20
REMARK                            x       y       z     vdW  Elec       q    Type
REMARK                         _______ _______ _______ _____ _____    ______ ____
ROOT
ATOM      1  N   UNL     1      -1.928  11.978  19.418  0.00  0.00    +0.000 N 
ATOM      2  C   UNL     1      -1.630  12.210  18.059  0.00  0.00    +0.000 A 
ATOM      3  C   UNL     1      -1.950  11.039  17.139  0.00  0.00    +0.000 C 
ATOM      4  C   UNL     1      -0.408  12.867  18.301  0.00  0.00    +0.000 A 
ATOM      5  C   UNL     1      -0.216  14.228  18.952  0.00  0.00    +0.000 C 
ATOM      6  C   UNL     1       0.195  11.720  18.871  0.00  0.00    +0.000 A 
ATOM      7  C   UNL     1       1.227  10.858  18.478  0.00  0.00    +0.000 A 
ATOM      8  C   UNL     1       1.333   9.654  19.164  0.00  0.00    +0.000 A 
ATOM      9  C   UNL     1       0.632   9.475  20.373  0.00  0.00    +0.000 A 
ATOM     10  C   UNL     1      -0.421  10.339  20.777  0.00  0.00    +0.000 A 
ATOM     11  C   UNL     1      -0.761  11.322  19.849  0.00  0.00    +0.000 A 
ENDROOT
BRANCH   8  12
ATOM     12  C   UNL     1       2.049   8.538  18.457  0.00  0.00    +0.000 C 
ATOM     13  O   UNL     1       2.206   8.561  17.245  0.00  0.00    +0.000 OA
ATOM     14  N   UNL     1       2.382   7.458  19.248  0.00  0.00    +0.000 N 
ATOM     15  H   UNL     1       2.108   7.445  20.217  0.00  0.00    +0.000 HD
BRANCH  14  16
ATOM     16  C   UNL     1       2.891   6.214  18.712  0.00  0.00    +0.000 C 
BRANCH  16  17
ATOM     17  C   UNL     1       2.139   5.077  19.305  0.00  0.00    +0.000 A 
ATOM     18  C   UNL     1       1.614   4.826  20.564  0.00  0.00    +0.000 A 
ATOM     19  C   UNL     1       0.952   3.576  20.492  0.00  0.00    +0.000 A 
ATOM     20  C   UNL     1       1.117   3.130  19.203  0.00  0.00    +0.000 A 
ATOM     21  O   UNL     1       1.844   4.022  18.479  0.00  0.00    +0.000 OA
ENDBRANCH  16  17
ENDBRANCH  14  16
ENDBRANCH   8  12
BRANCH   1  22
ATOM     22  C   UNL     1      -3.215  12.440  19.936  0.00  0.00    +0.000 C 
BRANCH  22  28
ATOM     23  C   UNL     1      -5.486  12.561  24.464  0.00  0.00    +0.000 C 
ATOM     24  C   UNL     1      -4.363  12.981  23.568  0.00  0.00    +0.000 A 
ATOM     25  C   UNL     1      -3.256  13.655  24.088  0.00  0.00    +0.000 A 
ATOM     26  C   UNL     1      -2.196  14.001  23.258  0.00  0.00    +0.000 A 
ATOM     27  C   UNL     1      -2.233  13.646  21.908  0.00  0.00    +0.000 A 
ATOM     28  C   UNL     1      -3.337  12.969  21.345  0.00  0.00    +0.000 A 
ATOM     29  C   UNL     1      -4.392  12.639  22.201  0.00  0.00    +0.000 A 
ENDBRANCH  22  28
ENDBRANCH   1  22
TORSDOF 5
ENDMDL
MODEL 7
REMARK VINA RESULT:      -7.3      2.990      9.084
REMARK  Name = 
REMARK  8 active torsions:
REMARK  status: ('A' for Active; 'I' for Inactive)
REMARK    1  A    between atoms: C_1  and  C_2
REMARK    2  A    between atoms: C_6  and  C_7
REMARK    3  A    between atoms: C_7  and  N_8
REMARK    4  A    between atoms: C_9  and  C_10
REMARK    5  A    between atoms: C_11  and  C_12
REMARK    6  A    between atoms: C_15  and  C_16
REMARK    7  A    between atoms: N_18  and  C_19
REMARK    8  A    between atoms: C_19  and  C_20
REMARK                            x       y       z     vdW  Elec       q    Type
REMARK                         _______ _______ _______ _____ _____    ______ ____
ROOT
ATOM      1  N   UNL     1       3.124   5.502  19.282  0.00  0.00    +0.000 N 
ATOM      2  C   UNL     1       3.468   4.134  19.261  0.00  0.00    +0.000 A 
ATOM      3  C   UNL     1       4.936   3.853  19.553  0.00  0.00    +0.000 C 
ATOM      4  C   UNL     1       2.690   3.819  18.129  0.00  0.00    +0.000 A 
ATOM      5  C   UNL     1       1.172   3.814  18.037  0.00  0.00    +0.000 C 
ATOM      6  C   UNL     1       3.447   4.652  17.270  0.00  0.00    +0.000 A 
ATOM      7  C   UNL     1       4.324   4.420  16.203  0.00  0.00    +0.000 A 
ATOM      8  C   UNL     1       5.117   5.488  15.799  0.00  0.00    +0.000 A 
ATOM      9  C   UNL     1       4.815   6.790  16.246  0.00  0.00    +0.000 A 
ATOM     10  C   UNL     1       3.934   7.036  17.333  0.00  0.00    +0.000 A 
ATOM     11  C   UNL     1       3.458   5.891  17.973  0.00  0.00    +0.000 A 
ENDROOT
BRANCH   8  12
ATOM     12  C   UNL     1       6.377   5.146  15.055  0.00  0.00    +0.000 C 
ATOM     13  O   UNL     1       7.460   5.575  15.422  0.00  0.00    +0.000 OA
ATOM     14  N   UNL     1       6.193   4.443  13.882  0.00  0.00    +0.000 N 
ATOM     15  H   UNL     1       5.260   4.231  13.566  0.00  0.00    +0.000 HD
BRANCH  14  16
ATOM     16  C   UNL     1       7.259   4.198  12.933  0.00  0.00    +0.000 C 
BRANCH  16  17
ATOM     17  C   UNL     1       6.892   3.048  12.065  0.00  0.00    +0.000 A 
ATOM     18  C   UNL     1       7.620   2.171  11.276  0.00  0.00    +0.000 A 
ATOM     19  C   UNL     1       6.695   1.247  10.729  0.00  0.00    +0.000 A 
ATOM     20  C   UNL     1       5.460   1.616  11.203  0.00  0.00    +0.000 A 
ATOM     21  O   UNL     1       5.564   2.711  12.001  0.00  0.00    +0.000 OA
ENDBRANCH  16  17
ENDBRANCH  14  16
ENDBRANCH   8  12
BRANCH   1  22
ATOM     22  C   UNL     1       2.573   6.061  20.516  0.00  0.00    +0.000 C 
BRANCH  22  28
ATOM     23  C   UNL     1       1.137  10.339  18.211  0.00  0.00    +0.000 C 
ATOM     24  C   UNL     1       1.062   9.414  19.386  0.00  0.00    +0.000 A 
ATOM     25  C   UNL     1       0.109   9.615  20.386  0.00  0.00    +0.000 A 
ATOM     26  C   UNL     1       0.017   8.726  21.450  0.00  0.00    +0.000 A 
ATOM     27  C   UNL     1       0.862   7.615  21.497  0.00  0.00    +0.000 A 
ATOM     28  C   UNL     1       1.842   7.382  20.507  0.00  0.00    +0.000 A 
ATOM     29  C   UNL     1       1.918   8.296  19.452  0.00  0.00    +0.000 A 
ENDBRANCH  22  28
ENDBRANCH   1  22
TORSDOF 5
ENDMDL
MODEL 8
REMARK VINA RESULT:      -7.1      3.206     10.231
REMARK  Name = 
REMARK  8 active torsions:
REMARK  status: ('A' for Active; 'I' for Inactive)
REMARK    1  A    between atoms: C_1  and  C_2
REMARK    2  A    between atoms: C_6  and  C_7
REMARK    3  A    between atoms: C_7  and  N_8
REMARK    4  A    between atoms: C_9  and  C_10
REMARK    5  A    between atoms: C_11  and  C_12
REMARK    6  A    between atoms: C_15  and  C_16
REMARK    7  A    between atoms: N_18  and  C_19
REMARK    8  A    between atoms: C_19  and  C_20
REMARK                            x       y       z     vdW  Elec       q    Type
REMARK                         _______ _______ _______ _____ _____    ______ ____
ROOT
ATOM      1  N   UNL     1      -0.909  11.120  19.774  0.00  0.00    +0.000 N 
ATOM      2  C   UNL     1      -0.481  10.951  18.440  0.00  0.00    +0.000 A 
ATOM      3  C   UNL     1      -1.065   9.729  17.744  0.00  0.00    +0.000 C 
ATOM      4  C   UNL     1       0.861  11.302  18.686  0.00  0.00    +0.000 A 
ATOM      5  C   UNL     1       1.391  12.676  19.068  0.00  0.00    +0.000 C 
ATOM      6  C   UNL     1       1.083  10.197  19.543  0.00  0.00    +0.000 A 
ATOM      7  C   UNL     1       1.851   9.029  19.455  0.00  0.00    +0.000 A 
ATOM      8  C   UNL     1       1.575   8.026  20.378  0.00  0.00    +0.000 A 
ATOM      9  C   UNL     1       0.784   8.316  21.507  0.00  0.00    +0.000 A 
ATOM     10  C   UNL     1      -0.004   9.493  21.603  0.00  0.00    +0.000 A 
ATOM     11  C   UNL     1      -0.001  10.296  20.462  0.00  0.00    +0.000 A 
ENDROOT
BRANCH   8  12
ATOM     12  C   UNL     1       1.987   6.632  19.999  0.00  0.00    +0.000 C 
ATOM     13  O   UNL     1       1.502   5.660  20.557  0.00  0.00    +0.000 OA
ATOM     14  N   UNL     1       3.024   6.552  19.093  0.00  0.00    +0.000 N 
ATOM     15  H   UNL     1       3.470   7.395  18.767  0.00  0.00    +0.000 HD
BRANCH  14  16
ATOM     16  C   UNL     1       3.690   5.310  18.761  0.00  0.00    +0.000 C 
BRANCH  16  17
ATOM     17  C   UNL     1       5.138   5.568  18.548  0.00  0.00    +0.000 A 
ATOM     18  C   UNL     1       5.884   6.022  17.470  0.00  0.00    +0.000 A 
ATOM     19  C   UNL     1       7.228   6.109  17.908  0.00  0.00    +0.000 A 
ATOM     20  C   UNL     1       7.231   5.696  19.218  0.00  0.00    +0.000 A 
ATOM     21  O   UNL     1       5.976   5.353  19.612  0.00  0.00    +0.000 OA
ENDBRANCH  16  17
ENDBRANCH  14  16
ENDBRANCH   8  12
BRANCH   1  22
ATOM     22  C   UNL     1      -2.041  12.008  20.034  0.00  0.00    +0.000 C 
BRANCH  22  28
ATOM     23  C   UNL     1      -4.201  12.638  24.574  0.00  0.00    +0.000 C 
ATOM     24  C   UNL     1      -3.137  13.001  23.585  0.00  0.00    +0.000 A 
ATOM     25  C   UNL     1      -2.075  13.826  23.959  0.00  0.00    +0.000 A 
ATOM     26  C   UNL     1      -1.068  14.123  23.048  0.00  0.00    +0.000 A 
ATOM     27  C   UNL     1      -1.109  13.566  21.768  0.00  0.00    +0.000 A 
ATOM     28  C   UNL     1      -2.170  12.732  21.352  0.00  0.00    +0.000 A 
ATOM     29  C   UNL     1      -3.173  12.456  22.286  0.00  0.00    +0.000 A 
ENDBRANCH  22  28
ENDBRANCH   1  22
TORSDOF 5
ENDMDL
MODEL 9
REMARK VINA RESULT:      -7.0      1.797      3.116
REMARK  Name = 
REMARK  8 active torsions:
REMARK  status: ('A' for Active; 'I' for Inactive)
REMARK    1  A    between atoms: C_1  and  C_2
REMARK    2  A    between atoms: C_6  and  C_7
REMARK    3  A    between atoms: C_7  and  N_8
REMARK    4  A    between atoms: C_9  and  C_10
REMARK    5  A    between atoms: C_11  and  C_12
REMARK    6  A    between atoms: C_15  and  C_16
REMARK    7  A    between atoms: N_18  and  C_19
REMARK    8  A    between atoms: C_19  and  C_20
REMARK                            x       y       z     vdW  Elec       q    Type
REMARK                         _______ _______ _______ _____ _____    ______ ____
ROOT
ATOM      1  N   UNL     1       3.667   4.431  17.675  0.00  0.00    +0.000 N 
ATOM      2  C   UNL     1       2.514   4.072  18.403  0.00  0.00    +0.000 A 
ATOM      3  C   UNL     1       1.205   4.309  17.661  0.00  0.00    +0.000 C 
ATOM      4  C   UNL     1       2.968   4.588  19.633  0.00  0.00    +0.000 A 
ATOM      5  C   UNL     1       4.114   4.056  20.480  0.00  0.00    +0.000 C 
ATOM      6  C   UNL     1       3.000   5.922  19.159  0.00  0.00    +0.000 A 
ATOM      7  C   UNL     1       2.258   7.077  19.434  0.00  0.00    +0.000 A 
ATOM      8  C   UNL     1       2.387   8.134  18.539  0.00  0.00    +0.000 A 
ATOM      9  C   UNL     1       3.437   8.128  17.600  0.00  0.00    +0.000 A 
ATOM     10  C   UNL     1       4.190   6.960  17.307  0.00  0.00    +0.000 A 
ATOM     11  C   UNL     1       3.757   5.805  17.958  0.00  0.00    +0.000 A 
ENDROOT
BRANCH   8  12
ATOM     12  C   UNL     1       1.263   9.131  18.511  0.00  0.00    +0.000 C 
ATOM     13  O   UNL     1       0.599   9.301  17.500  0.00  0.00    +0.000 OA
ATOM     14  N   UNL     1       1.140   9.909  19.643  0.00  0.00    +0.000 N 
ATOM     15  H   UNL     1       1.804   9.809  20.394  0.00  0.00    +0.000 HD
BRANCH  14  16
ATOM     16  C   UNL     1       0.254  11.051  19.724  0.00  0.00    +0.000 C 
BRANCH  16  17
ATOM     17  C   UNL     1      -0.353  11.109  21.080  0.00  0.00    +0.000 A 
ATOM     18  C   UNL     1      -0.629  10.156  22.050  0.00  0.00    +0.000 A 
ATOM     19  C   UNL     1      -1.168  10.848  23.163  0.00  0.00    +0.000 A 
ATOM     20  C   UNL     1      -1.201  12.175  22.809  0.00  0.00    +0.000 A 
ATOM     21  O   UNL     1      -0.724  12.344  21.548  0.00  0.00    +0.000 OA
ENDBRANCH  16  17
ENDBRANCH  14  16
ENDBRANCH   8  12
BRANCH   1  22
ATOM     22  C   UNL     1       4.367   3.389  16.923  0.00  0.00    +0.000 C 
BRANCH  22  28
ATOM     23  C   UNL     1       6.119   3.702  12.179  0.00  0.00    +0.000 C 
ATOM     24  C   UNL     1       6.281   3.988  13.640  0.00  0.00    +0.000 A 
ATOM     25  C   UNL     1       7.302   4.827  14.088  0.00  0.00    +0.000 A 
ATOM     26  C   UNL     1       7.418   5.124  15.441  0.00  0.00    +0.000 A 
ATOM     27  C   UNL     1       6.489   4.601  16.344  0.00  0.00    +0.000 A 
ATOM     28  C   UNL     1       5.446   3.745  15.929  0.00  0.00    +0.000 A 
ATOM     29  C   UNL     1       5.357   3.457  14.563  0.00  0.00    +0.000 A 
ENDBRANCH  22  28
ENDBRANCH   1  22
TORSDOF 5
ENDMDL
