MODEL 1
REMARK VINA RESULT:      -7.5      0.000      0.000
REMARK  Name = 
REMARK  10 active torsions:
REMARK  status: ('A' for Active; 'I' for Inactive)
REMARK    1  A    between atoms: C_1  and  O_2
REMARK    2  A    between atoms: O_2  and  C_3
REMARK    3  A    between atoms: C_4  and  N_5
REMARK    4  A    between atoms: C_6  and  C_8
REMARK    5  A    between atoms: C_12  and  C_13
REMARK    6  A    between atoms: C_20  and  C_21
REMARK    7  A    between atoms: C_25  and  C_27
REMARK    8  A    between atoms: C_27  and  C_28
REMARK    9  A    between atoms: C_27  and  C_29
REMARK   10  A    between atoms: N_33  and  C_34
REMARK                            x       y       z     vdW  Elec       q    Type
REMARK                         _______ _______ _______ _____ _____    ______ ____
ROOT
ATOM      1  C   UNL     1       1.360   9.379  19.953  0.00  0.00    +0.000 A 
ATOM      2  C   UNL     1       1.460   8.254  20.805  0.00  0.00    +0.000 A 
ATOM      3  C   UNL     1       0.712   8.230  21.981  0.00  0.00    +0.000 A 
ATOM      4  N   UNL     1      -0.085   9.213  22.432  0.00  0.00    +0.000 NA
ATOM      5  C   UNL     1      -0.157  10.263  21.595  0.00  0.00    +0.000 A 
ATOM      6  C   UNL     1       0.494  10.441  20.368  0.00  0.00    +0.000 A 
ATOM      7  C   UNL     1       0.031  11.728  19.858  0.00  0.00    +0.000 A 
ATOM      8  C   UNL     1      -0.870  12.217  20.800  0.00  0.00    +0.000 A 
ATOM      9  N   UNL     1      -0.924  11.358  21.855  0.00  0.00    +0.000 N 
ATOM     10  C   UNL     1      -1.693  11.562  23.058  0.00  0.00    +0.000 C 
ENDROOT
BRANCH   7  11
ATOM     11  C   UNL     1       0.373  12.418  18.545  0.00  0.00    +0.000 C 
ATOM     12  C   UNL     1       1.838  12.876  18.467  0.00  0.00    +0.000 C 
ATOM     13  C   UNL     1       2.107  14.136  19.288  0.00  0.00    +0.000 C 
ATOM     14  N   UNL     1       1.201  15.219  18.899  0.00  0.00    +0.000 N 
ATOM     15  C   UNL     1       1.728  16.457  18.551  0.00  0.00    +0.000 C 
ATOM     16  O   UNL     1       2.943  16.670  18.572  0.00  0.00    +0.000 OA
ATOM     17  C   UNL     1      -0.213  14.887  19.014  0.00  0.00    +0.000 C 
ATOM     18  C   UNL     1      -0.543  13.625  18.207  0.00  0.00    +0.000 C 
BRANCH  15  19
ATOM     19  C   UNL     1       0.762  17.580  18.160  0.00  0.00    +0.000 C 
ATOM     20  C   UNL     1       0.675  18.620  19.275  0.00  0.00    +0.000 C 
ATOM     21  C   UNL     1       1.209  18.237  16.854  0.00  0.00    +0.000 C 
ENDBRANCH  15  19
ENDBRANCH   7  11
BRANCH   2  22
ATOM     22  N   UNL     1       2.324   7.157  20.547  0.00  0.00    +0.000 N 
ATOM     23  C   UNL     1       1.772   5.883  20.456  0.00  0.00    +0.000 C 
ATOM     24  O   UNL     1       0.583   5.640  20.639  0.00  0.00    +0.000 OA
ATOM     25  H   UNL     1       3.161   7.356  20.018  0.00  0.00    +0.000 HD
BRANCH  23  26
ATOM     26  C   UNL     1       2.661   4.761  20.041  0.00  0.00    +0.000 A 
ATOM     27  C   UNL     1       2.223   3.434  19.983  0.00  0.00    +0.000 A 
ATOM     28  C   UNL     1       3.064   2.447  19.454  0.00  0.00    +0.000 A 
ATOM     29  C   UNL     1       4.338   2.783  18.988  0.00  0.00    +0.000 A 
ATOM     30  C   UNL     1       4.801   4.099  19.069  0.00  0.00    +0.000 A 
ATOM     31  C   UNL     1       3.959   5.085  19.603  0.00  0.00    +0.000 A 
BRANCH  30  32
ATOM     32  C   UNL     1       6.113   4.441  18.590  0.00  0.00    +0.000 C 
ATOM     33  N   UNL     1       7.173   4.719  18.194  0.00  0.00    +0.000 NA
ENDBRANCH  30  32
ENDBRANCH  23  26
ENDBRANCH   2  22
BRANCH   1  35
ATOM     34  C   UNL     1       1.435   8.929  17.615  0.00  0.00    +0.000 C 
ATOM     35  O   UNL     1       2.060   9.495  18.771  0.00  0.00    +0.000 OA
ENDBRANCH   1  35
TORSDOF 6
ENDMDL
MODEL 2
REMARK VINA RESULT:      -7.0      3.256      4.577
REMARK  Name = 
REMARK  10 active torsions:
REMARK  status: ('A' for Active; 'I' for Inactive)
REMARK    1  A    between atoms: C_1  and  O_2
REMARK    2  A    between atoms: O_2  and  C_3
REMARK    3  A    between atoms: C_4  and  N_5
REMARK    4  A    between atoms: C_6  and  C_8
REMARK    5  A    between atoms: C_12  and  C_13
REMARK    6  A    between atoms: C_20  and  C_21
REMARK    7  A    between atoms: C_25  and  C_27
REMARK    8  A    between atoms: C_27  and  C_28
REMARK    9  A    between atoms: C_27  and  C_29
REMARK   10  A    between atoms: N_33  and  C_34
REMARK                            x       y       z     vdW  Elec       q    Type
REMARK                         _______ _______ _______ _____ _____    ______ ____
ROOT
ATOM      1  C   UNL     1       1.017   9.806  19.919  0.00  0.00    +0.000 A 
ATOM      2  C   UNL     1       1.360   9.076  18.758  0.00  0.00    +0.000 A 
ATOM      3  C   UNL     1       0.536   9.166  17.637  0.00  0.00    +0.000 A 
ATOM      4  N   UNL     1      -0.613   9.856  17.552  0.00  0.00    +0.000 NA
ATOM      5  C   UNL     1      -0.904  10.539  18.673  0.00  0.00    +0.000 A 
ATOM      6  C   UNL     1      -0.180  10.591  19.870  0.00  0.00    +0.000 A 
ATOM      7  C   UNL     1      -0.914  11.509  20.736  0.00  0.00    +0.000 A 
ATOM      8  C   UNL     1      -2.006  11.951  19.995  0.00  0.00    +0.000 A 
ATOM      9  N   UNL     1      -2.015  11.318  18.790  0.00  0.00    +0.000 N 
ATOM     10  C   UNL     1      -3.034  11.463  17.780  0.00  0.00    +0.000 C 
ENDROOT
BRANCH   7  11
ATOM     11  C   UNL     1      -0.573  11.979  22.144  0.00  0.00    +0.000 C 
ATOM     12  C   UNL     1      -1.548  11.453  23.209  0.00  0.00    +0.000 C 
ATOM     13  C   UNL     1      -2.884  12.194  23.203  0.00  0.00    +0.000 C 
ATOM     14  N   UNL     1      -2.684  13.638  23.346  0.00  0.00    +0.000 N 
ATOM     15  C   UNL     1      -3.367  14.325  24.342  0.00  0.00    +0.000 C 
ATOM     16  O   UNL     1      -4.148  13.748  25.105  0.00  0.00    +0.000 OA
ATOM     17  C   UNL     1      -1.825  14.227  22.328  0.00  0.00    +0.000 C 
ATOM     18  C   UNL     1      -0.464  13.521  22.288  0.00  0.00    +0.000 C 
BRANCH  15  19
ATOM     19  C   UNL     1      -3.154  15.837  24.467  0.00  0.00    +0.000 C 
ATOM     20  C   UNL     1      -4.471  16.535  24.796  0.00  0.00    +0.000 C 
ATOM     21  C   UNL     1      -2.108  16.141  25.540  0.00  0.00    +0.000 C 
ENDBRANCH  15  19
ENDBRANCH   7  11
BRANCH   2  22
ATOM     22  N   UNL     1       2.485   8.213  18.685  0.00  0.00    +0.000 N 
ATOM     23  C   UNL     1       2.387   6.943  19.244  0.00  0.00    +0.000 C 
ATOM     24  O   UNL     1       1.397   6.539  19.849  0.00  0.00    +0.000 OA
ATOM     25  H   UNL     1       3.104   8.343  17.896  0.00  0.00    +0.000 HD
BRANCH  23  26
ATOM     26  C   UNL     1       3.516   5.993  19.035  0.00  0.00    +0.000 A 
ATOM     27  C   UNL     1       3.561   4.731  19.636  0.00  0.00    +0.000 A 
ATOM     28  C   UNL     1       4.579   3.833  19.291  0.00  0.00    +0.000 A 
ATOM     29  C   UNL     1       5.550   4.196  18.352  0.00  0.00    +0.000 A 
ATOM     30  C   UNL     1       5.536   5.465  17.769  0.00  0.00    +0.000 A 
ATOM     31  C   UNL     1       4.518   6.364  18.118  0.00  0.00    +0.000 A 
BRANCH  30  32
ATOM     32  C   UNL     1       6.537   5.835  16.805  0.00  0.00    +0.000 C 
ATOM     33  N   UNL     1       7.354   6.133  16.029  0.00  0.00    +0.000 NA
ENDBRANCH  30  32
ENDBRANCH  23  26
ENDBRANCH   2  22
BRANCH   1  35
ATOM     34  C   UNL     1       1.247   8.981  22.142  0.00  0.00    +0.000 C 
ATOM     35  O   UNL     1       1.767   9.781  21.076  0.00  0.00    +0.000 OA
ENDBRANCH   1  35
TORSDOF 6
ENDMDL
MODEL 3
REMARK VINA RESULT:      -7.0      3.594      4.720
REMARK  Name = 
REMARK  10 active torsions:
REMARK  status: ('A' for Active; 'I' for Inactive)
REMARK    1  A    between atoms: C_1  and  O_2
REMARK    2  A    between atoms: O_2  and  C_3
REMARK    3  A    between atoms: C_4  and  N_5
REMARK    4  A    between atoms: C_6  and  C_8
REMARK    5  A    between atoms: C_12  and  C_13
REMARK    6  A    between atoms: C_20  and  C_21
REMARK    7  A    between atoms: C_25  and  C_27
REMARK    8  A    between atoms: C_27  and  C_28
REMARK    9  A    between atoms: C_27  and  C_29
REMARK   10  A    between atoms: N_33  and  C_34
REMARK                            x       y       z     vdW  Elec       q    Type
REMARK                         _______ _______ _______ _____ _____    ______ ____
ROOT
ATOM      1  C   UNL     1       0.041  11.129  19.448  0.00  0.00    +0.000 A 
ATOM      2  C   UNL     1       0.036  10.020  18.570  0.00  0.00    +0.000 A 
ATOM      3  C   UNL     1      -1.144   9.693  17.903  0.00  0.00    +0.000 A 
ATOM      4  N   UNL     1      -2.329  10.309  18.043  0.00  0.00    +0.000 NA
ATOM      5  C   UNL     1      -2.284  11.360  18.881  0.00  0.00    +0.000 A 
ATOM      6  C   UNL     1      -1.189  11.846  19.605  0.00  0.00    +0.000 A 
ATOM      7  C   UNL     1      -1.677  13.024  20.318  0.00  0.00    +0.000 A 
ATOM      8  C   UNL     1      -3.014  13.166  19.960  0.00  0.00    +0.000 A 
ATOM      9  N   UNL     1      -3.373  12.132  19.150  0.00  0.00    +0.000 N 
ATOM     10  C   UNL     1      -4.700  11.899  18.634  0.00  0.00    +0.000 C 
ENDROOT
BRANCH   7  11
ATOM     11  C   UNL     1      -0.915  13.978  21.227  0.00  0.00    +0.000 C 
ATOM     12  C   UNL     1      -0.764  13.453  22.664  0.00  0.00    +0.000 C 
ATOM     13  C   UNL     1      -2.051  13.582  23.477  0.00  0.00    +0.000 C 
ATOM     14  N   UNL     1      -2.536  14.964  23.476  0.00  0.00    +0.000 N 
ATOM     15  C   UNL     1      -2.808  15.592  24.684  0.00  0.00    +0.000 C 
ATOM     16  O   UNL     1      -2.661  15.009  25.762  0.00  0.00    +0.000 OA
ATOM     17  C   UNL     1      -2.773  15.514  22.147  0.00  0.00    +0.000 C 
ATOM     18  C   UNL     1      -1.511  15.411  21.282  0.00  0.00    +0.000 C 
BRANCH  15  19
ATOM     19  C   UNL     1      -3.328  17.034  24.660  0.00  0.00    +0.000 C 
ATOM     20  C   UNL     1      -4.799  17.077  25.064  0.00  0.00    +0.000 C 
ATOM     21  C   UNL     1      -2.495  17.915  25.590  0.00  0.00    +0.000 C 
ENDBRANCH  15  19
ENDBRANCH   7  11
BRANCH   2  22
ATOM     22  N   UNL     1       1.165   9.185  18.364  0.00  0.00    +0.000 N 
ATOM     23  C   UNL     1       1.524   8.290  19.368  0.00  0.00    +0.000 C 
ATOM     24  O   UNL     1       0.952   8.216  20.452  0.00  0.00    +0.000 OA
ATOM     25  H   UNL     1       1.378   8.941  17.407  0.00  0.00    +0.000 HD
BRANCH  23  26
ATOM     26  C   UNL     1       2.618   7.318  19.085  0.00  0.00    +0.000 A 
ATOM     27  C   UNL     1       2.927   6.260  19.945  0.00  0.00    +0.000 A 
ATOM     28  C   UNL     1       3.871   5.302  19.556  0.00  0.00    +0.000 A 
ATOM     29  C   UNL     1       4.507   5.402  18.315  0.00  0.00    +0.000 A 
ATOM     30  C   UNL     1       4.232   6.472  17.459  0.00  0.00    +0.000 A 
ATOM     31  C   UNL     1       3.288   7.433  17.852  0.00  0.00    +0.000 A 
BRANCH  30  32
ATOM     32  C   UNL     1       4.889   6.573  16.185  0.00  0.00    +0.000 C 
ATOM     33  N   UNL     1       5.420   6.664  15.151  0.00  0.00    +0.000 NA
ENDBRANCH  30  32
ENDBRANCH  23  26
ENDBRANCH   2  22
BRANCH   1  35
ATOM     34  C   UNL     1       1.936  12.569  19.552  0.00  0.00    +0.000 C 
ATOM     35  O   UNL     1       1.157  11.529  20.152  0.00  0.00    +0.000 OA
ENDBRANCH   1  35
TORSDOF 6
ENDMDL
MODEL 4
REMARK VINA RESULT:      -7.0      3.562      4.776
REMARK  Name = 
REMARK  10 active torsions:
REMARK  status: ('A' for Active; 'I' for Inactive)
REMARK    1  A    between atoms: C_1  and  O_2
REMARK    2  A    between atoms: O_2  and  C_3
REMARK    3  A    between atoms: C_4  and  N_5
REMARK    4  A    between atoms: C_6  and  C_8
REMARK    5  A    between atoms: C_12  and  C_13
REMARK    6  A    between atoms: C_20  and  C_21
REMARK    7  A    between atoms: C_25  and  C_27
REMARK    8  A    between atoms: C_27  and  C_28
REMARK    9  A    between atoms: C_27  and  C_29
REMARK   10  A    between atoms: N_33  and  C_34
REMARK                            x       y       z     vdW  Elec       q    Type
REMARK                         _______ _______ _______ _____ _____    ______ ____
ROOT
ATOM      1  C   UNL     1       0.015  11.259  19.152  0.00  0.00    +0.000 A 
ATOM      2  C   UNL     1      -0.077  10.189  18.231  0.00  0.00    +0.000 A 
ATOM      3  C   UNL     1      -1.323   9.867  17.695  0.00  0.00    +0.000 A 
ATOM      4  N   UNL     1      -2.493  10.450  18.004  0.00  0.00    +0.000 NA
ATOM      5  C   UNL     1      -2.365  11.464  18.878  0.00  0.00    +0.000 A 
ATOM      6  C   UNL     1      -1.198  11.942  19.488  0.00  0.00    +0.000 A 
ATOM      7  C   UNL     1      -1.616  13.076  20.307  0.00  0.00    +0.000 A 
ATOM      8  C   UNL     1      -2.989  13.205  20.118  0.00  0.00    +0.000 A 
ATOM      9  N   UNL     1      -3.426  12.200  19.310  0.00  0.00    +0.000 N 
ATOM     10  C   UNL     1      -4.800  11.961  18.946  0.00  0.00    +0.000 C 
ENDROOT
BRANCH   7  11
ATOM     11  C   UNL     1      -0.766  14.006  21.162  0.00  0.00    +0.000 C 
ATOM     12  C   UNL     1      -0.535  13.474  22.586  0.00  0.00    +0.000 C 
ATOM     13  C   UNL     1      -1.760  13.642  23.484  0.00  0.00    +0.000 C 
ATOM     14  N   UNL     1      -2.202  15.038  23.514  0.00  0.00    +0.000 N 
ATOM     15  C   UNL     1      -2.373  15.673  24.737  0.00  0.00    +0.000 C 
ATOM     16  O   UNL     1      -2.171  15.084  25.804  0.00  0.00    +0.000 OA
ATOM     17  C   UNL     1      -2.511  15.596  22.204  0.00  0.00    +0.000 C 
ATOM     18  C   UNL     1      -1.313  15.456  21.255  0.00  0.00    +0.000 C 
BRANCH  15  19
ATOM     19  C   UNL     1      -2.848  17.129  24.747  0.00  0.00    +0.000 C 
ATOM     20  C   UNL     1      -4.335  17.202  25.088  0.00  0.00    +0.000 C 
ATOM     21  C   UNL     1      -2.033  17.949  25.746  0.00  0.00    +0.000 C 
ENDBRANCH  15  19
ENDBRANCH   7  11
BRANCH   2  22
ATOM     22  N   UNL     1       1.033   9.389  17.854  0.00  0.00    +0.000 N 
ATOM     23  C   UNL     1       1.558   8.497  18.784  0.00  0.00    +0.000 C 
ATOM     24  O   UNL     1       1.152   8.398  19.939  0.00  0.00    +0.000 OA
ATOM     25  H   UNL     1       1.111   9.158  16.873  0.00  0.00    +0.000 HD
BRANCH  23  26
ATOM     26  C   UNL     1       2.625   7.559  18.334  0.00  0.00    +0.000 A 
ATOM     27  C   UNL     1       3.589   7.913  17.384  0.00  0.00    +0.000 A 
ATOM     28  C   UNL     1       4.645   7.038  17.106  0.00  0.00    +0.000 A 
ATOM     29  C   UNL     1       4.737   5.811  17.772  0.00  0.00    +0.000 A 
ATOM     30  C   UNL     1       3.765   5.431  18.700  0.00  0.00    +0.000 A 
ATOM     31  C   UNL     1       2.705   6.308  18.974  0.00  0.00    +0.000 A 
BRANCH  30  32
ATOM     32  C   UNL     1       3.862   4.169  19.382  0.00  0.00    +0.000 C 
ATOM     33  N   UNL     1       3.947   3.149  19.939  0.00  0.00    +0.000 NA
ENDBRANCH  30  32
ENDBRANCH  23  26
ENDBRANCH   2  22
BRANCH   1  35
ATOM     34  C   UNL     1       1.943  12.654  19.034  0.00  0.00    +0.000 C 
ATOM     35  O   UNL     1       1.201  11.651  19.736  0.00  0.00    +0.000 OA
ENDBRANCH   1  35
TORSDOF 6
ENDMDL
MODEL 5
REMARK VINA RESULT:      -6.8      3.558     10.349
REMARK  Name = 
REMARK  10 active torsions:
REMARK  status: ('A' for Active; 'I' for Inactive)
REMARK    1  A    between atoms: C_1  and  O_2
REMARK    2  A    between atoms: O_2  and  C_3
REMARK    3  A    between atoms: C_4  and  N_5
REMARK    4  A    between atoms: C_6  and  C_8
REMARK    5  A    between atoms: C_12  and  C_13
REMARK    6  A    between atoms: C_20  and  C_21
REMARK    7  A    between atoms: C_25  and  C_27
REMARK    8  A    between atoms: C_27  and  C_28
REMARK    9  A    between atoms: C_27  and  C_29
REMARK   10  A    between atoms: N_33  and  C_34
REMARK                            x       y       z     vdW  Elec       q    Type
REMARK                         _______ _______ _______ _____ _____    ______ ____
ROOT
ATOM      1  C   UNL     1      -0.781  13.195  20.242  0.00  0.00    +0.000 A 
ATOM      2  C   UNL     1      -0.838  14.525  20.719  0.00  0.00    +0.000 A 
ATOM      3  C   UNL     1       0.233  15.380  20.462  0.00  0.00    +0.000 A 
ATOM      4  N   UNL     1       1.372  15.054  19.830  0.00  0.00    +0.000 NA
ATOM      5  C   UNL     1       1.388  13.785  19.388  0.00  0.00    +0.000 A 
ATOM      6  C   UNL     1       0.397  12.805  19.526  0.00  0.00    +0.000 A 
ATOM      7  C   UNL     1       0.905  11.627  18.828  0.00  0.00    +0.000 A 
ATOM      8  C   UNL     1       2.146  11.988  18.312  0.00  0.00    +0.000 A 
ATOM      9  N   UNL     1       2.443  13.258  18.706  0.00  0.00    +0.000 N 
ATOM     10  C   UNL     1       3.676  13.951  18.426  0.00  0.00    +0.000 C 
ENDROOT
BRANCH   7  11
ATOM     11  C   UNL     1       0.237  10.276  18.617  0.00  0.00    +0.000 C 
ATOM     12  C   UNL     1       0.020   9.498  19.924  0.00  0.00    +0.000 C 
ATOM     13  C   UNL     1       1.306   8.865  20.455  0.00  0.00    +0.000 C 
ATOM     14  N   UNL     1       1.931   8.014  19.439  0.00  0.00    +0.000 N 
ATOM     15  C   UNL     1       2.255   6.702  19.755  0.00  0.00    +0.000 C 
ATOM     16  O   UNL     1       2.039   6.236  20.878  0.00  0.00    +0.000 OA
ATOM     17  C   UNL     1       2.235   8.699  18.189  0.00  0.00    +0.000 C 
ATOM     18  C   UNL     1       0.976   9.356  17.608  0.00  0.00    +0.000 C 
BRANCH  15  19
ATOM     19  C   UNL     1       2.919   5.832  18.682  0.00  0.00    +0.000 C 
ATOM     20  C   UNL     1       4.174   5.165  19.239  0.00  0.00    +0.000 C 
ATOM     21  C   UNL     1       1.939   4.777  18.170  0.00  0.00    +0.000 C 
ENDBRANCH  15  19
ENDBRANCH   7  11
BRANCH   2  22
ATOM     22  N   UNL     1      -1.917  15.029  21.492  0.00  0.00    +0.000 N 
ATOM     23  C   UNL     1      -1.832  14.956  22.879  0.00  0.00    +0.000 C 
ATOM     24  O   UNL     1      -0.899  14.430  23.479  0.00  0.00    +0.000 OA
ATOM     25  H   UNL     1      -2.452  15.782  21.084  0.00  0.00    +0.000 HD
BRANCH  23  26
ATOM     26  C   UNL     1      -2.898  15.618  23.684  0.00  0.00    +0.000 A 
ATOM     27  C   UNL     1      -2.638  16.690  24.543  0.00  0.00    +0.000 A 
ATOM     28  C   UNL     1      -3.701  17.357  25.164  0.00  0.00    +0.000 A 
ATOM     29  C   UNL     1      -5.019  16.951  24.930  0.00  0.00    +0.000 A 
ATOM     30  C   UNL     1      -5.292  15.861  24.100  0.00  0.00    +0.000 A 
ATOM     31  C   UNL     1      -4.225  15.193  23.482  0.00  0.00    +0.000 A 
BRANCH  30  32
ATOM     32  C   UNL     1      -6.648  15.446  23.864  0.00  0.00    +0.000 C 
ATOM     33  N   UNL     1      -7.749  15.117  23.668  0.00  0.00    +0.000 NA
ENDBRANCH  30  32
ENDBRANCH  23  26
ENDBRANCH   2  22
BRANCH   1  35
ATOM     34  C   UNL     1      -2.780  12.196  19.418  0.00  0.00    +0.000 C 
ATOM     35  O   UNL     1      -1.788  12.276  20.446  0.00  0.00    +0.000 OA
ENDBRANCH   1  35
TORSDOF 6
ENDMDL
MODEL 6
REMARK VINA RESULT:      -6.8      3.115      4.738
REMARK  Name = 
REMARK  10 active torsions:
REMARK  status: ('A' for Active; 'I' for Inactive)
REMARK    1  A    between atoms: C_1  and  O_2
REMARK    2  A    between atoms: O_2  and  C_3
REMARK    3  A    between atoms: C_4  and  N_5
REMARK    4  A    between atoms: C_6  and  C_8
REMARK    5  A    between atoms: C_12  and  C_13
REMARK    6  A    between atoms: C_20  and  C_21
REMARK    7  A    between atoms: C_25  and  C_27
REMARK    8  A    between atoms: C_27  and  C_28
REMARK    9  A    between atoms: C_27  and  C_29
REMARK   10  A    between atoms: N_33  and  C_34
REMARK                            x       y       z     vdW  Elec       q    Type
REMARK                         _______ _______ _______ _____ _____    ______ ____
ROOT
ATOM      1  C   UNL     1       0.724  10.081  19.794  0.00  0.00    +0.000 A 
ATOM      2  C   UNL     1       1.423   9.410  18.764  0.00  0.00    +0.000 A 
ATOM      3  C   UNL     1       2.234  10.152  17.906  0.00  0.00    +0.000 A 
ATOM      4  N   UNL     1       2.393  11.485  17.922  0.00  0.00    +0.000 NA
ATOM      5  C   UNL     1       1.717  12.087  18.916  0.00  0.00    +0.000 A 
ATOM      6  C   UNL     1       0.887  11.502  19.880  0.00  0.00    +0.000 A 
ATOM      7  C   UNL     1       0.445  12.596  20.739  0.00  0.00    +0.000 A 
ATOM      8  C   UNL     1       1.049  13.747  20.241  0.00  0.00    +0.000 A 
ATOM      9  N   UNL     1       1.755  13.433  19.120  0.00  0.00    +0.000 N 
ATOM     10  C   UNL     1       2.458  14.376  18.286  0.00  0.00    +0.000 C 
ENDROOT
BRANCH   7  11
ATOM     11  C   UNL     1      -0.441  12.547  21.976  0.00  0.00    +0.000 C 
ATOM     12  C   UNL     1      -1.859  12.032  21.685  0.00  0.00    +0.000 C 
ATOM     13  C   UNL     1      -2.739  13.079  21.003  0.00  0.00    +0.000 C 
ATOM     14  N   UNL     1      -2.784  14.316  21.786  0.00  0.00    +0.000 N 
ATOM     15  C   UNL     1      -4.015  14.859  22.132  0.00  0.00    +0.000 C 
ATOM     16  O   UNL     1      -5.074  14.328  21.786  0.00  0.00    +0.000 OA
ATOM     17  C   UNL     1      -1.478  14.908  22.046  0.00  0.00    +0.000 C 
ATOM     18  C   UNL     1      -0.549  13.899  22.732  0.00  0.00    +0.000 C 
BRANCH  15  19
ATOM     19  C   UNL     1      -4.041  16.160  22.941  0.00  0.00    +0.000 C 
ATOM     20  C   UNL     1      -5.134  17.089  22.420  0.00  0.00    +0.000 C 
ATOM     21  C   UNL     1      -4.258  15.862  24.424  0.00  0.00    +0.000 C 
ENDBRANCH  15  19
ENDBRANCH   7  11
BRANCH   2  22
ATOM     22  N   UNL     1       1.308   8.015  18.526  0.00  0.00    +0.000 N 
ATOM     23  C   UNL     1       2.178   7.153  19.185  0.00  0.00    +0.000 C 
ATOM     24  O   UNL     1       3.082   7.531  19.926  0.00  0.00    +0.000 OA
ATOM     25  H   UNL     1       0.389   7.674  18.281  0.00  0.00    +0.000 HD
BRANCH  23  26
ATOM     26  C   UNL     1       1.955   5.686  19.044  0.00  0.00    +0.000 A 
ATOM     27  C   UNL     1       2.046   5.025  17.814  0.00  0.00    +0.000 A 
ATOM     28  C   UNL     1       1.963   3.629  17.769  0.00  0.00    +0.000 A 
ATOM     29  C   UNL     1       1.787   2.895  18.946  0.00  0.00    +0.000 A 
ATOM     30  C   UNL     1       1.662   3.543  20.177  0.00  0.00    +0.000 A 
ATOM     31  C   UNL     1       1.742   4.943  20.220  0.00  0.00    +0.000 A 
BRANCH  30  32
ATOM     32  C   UNL     1       1.480   2.786  21.385  0.00  0.00    +0.000 C 
ATOM     33  N   UNL     1       1.325   2.169  22.362  0.00  0.00    +0.000 NA
ENDBRANCH  30  32
ENDBRANCH  23  26
ENDBRANCH   2  22
BRANCH   1  35
ATOM     34  C   UNL     1       0.510   9.009  21.911  0.00  0.00    +0.000 C 
ATOM     35  O   UNL     1      -0.102   9.436  20.690  0.00  0.00    +0.000 OA
ENDBRANCH   1  35
TORSDOF 6
ENDMDL
MODEL 7
REMARK VINA RESULT:      -6.8      2.975      4.685
REMARK  Name = 
REMARK  10 active torsions:
REMARK  status: ('A' for Active; 'I' for Inactive)
REMARK    1  A    between atoms: C_1  and  O_2
REMARK    2  A    between atoms: O_2  and  C_3
REMARK    3  A    between atoms: C_4  and  N_5
REMARK    4  A    between atoms: C_6  and  C_8
REMARK    5  A    between atoms: C_12  and  C_13
REMARK    6  A    between atoms: C_20  and  C_21
REMARK    7  A    between atoms: C_25  and  C_27
REMARK    8  A    between atoms: C_27  and  C_28
REMARK    9  A    between atoms: C_27  and  C_29
REMARK   10  A    between atoms: N_33  and  C_34
REMARK                            x       y       z     vdW  Elec       q    Type
REMARK                         _______ _______ _______ _____ _____    ______ ____
ROOT
ATOM      1  C   UNL     1       0.506  10.273  19.282  0.00  0.00    +0.000 A 
ATOM      2  C   UNL     1       1.499   9.618  18.517  0.00  0.00    +0.000 A 
ATOM      3  C   UNL     1       2.497  10.381  17.912  0.00  0.00    +0.000 A 
ATOM      4  N   UNL     1       2.595  11.720  17.939  0.00  0.00    +0.000 NA
ATOM      5  C   UNL     1       1.638  12.307  18.678  0.00  0.00    +0.000 A 
ATOM      6  C   UNL     1       0.586  11.700  19.375  0.00  0.00    +0.000 A 
ATOM      7  C   UNL     1      -0.127  12.787  20.040  0.00  0.00    +0.000 A 
ATOM      8  C   UNL     1       0.553  13.956  19.709  0.00  0.00    +0.000 A 
ATOM      9  N   UNL     1       1.565  13.656  18.850  0.00  0.00    +0.000 N 
ATOM     10  C   UNL     1       2.446  14.617  18.231  0.00  0.00    +0.000 C 
ENDROOT
BRANCH   7  11
ATOM     11  C   UNL     1      -1.332  12.718  20.969  0.00  0.00    +0.000 C 
ATOM     12  C   UNL     1      -2.407  13.767  20.643  0.00  0.00    +0.000 C 
ATOM     13  C   UNL     1      -2.026  15.168  21.118  0.00  0.00    +0.000 C 
ATOM     14  N   UNL     1      -1.710  15.171  22.548  0.00  0.00    +0.000 N 
ATOM     15  C   UNL     1      -2.354  16.072  23.386  0.00  0.00    +0.000 C 
ATOM     16  O   UNL     1      -3.181  16.880  22.953  0.00  0.00    +0.000 OA
ATOM     17  C   UNL     1      -0.647  14.250  22.928  0.00  0.00    +0.000 C 
ATOM     18  C   UNL     1      -0.975  12.822  22.476  0.00  0.00    +0.000 C 
BRANCH  15  19
ATOM     19  C   UNL     1      -2.001  16.067  24.877  0.00  0.00    +0.000 C 
ATOM     20  C   UNL     1      -2.136  17.471  25.461  0.00  0.00    +0.000 C 
ATOM     21  C   UNL     1      -2.898  15.088  25.634  0.00  0.00    +0.000 C 
ENDBRANCH  15  19
ENDBRANCH   7  11
BRANCH   2  22
ATOM     22  N   UNL     1       1.509   8.217  18.291  0.00  0.00    +0.000 N 
ATOM     23  C   UNL     1       2.048   7.388  19.271  0.00  0.00    +0.000 C 
ATOM     24  O   UNL     1       2.569   7.802  20.303  0.00  0.00    +0.000 OA
ATOM     25  H   UNL     1       0.774   7.848  17.704  0.00  0.00    +0.000 HD
BRANCH  23  26
ATOM     26  C   UNL     1       1.922   5.914  19.092  0.00  0.00    +0.000 A 
ATOM     27  C   UNL     1       2.086   5.288  17.852  0.00  0.00    +0.000 A 
ATOM     28  C   UNL     1       2.092   3.891  17.775  0.00  0.00    +0.000 A 
ATOM     29  C   UNL     1       1.932   3.120  18.931  0.00  0.00    +0.000 A 
ATOM     30  C   UNL     1       1.735   3.732  20.171  0.00  0.00    +0.000 A 
ATOM     31  C   UNL     1       1.725   5.132  20.246  0.00  0.00    +0.000 A 
BRANCH  30  32
ATOM     32  C   UNL     1       1.569   2.937  21.358  0.00  0.00    +0.000 C 
ATOM     33  N   UNL     1       1.442   2.289  22.318  0.00  0.00    +0.000 NA
ENDBRANCH  30  32
ENDBRANCH  23  26
ENDBRANCH   2  22
BRANCH   1  35
ATOM     34  C   UNL     1      -0.297   9.276  21.291  0.00  0.00    +0.000 C 
ATOM     35  O   UNL     1      -0.520   9.606  19.917  0.00  0.00    +0.000 OA
ENDBRANCH   1  35
TORSDOF 6
ENDMDL
MODEL 8
REMARK VINA RESULT:      -6.8      3.107      4.420
REMARK  Name = 
REMARK  10 active torsions:
REMARK  status: ('A' for Active; 'I' for Inactive)
REMARK    1  A    between atoms: C_1  and  O_2
REMARK    2  A    between atoms: O_2  and  C_3
REMARK    3  A    between atoms: C_4  and  N_5
REMARK    4  A    between atoms: C_6  and  C_8
REMARK    5  A    between atoms: C_12  and  C_13
REMARK    6  A    between atoms: C_20  and  C_21
REMARK    7  A    between atoms: C_25  and  C_27
REMARK    8  A    between atoms: C_27  and  C_28
REMARK    9  A    between atoms: C_27  and  C_29
REMARK   10  A    between atoms: N_33  and  C_34
REMARK                            x       y       z     vdW  Elec       q    Type
REMARK                         _______ _______ _______ _____ _____    ______ ____
ROOT
ATOM      1  C   UNL     1       1.075   9.513  20.322  0.00  0.00    +0.000 A 
ATOM      2  C   UNL     1       1.470   8.673  19.255  0.00  0.00    +0.000 A 
ATOM      3  C   UNL     1       0.886   8.854  18.002  0.00  0.00    +0.000 A 
ATOM      4  N   UNL     1      -0.079   9.738  17.699  0.00  0.00    +0.000 NA
ATOM      5  C   UNL     1      -0.426  10.520  18.736  0.00  0.00    +0.000 A 
ATOM      6  C   UNL     1       0.075  10.500  20.044  0.00  0.00    +0.000 A 
ATOM      7  C   UNL     1      -0.610  11.581  20.746  0.00  0.00    +0.000 A 
ATOM      8  C   UNL     1      -1.453  12.177  19.813  0.00  0.00    +0.000 A 
ATOM      9  N   UNL     1      -1.373  11.494  18.638  0.00  0.00    +0.000 N 
ATOM     10  C   UNL     1      -2.154  11.771  17.457  0.00  0.00    +0.000 C 
ENDROOT
BRANCH   7  11
ATOM     11  C   UNL     1      -0.436  12.052  22.184  0.00  0.00    +0.000 C 
ATOM     12  C   UNL     1      -1.498  11.484  23.139  0.00  0.00    +0.000 C 
ATOM     13  C   UNL     1      -2.852  12.176  22.995  0.00  0.00    +0.000 C 
ATOM     14  N   UNL     1      -2.721  13.625  23.163  0.00  0.00    +0.000 N 
ATOM     15  C   UNL     1      -3.529  14.280  24.084  0.00  0.00    +0.000 C 
ATOM     16  O   UNL     1      -4.365  13.670  24.758  0.00  0.00    +0.000 OA
ATOM     17  C   UNL     1      -1.782  14.253  22.242  0.00  0.00    +0.000 C 
ATOM     18  C   UNL     1      -0.399  13.596  22.343  0.00  0.00    +0.000 C 
BRANCH  15  19
ATOM     19  C   UNL     1      -3.386  15.798  24.236  0.00  0.00    +0.000 C 
ATOM     20  C   UNL     1      -4.740  16.433  24.538  0.00  0.00    +0.000 C 
ATOM     21  C   UNL     1      -2.384  16.130  25.342  0.00  0.00    +0.000 C 
ENDBRANCH  15  19
ENDBRANCH   7  11
BRANCH   2  22
ATOM     22  N   UNL     1       2.406   7.616  19.402  0.00  0.00    +0.000 N 
ATOM     23  C   UNL     1       1.976   6.420  19.969  0.00  0.00    +0.000 C 
ATOM     24  O   UNL     1       0.842   6.241  20.404  0.00  0.00    +0.000 OA
ATOM     25  H   UNL     1       3.160   7.583  18.729  0.00  0.00    +0.000 HD
BRANCH  23  26
ATOM     26  C   UNL     1       2.923   5.270  19.985  0.00  0.00    +0.000 A 
ATOM     27  C   UNL     1       2.576   4.015  20.496  0.00  0.00    +0.000 A 
ATOM     28  C   UNL     1       3.461   2.939  20.356  0.00  0.00    +0.000 A 
ATOM     29  C   UNL     1       4.689   3.116  19.712  0.00  0.00    +0.000 A 
ATOM     30  C   UNL     1       5.063   4.371  19.226  0.00  0.00    +0.000 A 
ATOM     31  C   UNL     1       4.177   5.448  19.370  0.00  0.00    +0.000 A 
BRANCH  30  32
ATOM     32  C   UNL     1       6.327   4.550  18.565  0.00  0.00    +0.000 C 
ATOM     33  N   UNL     1       7.354   4.687  18.031  0.00  0.00    +0.000 NA
ENDBRANCH  30  32
ENDBRANCH  23  26
ENDBRANCH   2  22
BRANCH   1  35
ATOM     34  C   UNL     1       0.739   8.814  22.574  0.00  0.00    +0.000 C 
ATOM     35  O   UNL     1       1.594   9.410  21.595  0.00  0.00    +0.000 OA
ENDBRANCH   1  35
TORSDOF 6
ENDMDL
MODEL 9
REMARK VINA RESULT:      -6.7      3.628     10.339
REMARK  Name = 
REMARK  10 active torsions:
REMARK  status: ('A' for Active; 'I' for Inactive)
REMARK    1  A    between atoms: C_1  and  O_2
REMARK    2  A    between atoms: O_2  and  C_3
REMARK    3  A    between atoms: C_4  and  N_5
REMARK    4  A    between atoms: C_6  and  C_8
REMARK    5  A    between atoms: C_12  and  C_13
REMARK    6  A    between atoms: C_20  and  C_21
REMARK    7  A    between atoms: C_25  and  C_27
REMARK    8  A    between atoms: C_27  and  C_28
REMARK    9  A    between atoms: C_27  and  C_29
REMARK   10  A    between atoms: N_33  and  C_34
REMARK                            x       y       z     vdW  Elec       q    Type
REMARK                         _______ _______ _______ _____ _____    ______ ____
ROOT
ATOM      1  C   UNL     1      -0.841  13.131  20.764  0.00  0.00    +0.000 A 
ATOM      2  C   UNL     1      -0.905  14.401  21.385  0.00  0.00    +0.000 A 
ATOM      3  C   UNL     1       0.142  15.300  21.190  0.00  0.00    +0.000 A 
ATOM      4  N   UNL     1       1.265  15.068  20.490  0.00  0.00    +0.000 NA
ATOM      5  C   UNL     1       1.288  13.854  19.912  0.00  0.00    +0.000 A 
ATOM      6  C   UNL     1       0.318  12.845  19.974  0.00  0.00    +0.000 A 
ATOM      7  C   UNL     1       0.823  11.761  19.137  0.00  0.00    +0.000 A 
ATOM      8  C   UNL     1       2.040  12.201  18.625  0.00  0.00    +0.000 A 
ATOM      9  N   UNL     1       2.327  13.426  19.145  0.00  0.00    +0.000 N 
ATOM     10  C   UNL     1       3.539  14.171  18.903  0.00  0.00    +0.000 C 
ENDROOT
BRANCH   7  11
ATOM     11  C   UNL     1       0.171  10.427  18.801  0.00  0.00    +0.000 C 
ATOM     12  C   UNL     1      -0.080   9.548  20.037  0.00  0.00    +0.000 C 
ATOM     13  C   UNL     1       1.193   8.882  20.556  0.00  0.00    +0.000 C 
ATOM     14  N   UNL     1       1.854   8.116  19.497  0.00  0.00    +0.000 N 
ATOM     15  C   UNL     1       2.178   6.784  19.720  0.00  0.00    +0.000 C 
ATOM     16  O   UNL     1       1.931   6.231  20.796  0.00  0.00    +0.000 OA
ATOM     17  C   UNL     1       2.192   8.897  18.314  0.00  0.00    +0.000 C 
ATOM     18  C   UNL     1       0.947   9.591  17.747  0.00  0.00    +0.000 C 
BRANCH  15  19
ATOM     19  C   UNL     1       2.880   6.003  18.605  0.00  0.00    +0.000 C 
ATOM     20  C   UNL     1       4.177   5.386  19.122  0.00  0.00    +0.000 C 
ATOM     21  C   UNL     1       1.958   4.917  18.052  0.00  0.00    +0.000 C 
ENDBRANCH  15  19
ENDBRANCH   7  11
BRANCH   2  22
ATOM     22  N   UNL     1      -1.966  14.796  22.242  0.00  0.00    +0.000 N 
ATOM     23  C   UNL     1      -3.054  15.465  21.690  0.00  0.00    +0.000 C 
ATOM     24  O   UNL     1      -3.128  15.785  20.507  0.00  0.00    +0.000 OA
ATOM     25  H   UNL     1      -2.120  14.225  23.062  0.00  0.00    +0.000 HD
BRANCH  23  26
ATOM     26  C   UNL     1      -4.226  15.745  22.567  0.00  0.00    +0.000 A 
ATOM     27  C   UNL     1      -4.559  17.035  22.992  0.00  0.00    +0.000 A 
ATOM     28  C   UNL     1      -5.748  17.249  23.699  0.00  0.00    +0.000 A 
ATOM     29  C   UNL     1      -6.600  16.177  23.984  0.00  0.00    +0.000 A 
ATOM     30  C   UNL     1      -6.265  14.878  23.594  0.00  0.00    +0.000 A 
ATOM     31  C   UNL     1      -5.071  14.666  22.889  0.00  0.00    +0.000 A 
BRANCH  30  32
ATOM     32  C   UNL     1      -7.143  13.778  23.890  0.00  0.00    +0.000 C 
ATOM     33  N   UNL     1      -7.849  12.882  24.125  0.00  0.00    +0.000 NA
ENDBRANCH  30  32
ENDBRANCH  23  26
ENDBRANCH   2  22
BRANCH   1  35
ATOM     34  C   UNL     1      -2.887  12.230  19.941  0.00  0.00    +0.000 C 
ATOM     35  O   UNL     1      -1.826  12.175  20.899  0.00  0.00    +0.000 OA
ENDBRANCH   1  35
TORSDOF 6
ENDMDL
