MODEL 1
REMARK VINA RESULT:      -6.3      0.000      0.000
REMARK  Name = 
REMARK  4 active torsions:
REMARK  status: ('A' for Active; 'I' for Inactive)
REMARK    1  A    between atoms: N_1  and  C_2
REMARK    2  A    between atoms: C_2  and  C_3
REMARK    3  A    between atoms: C_3  and  N_4
REMARK    4  A    between atoms: C_5  and  C_7
REMARK                            x       y       z     vdW  Elec       q    Type
REMARK                         _______ _______ _______ _____ _____    ______ ____
ROOT
ATOM      1  N   UNL     1       6.193   4.249  18.375  0.00  0.00    +0.000 N 
ATOM      2  C   UNL     1       5.169   4.467  17.477  0.00  0.00    +0.000 C 
ATOM      3  O   UNL     1       5.315   5.091  16.431  0.00  0.00    +0.000 OA
ATOM      4  H   UNL     1       6.123   3.490  19.042  0.00  0.00    +0.000 HD
ENDROOT
BRANCH   2   5
ATOM      5  C   UNL     1       3.844   3.884  17.818  0.00  0.00    +0.000 A 
ATOM      6  C   UNL     1       2.671   4.653  17.797  0.00  0.00    +0.000 A 
ATOM      7  C   UNL     1       1.439   4.053  18.074  0.00  0.00    +0.000 A 
ATOM      8  C   UNL     1       1.385   2.694  18.369  0.00  0.00    +0.000 A 
ATOM      9  F   UNL     1       0.201   2.123  18.627  0.00  0.00    +0.000 F 
ATOM     10  C   UNL     1       2.539   1.918  18.387  0.00  0.00    +0.000 A 
ATOM     11  C   UNL     1       3.770   2.512  18.105  0.00  0.00    +0.000 A 
ENDBRANCH   2   5
BRANCH   1  12
ATOM     12  C   UNL     1       7.530   4.730  18.087  0.00  0.00    +0.000 C 
BRANCH  12  13
ATOM     13  C   UNL     1       7.936   5.890  19.005  0.00  0.00    +0.000 C 
BRANCH  13  14
ATOM     14  N   UNL     1       8.111   5.447  20.394  0.00  0.00    +0.000 NA
ATOM     15  H   UNL     1       8.464   6.230  20.946  0.00  0.00    +0.000 HD
ATOM     16  H   UNL     1       8.845   4.738  20.425  0.00  0.00    +0.000 HD
ENDBRANCH  13  14
ENDBRANCH  12  13
ENDBRANCH   1  12
TORSDOF 4
ENDMDL
MODEL 2
REMARK VINA RESULT:      -6.1      1.028      1.803
REMARK  Name = 
REMARK  4 active torsions:
REMARK  status: ('A' for Active; 'I' for Inactive)
REMARK    1  A    between atoms: N_1  and  C_2
REMARK    2  A    between atoms: C_2  and  C_3
REMARK    3  A    between atoms: C_3  and  N_4
REMARK    4  A    between atoms: C_5  and  C_7
REMARK                            x       y       z     vdW  Elec       q    Type
REMARK                         _______ _______ _______ _____ _____    ______ ____
ROOT
ATOM      1  N   UNL     1       6.135   4.274  18.303  0.00  0.00    +0.000 N 
ATOM      2  C   UNL     1       5.235   4.074  17.277  0.00  0.00    +0.000 C 
ATOM      3  O   UNL     1       5.505   4.281  16.097  0.00  0.00    +0.000 OA
ATOM      4  H   UNL     1       5.994   3.809  19.192  0.00  0.00    +0.000 HD
ENDROOT
BRANCH   2   5
ATOM      5  C   UNL     1       3.891   3.562  17.654  0.00  0.00    +0.000 A 
ATOM      6  C   UNL     1       3.694   2.235  18.063  0.00  0.00    +0.000 A 
ATOM      7  C   UNL     1       2.423   1.808  18.457  0.00  0.00    +0.000 A 
ATOM      8  C   UNL     1       1.359   2.705  18.442  0.00  0.00    +0.000 A 
ATOM      9  F   UNL     1       0.144   2.292  18.827  0.00  0.00    +0.000 F 
ATOM     10  C   UNL     1       1.540   4.025  18.045  0.00  0.00    +0.000 A 
ATOM     11  C   UNL     1       2.810   4.457  17.655  0.00  0.00    +0.000 A 
ENDBRANCH   2   5
BRANCH   1  12
ATOM     12  C   UNL     1       7.487   4.711  18.013  0.00  0.00    +0.000 C 
BRANCH  12  13
ATOM     13  C   UNL     1       7.609   6.241  18.004  0.00  0.00    +0.000 C 
BRANCH  13  14
ATOM     14  N   UNL     1       7.476   6.788  16.648  0.00  0.00    +0.000 NA
ATOM     15  H   UNL     1       7.580   7.802  16.692  0.00  0.00    +0.000 HD
ATOM     16  H   UNL     1       6.524   6.624  16.316  0.00  0.00    +0.000 HD
ENDBRANCH  13  14
ENDBRANCH  12  13
ENDBRANCH   1  12
TORSDOF 4
ENDMDL
MODEL 3
REMARK VINA RESULT:      -6.0      0.357      1.385
REMARK  Name = 
REMARK  4 active torsions:
REMARK  status: ('A' for Active; 'I' for Inactive)
REMARK    1  A    between atoms: N_1  and  C_2
REMARK    2  A    between atoms: C_2  and  C_3
REMARK    3  A    between atoms: C_3  and  N_4
REMARK    4  A    between atoms: C_5  and  C_7
REMARK                            x       y       z     vdW  Elec       q    Type
REMARK                         _______ _______ _______ _____ _____    ______ ____
ROOT
ATOM      1  N   UNL     1       6.254   4.099  17.957  0.00  0.00    +0.000 N 
ATOM      2  C   UNL     1       5.128   4.597  17.335  0.00  0.00    +0.000 C 
ATOM      3  O   UNL     1       5.157   5.535  16.544  0.00  0.00    +0.000 OA
ATOM      4  H   UNL     1       6.244   3.161  18.339  0.00  0.00    +0.000 HD
ENDROOT
BRANCH   2   5
ATOM      5  C   UNL     1       3.839   3.925  17.646  0.00  0.00    +0.000 A 
ATOM      6  C   UNL     1       3.751   2.536  17.816  0.00  0.00    +0.000 A 
ATOM      7  C   UNL     1       2.528   1.951  18.156  0.00  0.00    +0.000 A 
ATOM      8  C   UNL     1       1.404   2.752  18.326  0.00  0.00    +0.000 A 
ATOM      9  F   UNL     1       0.236   2.187  18.659  0.00  0.00    +0.000 F 
ATOM     10  C   UNL     1       1.477   4.132  18.168  0.00  0.00    +0.000 A 
ATOM     11  C   UNL     1       2.697   4.721  17.832  0.00  0.00    +0.000 A 
ENDBRANCH   2   5
BRANCH   1  12
ATOM     12  C   UNL     1       7.559   4.657  17.660  0.00  0.00    +0.000 C 
BRANCH  12  13
ATOM     13  C   UNL     1       8.044   5.609  18.761  0.00  0.00    +0.000 C 
BRANCH  13  14
ATOM     14  N   UNL     1       7.402   5.319  20.050  0.00  0.00    +0.000 NA
ATOM     15  H   UNL     1       8.064   5.523  20.799  0.00  0.00    +0.000 HD
ATOM     16  H   UNL     1       7.220   4.316  20.111  0.00  0.00    +0.000 HD
ENDBRANCH  13  14
ENDBRANCH  12  13
ENDBRANCH   1  12
TORSDOF 4
ENDMDL
MODEL 4
REMARK VINA RESULT:      -5.9      1.061      1.213
REMARK  Name = 
REMARK  4 active torsions:
REMARK  status: ('A' for Active; 'I' for Inactive)
REMARK    1  A    between atoms: N_1  and  C_2
REMARK    2  A    between atoms: C_2  and  C_3
REMARK    3  A    between atoms: C_3  and  N_4
REMARK    4  A    between atoms: C_5  and  C_7
REMARK                            x       y       z     vdW  Elec       q    Type
REMARK                         _______ _______ _______ _____ _____    ______ ____
ROOT
ATOM      1  N   UNL     1       6.125   4.639  18.627  0.00  0.00    +0.000 N 
ATOM      2  C   UNL     1       5.333   4.235  17.572  0.00  0.00    +0.000 C 
ATOM      3  O   UNL     1       5.715   4.241  16.406  0.00  0.00    +0.000 OA
ATOM      4  H   UNL     1       5.904   4.332  19.567  0.00  0.00    +0.000 HD
ENDROOT
BRANCH   2   5
ATOM      5  C   UNL     1       3.966   3.755  17.905  0.00  0.00    +0.000 A 
ATOM      6  C   UNL     1       2.832   4.555  17.701  0.00  0.00    +0.000 A 
ATOM      7  C   UNL     1       1.560   4.045  17.980  0.00  0.00    +0.000 A 
ATOM      8  C   UNL     1       1.428   2.745  18.458  0.00  0.00    +0.000 A 
ATOM      9  F   UNL     1       0.207   2.260  18.717  0.00  0.00    +0.000 F 
ATOM     10  C   UNL     1       2.543   1.939  18.659  0.00  0.00    +0.000 A 
ATOM     11  C   UNL     1       3.814   2.442  18.376  0.00  0.00    +0.000 A 
ENDBRANCH   2   5
BRANCH   1  12
ATOM     12  C   UNL     1       7.492   5.061  18.394  0.00  0.00    +0.000 C 
BRANCH  12  13
ATOM     13  C   UNL     1       7.592   6.568  18.123  0.00  0.00    +0.000 C 
BRANCH  13  14
ATOM     14  N   UNL     1       7.564   6.863  16.684  0.00  0.00    +0.000 NA
ATOM     15  H   UNL     1       6.944   6.195  16.225  0.00  0.00    +0.000 HD
ATOM     16  H   UNL     1       8.491   6.691  16.293  0.00  0.00    +0.000 HD
ENDBRANCH  13  14
ENDBRANCH  12  13
ENDBRANCH   1  12
TORSDOF 4
ENDMDL
MODEL 5
REMARK VINA RESULT:      -5.9      4.137      5.675
REMARK  Name = 
REMARK  4 active torsions:
REMARK  status: ('A' for Active; 'I' for Inactive)
REMARK    1  A    between atoms: N_1  and  C_2
REMARK    2  A    between atoms: C_2  and  C_3
REMARK    3  A    between atoms: C_3  and  N_4
REMARK    4  A    between atoms: C_5  and  C_7
REMARK                            x       y       z     vdW  Elec       q    Type
REMARK                         _______ _______ _______ _____ _____    ______ ____
ROOT
ATOM      1  N   UNL     1       6.227   3.689  13.732  0.00  0.00    +0.000 N 
ATOM      2  C   UNL     1       6.852   4.701  14.429  0.00  0.00    +0.000 C 
ATOM      3  O   UNL     1       7.696   5.439  13.929  0.00  0.00    +0.000 OA
ATOM      4  H   UNL     1       5.343   3.322  14.064  0.00  0.00    +0.000 HD
ENDROOT
BRANCH   2   5
ATOM      5  C   UNL     1       6.442   4.893  15.845  0.00  0.00    +0.000 A 
ATOM      6  C   UNL     1       7.301   4.588  16.911  0.00  0.00    +0.000 A 
ATOM      7  C   UNL     1       6.894   4.830  18.226  0.00  0.00    +0.000 A 
ATOM      8  C   UNL     1       5.638   5.375  18.470  0.00  0.00    +0.000 A 
ATOM      9  F   UNL     1       5.256   5.612  19.731  0.00  0.00    +0.000 F 
ATOM     10  C   UNL     1       4.778   5.689  17.423  0.00  0.00    +0.000 A 
ATOM     11  C   UNL     1       5.182   5.453  16.108  0.00  0.00    +0.000 A 
ENDBRANCH   2   5
BRANCH   1  12
ATOM     12  C   UNL     1       6.524   3.477  12.328  0.00  0.00    +0.000 C 
BRANCH  12  13
ATOM     13  C   UNL     1       5.513   2.535  11.660  0.00  0.00    +0.000 C 
BRANCH  13  14
ATOM     14  N   UNL     1       6.084   1.201  11.432  0.00  0.00    +0.000 NA
ATOM     15  H   UNL     1       7.087   1.239  11.614  0.00  0.00    +0.000 HD
ATOM     16  H   UNL     1       5.994   0.968  10.442  0.00  0.00    +0.000 HD
ENDBRANCH  13  14
ENDBRANCH  12  13
ENDBRANCH   1  12
TORSDOF 4
ENDMDL
MODEL 6
REMARK VINA RESULT:      -5.8      2.258      2.836
REMARK  Name = 
REMARK  4 active torsions:
REMARK  status: ('A' for Active; 'I' for Inactive)
REMARK    1  A    between atoms: N_1  and  C_2
REMARK    2  A    between atoms: C_2  and  C_3
REMARK    3  A    between atoms: C_3  and  N_4
REMARK    4  A    between atoms: C_5  and  C_7
REMARK                            x       y       z     vdW  Elec       q    Type
REMARK                         _______ _______ _______ _____ _____    ______ ____
ROOT
ATOM      1  N   UNL     1       4.877   3.579  17.226  0.00  0.00    +0.000 N 
ATOM      2  C   UNL     1       3.905   4.404  17.750  0.00  0.00    +0.000 C 
ATOM      3  O   UNL     1       3.661   5.522  17.306  0.00  0.00    +0.000 OA
ATOM      4  H   UNL     1       4.838   2.582  17.400  0.00  0.00    +0.000 HD
ENDROOT
BRANCH   2   5
ATOM      5  C   UNL     1       3.118   3.871  18.894  0.00  0.00    +0.000 A 
ATOM      6  C   UNL     1       3.710   3.087  19.896  0.00  0.00    +0.000 A 
ATOM      7  C   UNL     1       2.945   2.648  20.980  0.00  0.00    +0.000 A 
ATOM      8  C   UNL     1       1.599   2.994  21.060  0.00  0.00    +0.000 A 
ATOM      9  F   UNL     1       0.873   2.576  22.105  0.00  0.00    +0.000 F 
ATOM     10  C   UNL     1       1.001   3.776  20.078  0.00  0.00    +0.000 A 
ATOM     11  C   UNL     1       1.763   4.221  18.996  0.00  0.00    +0.000 A 
ENDBRANCH   2   5
BRANCH   1  12
ATOM     12  C   UNL     1       5.645   3.999  16.070  0.00  0.00    +0.000 C 
BRANCH  12  13
ATOM     13  C   UNL     1       7.053   4.475  16.453  0.00  0.00    +0.000 C 
BRANCH  13  14
ATOM     14  N   UNL     1       7.267   5.882  16.094  0.00  0.00    +0.000 NA
ATOM     15  H   UNL     1       7.725   5.922  15.184  0.00  0.00    +0.000 HD
ATOM     16  H   UNL     1       7.930   6.295  16.753  0.00  0.00    +0.000 HD
ENDBRANCH  13  14
ENDBRANCH  12  13
ENDBRANCH   1  12
TORSDOF 4
ENDMDL
MODEL 7
REMARK VINA RESULT:      -5.8      2.344      2.656
REMARK  Name = 
REMARK  4 active torsions:
REMARK  status: ('A' for Active; 'I' for Inactive)
REMARK    1  A    between atoms: N_1  and  C_2
REMARK    2  A    between atoms: C_2  and  C_3
REMARK    3  A    between atoms: C_3  and  N_4
REMARK    4  A    between atoms: C_5  and  C_7
REMARK                            x       y       z     vdW  Elec       q    Type
REMARK                         _______ _______ _______ _____ _____    ______ ____
ROOT
ATOM      1  N   UNL     1       4.836   3.580  17.292  0.00  0.00    +0.000 N 
ATOM      2  C   UNL     1       3.886   4.451  17.783  0.00  0.00    +0.000 C 
ATOM      3  O   UNL     1       3.678   5.560  17.300  0.00  0.00    +0.000 OA
ATOM      4  H   UNL     1       4.766   2.591  17.499  0.00  0.00    +0.000 HD
ENDROOT
BRANCH   2   5
ATOM      5  C   UNL     1       3.079   3.980  18.940  0.00  0.00    +0.000 A 
ATOM      6  C   UNL     1       1.712   4.271  19.054  0.00  0.00    +0.000 A 
ATOM      7  C   UNL     1       0.980   3.766  20.133  0.00  0.00    +0.000 A 
ATOM      8  C   UNL     1       1.613   2.975  21.086  0.00  0.00    +0.000 A 
ATOM      9  F   UNL     1       0.905   2.488  22.114  0.00  0.00    +0.000 F 
ATOM     10  C   UNL     1       2.966   2.672  20.982  0.00  0.00    +0.000 A 
ATOM     11  C   UNL     1       3.700   3.170  19.904  0.00  0.00    +0.000 A 
ENDBRANCH   2   5
BRANCH   1  12
ATOM     12  C   UNL     1       5.621   3.938  16.126  0.00  0.00    +0.000 C 
BRANCH  12  13
ATOM     13  C   UNL     1       6.965   4.572  16.508  0.00  0.00    +0.000 C 
BRANCH  13  14
ATOM     14  N   UNL     1       7.539   5.340  15.396  0.00  0.00    +0.000 NA
ATOM     15  H   UNL     1       7.797   4.694  14.650  0.00  0.00    +0.000 HD
ATOM     16  H   UNL     1       8.414   5.766  15.705  0.00  0.00    +0.000 HD
ENDBRANCH  13  14
ENDBRANCH  12  13
ENDBRANCH   1  12
TORSDOF 4
ENDMDL
MODEL 8
REMARK VINA RESULT:      -5.8      3.778      5.715
REMARK  Name = 
REMARK  4 active torsions:
REMARK  status: ('A' for Active; 'I' for Inactive)
REMARK    1  A    between atoms: N_1  and  C_2
REMARK    2  A    between atoms: C_2  and  C_3
REMARK    3  A    between atoms: C_3  and  N_4
REMARK    4  A    between atoms: C_5  and  C_7
REMARK                            x       y       z     vdW  Elec       q    Type
REMARK                         _______ _______ _______ _____ _____    ______ ____
ROOT
ATOM      1  N   UNL     1       3.246   4.635  19.298  0.00  0.00    +0.000 N 
ATOM      2  C   UNL     1       4.574   4.262  19.274  0.00  0.00    +0.000 C 
ATOM      3  O   UNL     1       4.969   3.159  19.639  0.00  0.00    +0.000 OA
ATOM      4  H   UNL     1       2.928   5.400  18.716  0.00  0.00    +0.000 HD
ENDROOT
BRANCH   2   5
ATOM      5  C   UNL     1       5.542   5.264  18.752  0.00  0.00    +0.000 A 
ATOM      6  C   UNL     1       6.844   5.369  19.263  0.00  0.00    +0.000 A 
ATOM      7  C   UNL     1       7.738   6.290  18.710  0.00  0.00    +0.000 A 
ATOM      8  C   UNL     1       7.330   7.097  17.652  0.00  0.00    +0.000 A 
ATOM      9  F   UNL     1       8.193   7.973  17.122  0.00  0.00    +0.000 F 
ATOM     10  C   UNL     1       6.044   6.999  17.131  0.00  0.00    +0.000 A 
ATOM     11  C   UNL     1       5.150   6.077  17.677  0.00  0.00    +0.000 A 
ENDBRANCH   2   5
BRANCH   1  12
ATOM     12  C   UNL     1       2.232   3.694  19.733  0.00  0.00    +0.000 C 
BRANCH  12  13
ATOM     13  C   UNL     1       2.015   3.741  21.251  0.00  0.00    +0.000 C 
BRANCH  13  14
ATOM     14  N   UNL     1       2.696   2.631  21.931  0.00  0.00    +0.000 NA
ATOM     15  H   UNL     1       2.099   2.294  22.686  0.00  0.00    +0.000 HD
ATOM     16  H   UNL     1       3.537   2.989  22.387  0.00  0.00    +0.000 HD
ENDBRANCH  13  14
ENDBRANCH  12  13
ENDBRANCH   1  12
TORSDOF 4
ENDMDL
MODEL 9
REMARK VINA RESULT:      -5.7      2.088      2.091
REMARK  Name = 
REMARK  4 active torsions:
REMARK  status: ('A' for Active; 'I' for Inactive)
REMARK    1  A    between atoms: N_1  and  C_2
REMARK    2  A    between atoms: C_2  and  C_3
REMARK    3  A    between atoms: C_3  and  N_4
REMARK    4  A    between atoms: C_5  and  C_7
REMARK                            x       y       z     vdW  Elec       q    Type
REMARK                         _______ _______ _______ _____ _____    ______ ____
ROOT
ATOM      1  N   UNL     1       5.827   4.659  19.139  0.00  0.00    +0.000 N 
ATOM      2  C   UNL     1       4.508   4.783  18.757  0.00  0.00    +0.000 C 
ATOM      3  O   UNL     1       4.160   5.313  17.706  0.00  0.00    +0.000 OA
ATOM      4  H   UNL     1       6.087   3.962  19.827  0.00  0.00    +0.000 HD
ENDROOT
BRANCH   2   5
ATOM      5  C   UNL     1       3.487   4.215  19.677  0.00  0.00    +0.000 A 
ATOM      6  C   UNL     1       2.222   4.803  19.831  0.00  0.00    +0.000 A 
ATOM      7  C   UNL     1       1.274   4.208  20.669  0.00  0.00    +0.000 A 
ATOM      8  C   UNL     1       1.591   3.034  21.345  0.00  0.00    +0.000 A 
ATOM      9  F   UNL     1       0.677   2.465  22.141  0.00  0.00    +0.000 F 
ATOM     10  C   UNL     1       2.839   2.437  21.197  0.00  0.00    +0.000 A 
ATOM     11  C   UNL     1       3.786   3.025  20.358  0.00  0.00    +0.000 A 
ENDBRANCH   2   5
BRANCH   1  12
ATOM     12  C   UNL     1       6.886   5.129  18.268  0.00  0.00    +0.000 C 
BRANCH  12  13
ATOM     13  C   UNL     1       7.968   5.898  19.039  0.00  0.00    +0.000 C 
BRANCH  13  14
ATOM     14  N   UNL     1       8.064   5.448  20.433  0.00  0.00    +0.000 NA
ATOM     15  H   UNL     1       8.315   6.245  21.019  0.00  0.00    +0.000 HD
ATOM     16  H   UNL     1       8.843   4.792  20.516  0.00  0.00    +0.000 HD
ENDBRANCH  13  14
ENDBRANCH  12  13
ENDBRANCH   1  12
TORSDOF 4
ENDMDL
