MODEL 1
REMARK VINA RESULT:      -8.4      0.000      0.000
REMARK  Name = 
REMARK  9 active torsions:
REMARK  status: ('A' for Active; 'I' for Inactive)
REMARK    1  A    between atoms: C_1  and  O_2
REMARK    2  A    between atoms: O_2  and  C_3
REMARK    3  A    between atoms: C_6  and  C_7
REMARK    4  A    between atoms: N_9  and  C_10
REMARK    5  A    between atoms: C_10  and  C_11
REMARK    6  A    between atoms: C_10  and  C_12
REMARK    7  A    between atoms: C_10  and  C_13
REMARK    8  A    between atoms: C_16  and  C_17
REMARK    9  A    between atoms: C_20  and  C_21
REMARK                            x       y       z     vdW  Elec       q    Type
REMARK                         _______ _______ _______ _____ _____    ______ ____
ROOT
ATOM      1  C   UNL     1       3.638   4.721  19.301  0.00  0.00    +0.000 A 
ATOM      2  C   UNL     1       2.615   5.211  20.115  0.00  0.00    +0.000 A 
ATOM      3  C   UNL     1       2.056   6.453  19.846  0.00  0.00    +0.000 A 
ATOM      4  C   UNL     1       2.547   7.184  18.775  0.00  0.00    +0.000 A 
ATOM      5  N   UNL     1       3.539   6.746  17.955  0.00  0.00    +0.000 NA
ATOM      6  C   UNL     1       4.076   5.514  18.216  0.00  0.00    +0.000 A 
ENDROOT
BRANCH   6   7
ATOM      7  C   UNL     1       5.123   5.092  17.245  0.00  0.00    +0.000 A 
ATOM      8  C   UNL     1       6.485   5.091  17.610  0.00  0.00    +0.000 A 
ATOM      9  C   UNL     1       7.492   4.725  16.707  0.00  0.00    +0.000 A 
ATOM     10  C   UNL     1       7.159   4.343  15.411  0.00  0.00    +0.000 A 
ATOM     11  C   UNL     1       5.825   4.339  15.024  0.00  0.00    +0.000 A 
ATOM     12 CL   UNL     1       5.402   3.872  13.421  0.00  0.00    +0.000 Cl
ATOM     13  C   UNL     1       4.822   4.719  15.920  0.00  0.00    +0.000 A 
ENDBRANCH   6   7
BRANCH   4  14
ATOM     14  C   UNL     1       1.958   8.535  18.506  0.00  0.00    +0.000 C 
ATOM     15  O   UNL     1       2.160   9.080  17.424  0.00  0.00    +0.000 OA
ATOM     16  N   UNL     1       1.203   9.094  19.511  0.00  0.00    +0.000 N 
ATOM     17  H   UNL     1       1.096   8.565  20.375  0.00  0.00    +0.000 HD
BRANCH  16  18
ATOM     18  C   UNL     1       0.560  10.423  19.426  0.00  0.00    +0.000 C 
ATOM     19  C   UNL     1       1.590  11.487  18.994  0.00  0.00    +0.000 C 
ATOM     20  C   UNL     1      -0.617  10.385  18.429  0.00  0.00    +0.000 C 
BRANCH  18  21
ATOM     21  C   UNL     1       0.022  10.778  20.804  0.00  0.00    +0.000 A 
ATOM     22  N   UNL     1       0.664  10.445  21.934  0.00  0.00    +0.000 NA
ATOM     23  O   UNL     1      -0.146  10.962  22.937  0.00  0.00    +0.000 OA
ATOM     24  C   UNL     1      -1.198  11.561  22.316  0.00  0.00    +0.000 A 
ATOM     25  C   UNL     1      -2.203  12.196  23.184  0.00  0.00    +0.000 C 
ATOM     26  N   UNL     1      -1.148  11.479  21.004  0.00  0.00    +0.000 NA
ENDBRANCH  18  21
ENDBRANCH  16  18
ENDBRANCH   4  14
BRANCH   1  28
ATOM     27  C   UNL     1       3.562   2.348  19.264  0.00  0.00    +0.000 C 
ATOM     28  O   UNL     1       4.280   3.541  19.574  0.00  0.00    +0.000 OA
ENDBRANCH   1  28
TORSDOF 5
ENDMDL
MODEL 2
REMARK VINA RESULT:      -7.9      1.527      2.434
REMARK  Name = 
REMARK  9 active torsions:
REMARK  status: ('A' for Active; 'I' for Inactive)
REMARK    1  A    between atoms: C_1  and  O_2
REMARK    2  A    between atoms: O_2  and  C_3
REMARK    3  A    between atoms: C_6  and  C_7
REMARK    4  A    between atoms: N_9  and  C_10
REMARK    5  A    between atoms: C_10  and  C_11
REMARK    6  A    between atoms: C_10  and  C_12
REMARK    7  A    between atoms: C_10  and  C_13
REMARK    8  A    between atoms: C_16  and  C_17
REMARK    9  A    between atoms: C_20  and  C_21
REMARK                            x       y       z     vdW  Elec       q    Type
REMARK                         _______ _______ _______ _____ _____    ______ ____
ROOT
ATOM      1  C   UNL     1       3.322   4.845  19.517  0.00  0.00    +0.000 A 
ATOM      2  C   UNL     1       2.248   5.383  20.228  0.00  0.00    +0.000 A 
ATOM      3  C   UNL     1       1.790   6.658  19.925  0.00  0.00    +0.000 A 
ATOM      4  C   UNL     1       2.433   7.373  18.925  0.00  0.00    +0.000 A 
ATOM      5  N   UNL     1       3.480   6.890  18.206  0.00  0.00    +0.000 NA
ATOM      6  C   UNL     1       3.917   5.626  18.500  0.00  0.00    +0.000 A 
ENDROOT
BRANCH   6   7
ATOM      7  C   UNL     1       5.036   5.157  17.636  0.00  0.00    +0.000 A 
ATOM      8  C   UNL     1       6.347   5.063  18.145  0.00  0.00    +0.000 A 
ATOM      9  C   UNL     1       7.422   4.651  17.348  0.00  0.00    +0.000 A 
ATOM     10  C   UNL     1       7.211   4.316  16.014  0.00  0.00    +0.000 A 
ATOM     11  C   UNL     1       5.929   4.403  15.485  0.00  0.00    +0.000 A 
ATOM     12 CL   UNL     1       5.655   3.994  13.835  0.00  0.00    +0.000 Cl
ATOM     13  C   UNL     1       4.859   4.828  16.278  0.00  0.00    +0.000 A 
ENDBRANCH   6   7
BRANCH   4  14
ATOM     14  C   UNL     1       1.951   8.759  18.621  0.00  0.00    +0.000 C 
ATOM     15  O   UNL     1       2.236   9.277  17.544  0.00  0.00    +0.000 OA
ATOM     16  N   UNL     1       1.197   9.381  19.589  0.00  0.00    +0.000 N 
ATOM     17  H   UNL     1       1.016   8.870  20.452  0.00  0.00    +0.000 HD
BRANCH  16  18
ATOM     18  C   UNL     1       0.652  10.750  19.466  0.00  0.00    +0.000 C 
ATOM     19  C   UNL     1       0.457  11.373  20.863  0.00  0.00    +0.000 C 
ATOM     20  C   UNL     1       1.596  11.628  18.619  0.00  0.00    +0.000 C 
BRANCH  18  21
ATOM     21  C   UNL     1      -0.696  10.662  18.765  0.00  0.00    +0.000 A 
ATOM     22  N   UNL     1      -1.801  11.239  19.260  0.00  0.00    +0.000 NA
ATOM     23  O   UNL     1      -2.780  10.933  18.322  0.00  0.00    +0.000 OA
ATOM     24  C   UNL     1      -2.169  10.203  17.349  0.00  0.00    +0.000 A 
ATOM     25  C   UNL     1      -3.013   9.761  16.227  0.00  0.00    +0.000 C 
ATOM     26  N   UNL     1      -0.888  10.004  17.569  0.00  0.00    +0.000 NA
ENDBRANCH  18  21
ENDBRANCH  16  18
ENDBRANCH   4  14
BRANCH   1  28
ATOM     27  C   UNL     1       3.031   2.743  20.580  0.00  0.00    +0.000 C 
ATOM     28  O   UNL     1       3.865   3.628  19.835  0.00  0.00    +0.000 OA
ENDBRANCH   1  28
TORSDOF 5
ENDMDL
MODEL 3
REMARK VINA RESULT:      -7.9      1.809      2.682
REMARK  Name = 
REMARK  9 active torsions:
REMARK  status: ('A' for Active; 'I' for Inactive)
REMARK    1  A    between atoms: C_1  and  O_2
REMARK    2  A    between atoms: O_2  and  C_3
REMARK    3  A    between atoms: C_6  and  C_7
REMARK    4  A    between atoms: N_9  and  C_10
REMARK    5  A    between atoms: C_10  and  C_11
REMARK    6  A    between atoms: C_10  and  C_12
REMARK    7  A    between atoms: C_10  and  C_13
REMARK    8  A    between atoms: C_16  and  C_17
REMARK    9  A    between atoms: C_20  and  C_21
REMARK                            x       y       z     vdW  Elec       q    Type
REMARK                         _______ _______ _______ _____ _____    ______ ____
ROOT
ATOM      1  C   UNL     1       2.936   4.115  19.767  0.00  0.00    +0.000 A 
ATOM      2  C   UNL     1       1.813   4.359  20.560  0.00  0.00    +0.000 A 
ATOM      3  C   UNL     1       1.369   5.661  20.743  0.00  0.00    +0.000 A 
ATOM      4  C   UNL     1       2.073   6.693  20.140  0.00  0.00    +0.000 A 
ATOM      5  N   UNL     1       3.169   6.503  19.359  0.00  0.00    +0.000 NA
ATOM      6  C   UNL     1       3.593   5.214  19.169  0.00  0.00    +0.000 A 
ENDROOT
BRANCH   6   7
ATOM      7  C   UNL     1       4.770   5.092  18.265  0.00  0.00    +0.000 A 
ATOM      8  C   UNL     1       6.077   5.283  18.757  0.00  0.00    +0.000 A 
ATOM      9  C   UNL     1       7.200   5.200  17.923  0.00  0.00    +0.000 A 
ATOM     10  C   UNL     1       7.042   4.918  16.570  0.00  0.00    +0.000 A 
ATOM     11  C   UNL     1       5.764   4.728  16.058  0.00  0.00    +0.000 A 
ATOM     12 CL   UNL     1       5.556   4.381  14.384  0.00  0.00    +0.000 Cl
ATOM     13  C   UNL     1       4.644   4.826  16.888  0.00  0.00    +0.000 A 
ENDBRANCH   6   7
BRANCH   4  14
ATOM     14  C   UNL     1       1.604   8.099  20.363  0.00  0.00    +0.000 C 
ATOM     15  O   UNL     1       1.371   8.485  21.506  0.00  0.00    +0.000 OA
ATOM     16  N   UNL     1       1.463   8.891  19.248  0.00  0.00    +0.000 N 
ATOM     17  H   UNL     1       1.678   8.478  18.341  0.00  0.00    +0.000 HD
BRANCH  16  18
ATOM     18  C   UNL     1       0.999  10.294  19.279  0.00  0.00    +0.000 C 
ATOM     19  C   UNL     1       0.948  10.807  20.732  0.00  0.00    +0.000 C 
ATOM     20  C   UNL     1       1.930  11.186  18.432  0.00  0.00    +0.000 C 
BRANCH  18  21
ATOM     21  C   UNL     1      -0.401  10.343  18.682  0.00  0.00    +0.000 A 
ATOM     22  N   UNL     1      -1.416  10.979  19.286  0.00  0.00    +0.000 NA
ATOM     23  O   UNL     1      -2.483  10.793  18.416  0.00  0.00    +0.000 OA
ATOM     24  C   UNL     1      -2.008  10.066  17.369  0.00  0.00    +0.000 A 
ATOM     25  C   UNL     1      -2.967   9.744  16.298  0.00  0.00    +0.000 C 
ATOM     26  N   UNL     1      -0.734   9.759  17.479  0.00  0.00    +0.000 NA
ENDBRANCH  18  21
ENDBRANCH  16  18
ENDBRANCH   4  14
BRANCH   1  28
ATOM     27  C   UNL     1       2.787   1.991  18.716  0.00  0.00    +0.000 C 
ATOM     28  O   UNL     1       3.464   2.858  19.625  0.00  0.00    +0.000 OA
ENDBRANCH   1  28
TORSDOF 5
ENDMDL
MODEL 4
REMARK VINA RESULT:      -7.7      3.463      9.121
REMARK  Name = 
REMARK  9 active torsions:
REMARK  status: ('A' for Active; 'I' for Inactive)
REMARK    1  A    between atoms: C_1  and  O_2
REMARK    2  A    between atoms: O_2  and  C_3
REMARK    3  A    between atoms: C_6  and  C_7
REMARK    4  A    between atoms: N_9  and  C_10
REMARK    5  A    between atoms: C_10  and  C_11
REMARK    6  A    between atoms: C_10  and  C_12
REMARK    7  A    between atoms: C_10  and  C_13
REMARK    8  A    between atoms: C_16  and  C_17
REMARK    9  A    between atoms: C_20  and  C_21
REMARK                            x       y       z     vdW  Elec       q    Type
REMARK                         _______ _______ _______ _____ _____    ______ ____
ROOT
ATOM      1  C   UNL     1       1.269   9.887  18.586  0.00  0.00    +0.000 A 
ATOM      2  C   UNL     1       1.982   9.341  17.517  0.00  0.00    +0.000 A 
ATOM      3  C   UNL     1       2.637   8.126  17.675  0.00  0.00    +0.000 A 
ATOM      4  C   UNL     1       2.576   7.495  18.908  0.00  0.00    +0.000 A 
ATOM      5  N   UNL     1       1.893   7.988  19.975  0.00  0.00    +0.000 NA
ATOM      6  C   UNL     1       1.236   9.178  19.808  0.00  0.00    +0.000 A 
ENDROOT
BRANCH   6   7
ATOM      7  C   UNL     1       0.477   9.623  21.010  0.00  0.00    +0.000 A 
ATOM      8  C   UNL     1      -0.017   8.683  21.937  0.00  0.00    +0.000 A 
ATOM      9  C   UNL     1      -0.757   9.072  23.061  0.00  0.00    +0.000 A 
ATOM     10  C   UNL     1      -1.018  10.419  23.289  0.00  0.00    +0.000 A 
ATOM     11  C   UNL     1      -0.546  11.366  22.389  0.00  0.00    +0.000 A 
ATOM     12 CL   UNL     1      -0.866  13.037  22.661  0.00  0.00    +0.000 Cl
ATOM     13  C   UNL     1       0.179  10.976  21.261  0.00  0.00    +0.000 A 
ENDBRANCH   6   7
BRANCH   4  14
ATOM     14  C   UNL     1       3.306   6.198  19.079  0.00  0.00    +0.000 C 
ATOM     15  O   UNL     1       3.010   5.454  20.010  0.00  0.00    +0.000 OA
ATOM     16  N   UNL     1       4.287   5.912  18.157  0.00  0.00    +0.000 N 
ATOM     17  H   UNL     1       4.462   6.595  17.422  0.00  0.00    +0.000 HD
BRANCH  16  18
ATOM     18  C   UNL     1       5.117   4.688  18.181  0.00  0.00    +0.000 C 
ATOM     19  C   UNL     1       6.139   4.759  19.333  0.00  0.00    +0.000 C 
ATOM     20  C   UNL     1       4.225   3.439  18.337  0.00  0.00    +0.000 C 
BRANCH  18  21
ATOM     21  C   UNL     1       5.861   4.595  16.857  0.00  0.00    +0.000 A 
ATOM     22  N   UNL     1       7.165   4.891  16.744  0.00  0.00    +0.000 NA
ATOM     23  O   UNL     1       7.438   4.663  15.401  0.00  0.00    +0.000 OA
ATOM     24  C   UNL     1       6.273   4.249  14.833  0.00  0.00    +0.000 A 
ATOM     25  C   UNL     1       6.314   3.935  13.395  0.00  0.00    +0.000 C 
ATOM     26  N   UNL     1       5.269   4.188  15.680  0.00  0.00    +0.000 NA
ENDBRANCH  18  21
ENDBRANCH  16  18
ENDBRANCH   4  14
BRANCH   1  28
ATOM     27  C   UNL     1       1.562  12.239  18.449  0.00  0.00    +0.000 C 
ATOM     28  O   UNL     1       0.678  11.121  18.508  0.00  0.00    +0.000 OA
ENDBRANCH   1  28
TORSDOF 5
ENDMDL
MODEL 5
REMARK VINA RESULT:      -7.7      2.835      4.631
REMARK  Name = 
REMARK  9 active torsions:
REMARK  status: ('A' for Active; 'I' for Inactive)
REMARK    1  A    between atoms: C_1  and  O_2
REMARK    2  A    between atoms: O_2  and  C_3
REMARK    3  A    between atoms: C_6  and  C_7
REMARK    4  A    between atoms: N_9  and  C_10
REMARK    5  A    between atoms: C_10  and  C_11
REMARK    6  A    between atoms: C_10  and  C_12
REMARK    7  A    between atoms: C_10  and  C_13
REMARK    8  A    between atoms: C_16  and  C_17
REMARK    9  A    between atoms: C_20  and  C_21
REMARK                            x       y       z     vdW  Elec       q    Type
REMARK                         _______ _______ _______ _____ _____    ______ ____
ROOT
ATOM      1  C   UNL     1       4.088   5.733  17.443  0.00  0.00    +0.000 A 
ATOM      2  C   UNL     1       4.617   6.938  16.978  0.00  0.00    +0.000 A 
ATOM      3  C   UNL     1       3.938   8.125  17.215  0.00  0.00    +0.000 A 
ATOM      4  C   UNL     1       2.733   8.075  17.899  0.00  0.00    +0.000 A 
ATOM      5  N   UNL     1       2.181   6.927  18.371  0.00  0.00    +0.000 NA
ATOM      6  C   UNL     1       2.863   5.760  18.148  0.00  0.00    +0.000 A 
ENDROOT
BRANCH   6   7
ATOM      7  C   UNL     1       2.213   4.557  18.737  0.00  0.00    +0.000 A 
ATOM      8  C   UNL     1       1.441   3.691  17.936  0.00  0.00    +0.000 A 
ATOM      9  C   UNL     1       0.797   2.568  18.470  0.00  0.00    +0.000 A 
ATOM     10  C   UNL     1       0.914   2.278  19.826  0.00  0.00    +0.000 A 
ATOM     11  C   UNL     1       1.666   3.117  20.639  0.00  0.00    +0.000 A 
ATOM     12 CL   UNL     1       1.816   2.770  22.320  0.00  0.00    +0.000 Cl
ATOM     13  C   UNL     1       2.296   4.246  20.109  0.00  0.00    +0.000 A 
ENDBRANCH   6   7
BRANCH   4  14
ATOM     14  C   UNL     1       1.992   9.357  18.127  0.00  0.00    +0.000 C 
ATOM     15  O   UNL     1       2.291  10.355  17.476  0.00  0.00    +0.000 OA
ATOM     16  N   UNL     1       0.994   9.337  19.074  0.00  0.00    +0.000 N 
ATOM     17  H   UNL     1       0.822   8.461  19.565  0.00  0.00    +0.000 HD
BRANCH  16  18
ATOM     18  C   UNL     1       0.172  10.510  19.440  0.00  0.00    +0.000 C 
ATOM     19  C   UNL     1      -0.542  10.262  20.784  0.00  0.00    +0.000 C 
ATOM     20  C   UNL     1       1.052  11.774  19.530  0.00  0.00    +0.000 C 
BRANCH  18  21
ATOM     21  C   UNL     1      -0.870  10.717  18.351  0.00  0.00    +0.000 A 
ATOM     22  N   UNL     1      -1.448  11.907  18.126  0.00  0.00    +0.000 NA
ATOM     23  O   UNL     1      -2.305  11.660  17.061  0.00  0.00    +0.000 OA
ATOM     24  C   UNL     1      -2.160  10.344  16.743  0.00  0.00    +0.000 A 
ATOM     25  C   UNL     1      -2.973   9.842  15.623  0.00  0.00    +0.000 C 
ATOM     26  N   UNL     1      -1.291   9.714  17.503  0.00  0.00    +0.000 NA
ENDBRANCH  18  21
ENDBRANCH  16  18
ENDBRANCH   4  14
BRANCH   1  28
ATOM     27  C   UNL     1       6.017   4.360  17.616  0.00  0.00    +0.000 C 
ATOM     28  O   UNL     1       4.675   4.527  17.162  0.00  0.00    +0.000 OA
ENDBRANCH   1  28
TORSDOF 5
ENDMDL
MODEL 6
REMARK VINA RESULT:      -7.5      1.572      2.400
REMARK  Name = 
REMARK  9 active torsions:
REMARK  status: ('A' for Active; 'I' for Inactive)
REMARK    1  A    between atoms: C_1  and  O_2
REMARK    2  A    between atoms: O_2  and  C_3
REMARK    3  A    between atoms: C_6  and  C_7
REMARK    4  A    between atoms: N_9  and  C_10
REMARK    5  A    between atoms: C_10  and  C_11
REMARK    6  A    between atoms: C_10  and  C_12
REMARK    7  A    between atoms: C_10  and  C_13
REMARK    8  A    between atoms: C_16  and  C_17
REMARK    9  A    between atoms: C_20  and  C_21
REMARK                            x       y       z     vdW  Elec       q    Type
REMARK                         _______ _______ _______ _____ _____    ______ ____
ROOT
ATOM      1  C   UNL     1       3.514   5.261  19.446  0.00  0.00    +0.000 A 
ATOM      2  C   UNL     1       2.453   5.668  20.257  0.00  0.00    +0.000 A 
ATOM      3  C   UNL     1       1.816   6.875  20.002  0.00  0.00    +0.000 A 
ATOM      4  C   UNL     1       2.269   7.656  18.949  0.00  0.00    +0.000 A 
ATOM      5  N   UNL     1       3.295   7.299  18.133  0.00  0.00    +0.000 NA
ATOM      6  C   UNL     1       3.910   6.100  18.379  0.00  0.00    +0.000 A 
ENDROOT
BRANCH   6   7
ATOM      7  C   UNL     1       4.992   5.765  17.413  0.00  0.00    +0.000 A 
ATOM      8  C   UNL     1       6.326   6.141  17.668  0.00  0.00    +0.000 A 
ATOM      9  C   UNL     1       7.359   5.863  16.763  0.00  0.00    +0.000 A 
ATOM     10  C   UNL     1       7.081   5.192  15.576  0.00  0.00    +0.000 A 
ATOM     11  C   UNL     1       5.774   4.813  15.297  0.00  0.00    +0.000 A 
ATOM     12 CL   UNL     1       5.418   3.985  13.830  0.00  0.00    +0.000 Cl
ATOM     13  C   UNL     1       4.742   5.105  16.194  0.00  0.00    +0.000 A 
ENDBRANCH   6   7
BRANCH   4  14
ATOM     14  C   UNL     1       1.594   8.969  18.696  0.00  0.00    +0.000 C 
ATOM     15  O   UNL     1       1.672   9.487  17.585  0.00  0.00    +0.000 OA
ATOM     16  N   UNL     1       0.908   9.528  19.750  0.00  0.00    +0.000 N 
ATOM     17  H   UNL     1       0.904   9.024  20.635  0.00  0.00    +0.000 HD
BRANCH  16  18
ATOM     18  C   UNL     1       0.197  10.823  19.686  0.00  0.00    +0.000 C 
ATOM     19  C   UNL     1      -0.631  10.912  18.388  0.00  0.00    +0.000 C 
ATOM     20  C   UNL     1      -0.720  10.993  20.915  0.00  0.00    +0.000 C 
BRANCH  18  21
ATOM     21  C   UNL     1       1.236  11.935  19.693  0.00  0.00    +0.000 A 
ATOM     22  N   UNL     1       1.775  12.407  20.827  0.00  0.00    +0.000 NA
ATOM     23  O   UNL     1       2.665  13.379  20.388  0.00  0.00    +0.000 OA
ATOM     24  C   UNL     1       2.581  13.397  19.030  0.00  0.00    +0.000 A 
ATOM     25  C   UNL     1       3.448  14.357  18.327  0.00  0.00    +0.000 C 
ATOM     26  N   UNL     1       1.717  12.531  18.546  0.00  0.00    +0.000 NA
ENDBRANCH  18  21
ENDBRANCH  16  18
ENDBRANCH   4  14
BRANCH   1  28
ATOM     27  C   UNL     1       3.500   2.897  19.663  0.00  0.00    +0.000 C 
ATOM     28  O   UNL     1       4.230   4.121  19.707  0.00  0.00    +0.000 OA
ENDBRANCH   1  28
TORSDOF 5
ENDMDL
MODEL 7
REMARK VINA RESULT:      -7.4      2.061      2.953
REMARK  Name = 
REMARK  9 active torsions:
REMARK  status: ('A' for Active; 'I' for Inactive)
REMARK    1  A    between atoms: C_1  and  O_2
REMARK    2  A    between atoms: O_2  and  C_3
REMARK    3  A    between atoms: C_6  and  C_7
REMARK    4  A    between atoms: N_9  and  C_10
REMARK    5  A    between atoms: C_10  and  C_11
REMARK    6  A    between atoms: C_10  and  C_12
REMARK    7  A    between atoms: C_10  and  C_13
REMARK    8  A    between atoms: C_16  and  C_17
REMARK    9  A    between atoms: C_20  and  C_21
REMARK                            x       y       z     vdW  Elec       q    Type
REMARK                         _______ _______ _______ _____ _____    ______ ____
ROOT
ATOM      1  C   UNL     1       2.978   4.533  19.779  0.00  0.00    +0.000 A 
ATOM      2  C   UNL     1       1.954   4.680  20.715  0.00  0.00    +0.000 A 
ATOM      3  C   UNL     1       1.358   5.920  20.895  0.00  0.00    +0.000 A 
ATOM      4  C   UNL     1       1.814   6.992  20.142  0.00  0.00    +0.000 A 
ATOM      5  N   UNL     1       2.806   6.895  19.217  0.00  0.00    +0.000 NA
ATOM      6  C   UNL     1       3.380   5.665  19.034  0.00  0.00    +0.000 A 
ENDROOT
BRANCH   6   7
ATOM      7  C   UNL     1       4.425   5.637  17.973  0.00  0.00    +0.000 A 
ATOM      8  C   UNL     1       4.324   4.743  16.888  0.00  0.00    +0.000 A 
ATOM      9  C   UNL     1       5.306   4.678  15.890  0.00  0.00    +0.000 A 
ATOM     10  C   UNL     1       6.416   5.514  15.951  0.00  0.00    +0.000 A 
ATOM     11  C   UNL     1       6.542   6.403  17.012  0.00  0.00    +0.000 A 
ATOM     12 CL   UNL     1       7.913   7.441  17.099  0.00  0.00    +0.000 Cl
ATOM     13  C   UNL     1       5.570   6.457  18.014  0.00  0.00    +0.000 A 
ENDBRANCH   6   7
BRANCH   4  14
ATOM     14  C   UNL     1       1.184   8.333  20.359  0.00  0.00    +0.000 C 
ATOM     15  O   UNL     1       0.460   8.511  21.335  0.00  0.00    +0.000 OA
ATOM     16  N   UNL     1       1.467   9.309  19.432  0.00  0.00    +0.000 N 
ATOM     17  H   UNL     1       2.077   9.064  18.654  0.00  0.00    +0.000 HD
BRANCH  16  18
ATOM     18  C   UNL     1       0.922  10.683  19.480  0.00  0.00    +0.000 C 
ATOM     19  C   UNL     1       0.862  11.182  20.938  0.00  0.00    +0.000 C 
ATOM     20  C   UNL     1       1.788  11.633  18.627  0.00  0.00    +0.000 C 
BRANCH  18  21
ATOM     21  C   UNL     1      -0.486  10.655  18.903  0.00  0.00    +0.000 A 
ATOM     22  N   UNL     1      -1.510  11.306  19.477  0.00  0.00    +0.000 NA
ATOM     23  O   UNL     1      -2.583  11.033  18.638  0.00  0.00    +0.000 OA
ATOM     24  C   UNL     1      -2.103  10.246  17.637  0.00  0.00    +0.000 A 
ATOM     25  C   UNL     1      -3.068   9.826  16.606  0.00  0.00    +0.000 C 
ATOM     26  N   UNL     1      -0.820   9.980  17.748  0.00  0.00    +0.000 NA
ENDBRANCH  18  21
ENDBRANCH  16  18
ENDBRANCH   4  14
BRANCH   1  28
ATOM     27  C   UNL     1       2.867   2.214  19.280  0.00  0.00    +0.000 C 
ATOM     28  O   UNL     1       3.656   3.351  19.624  0.00  0.00    +0.000 OA
ENDBRANCH   1  28
TORSDOF 5
ENDMDL
MODEL 8
REMARK VINA RESULT:      -7.4      3.084      8.366
REMARK  Name = 
REMARK  9 active torsions:
REMARK  status: ('A' for Active; 'I' for Inactive)
REMARK    1  A    between atoms: C_1  and  O_2
REMARK    2  A    between atoms: O_2  and  C_3
REMARK    3  A    between atoms: C_6  and  C_7
REMARK    4  A    between atoms: N_9  and  C_10
REMARK    5  A    between atoms: C_10  and  C_11
REMARK    6  A    between atoms: C_10  and  C_12
REMARK    7  A    between atoms: C_10  and  C_13
REMARK    8  A    between atoms: C_16  and  C_17
REMARK    9  A    between atoms: C_20  and  C_21
REMARK                            x       y       z     vdW  Elec       q    Type
REMARK                         _______ _______ _______ _____ _____    ______ ____
ROOT
ATOM      1  C   UNL     1       0.611  10.240  21.714  0.00  0.00    +0.000 A 
ATOM      2  C   UNL     1       0.909   8.995  22.271  0.00  0.00    +0.000 A 
ATOM      3  C   UNL     1       1.438   7.992  21.470  0.00  0.00    +0.000 A 
ATOM      4  C   UNL     1       1.641   8.255  20.123  0.00  0.00    +0.000 A 
ATOM      5  N   UNL     1       1.368   9.452  19.540  0.00  0.00    +0.000 NA
ATOM      6  C   UNL     1       0.860  10.442  20.338  0.00  0.00    +0.000 A 
ENDROOT
BRANCH   6   7
ATOM      7  C   UNL     1       0.633  11.732  19.630  0.00  0.00    +0.000 A 
ATOM      8  C   UNL     1      -0.662  12.110  19.221  0.00  0.00    +0.000 A 
ATOM      9  C   UNL     1      -0.900  13.305  18.530  0.00  0.00    +0.000 A 
ATOM     10  C   UNL     1       0.158  14.159  18.234  0.00  0.00    +0.000 A 
ATOM     11  C   UNL     1       1.445  13.810  18.622  0.00  0.00    +0.000 A 
ATOM     12 CL   UNL     1       2.762  14.858  18.257  0.00  0.00    +0.000 Cl
ATOM     13  C   UNL     1       1.684  12.610  19.298  0.00  0.00    +0.000 A 
ENDBRANCH   6   7
BRANCH   4  14
ATOM     14  C   UNL     1       2.188   7.160  19.260  0.00  0.00    +0.000 C 
ATOM     15  O   UNL     1       2.352   7.360  18.059  0.00  0.00    +0.000 OA
ATOM     16  N   UNL     1       2.483   5.968  19.880  0.00  0.00    +0.000 N 
ATOM     17  H   UNL     1       2.309   5.898  20.882  0.00  0.00    +0.000 HD
BRANCH  16  18
ATOM     18  C   UNL     1       3.015   4.778  19.183  0.00  0.00    +0.000 C 
ATOM     19  C   UNL     1       3.063   3.574  20.145  0.00  0.00    +0.000 C 
ATOM     20  C   UNL     1       2.145   4.443  17.954  0.00  0.00    +0.000 C 
BRANCH  18  21
ATOM     21  C   UNL     1       4.426   5.096  18.711  0.00  0.00    +0.000 A 
ATOM     22  N   UNL     1       4.753   5.155  17.411  0.00  0.00    +0.000 NA
ATOM     23  O   UNL     1       6.103   5.481  17.426  0.00  0.00    +0.000 OA
ATOM     24  C   UNL     1       6.461   5.590  18.735  0.00  0.00    +0.000 A 
ATOM     25  C   UNL     1       7.865   5.940  19.008  0.00  0.00    +0.000 C 
ATOM     26  N   UNL     1       5.471   5.364  19.570  0.00  0.00    +0.000 NA
ENDBRANCH  18  21
ENDBRANCH  16  18
ENDBRANCH   4  14
BRANCH   1  28
ATOM     27  C   UNL     1      -1.225  10.892  23.071  0.00  0.00    +0.000 C 
ATOM     28  O   UNL     1       0.009  11.233  22.442  0.00  0.00    +0.000 OA
ENDBRANCH   1  28
TORSDOF 5
ENDMDL
MODEL 9
REMARK VINA RESULT:      -7.4      1.680      2.657
REMARK  Name = 
REMARK  9 active torsions:
REMARK  status: ('A' for Active; 'I' for Inactive)
REMARK    1  A    between atoms: C_1  and  O_2
REMARK    2  A    between atoms: O_2  and  C_3
REMARK    3  A    between atoms: C_6  and  C_7
REMARK    4  A    between atoms: N_9  and  C_10
REMARK    5  A    between atoms: C_10  and  C_11
REMARK    6  A    between atoms: C_10  and  C_12
REMARK    7  A    between atoms: C_10  and  C_13
REMARK    8  A    between atoms: C_16  and  C_17
REMARK    9  A    between atoms: C_20  and  C_21
REMARK                            x       y       z     vdW  Elec       q    Type
REMARK                         _______ _______ _______ _____ _____    ______ ____
ROOT
ATOM      1  C   UNL     1       3.157   4.413  19.610  0.00  0.00    +0.000 A 
ATOM      2  C   UNL     1       2.088   4.574  20.494  0.00  0.00    +0.000 A 
ATOM      3  C   UNL     1       1.538   5.834  20.686  0.00  0.00    +0.000 A 
ATOM      4  C   UNL     1       2.083   6.909  20.001  0.00  0.00    +0.000 A 
ATOM      5  N   UNL     1       3.121   6.799  19.130  0.00  0.00    +0.000 NA
ATOM      6  C   UNL     1       3.650   5.551  18.932  0.00  0.00    +0.000 A 
ENDROOT
BRANCH   6   7
ATOM      7  C   UNL     1       4.751   5.513  17.930  0.00  0.00    +0.000 A 
ATOM      8  C   UNL     1       6.019   6.048  18.235  0.00  0.00    +0.000 A 
ATOM      9  C   UNL     1       7.064   6.049  17.302  0.00  0.00    +0.000 A 
ATOM     10  C   UNL     1       6.867   5.508  16.036  0.00  0.00    +0.000 A 
ATOM     11  C   UNL     1       5.625   4.977  15.708  0.00  0.00    +0.000 A 
ATOM     12 CL   UNL     1       5.369   4.307  14.142  0.00  0.00    +0.000 Cl
ATOM     13  C   UNL     1       4.579   4.990  16.634  0.00  0.00    +0.000 A 
ENDBRANCH   6   7
BRANCH   4  14
ATOM     14  C   UNL     1       1.502   8.270  20.234  0.00  0.00    +0.000 C 
ATOM     15  O   UNL     1       1.643   8.810  21.328  0.00  0.00    +0.000 OA
ATOM     16  N   UNL     1       0.832   8.848  19.180  0.00  0.00    +0.000 N 
ATOM     17  H   UNL     1       0.766   8.319  18.312  0.00  0.00    +0.000 HD
BRANCH  16  18
ATOM     18  C   UNL     1       0.185  10.176  19.236  0.00  0.00    +0.000 C 
ATOM     19  C   UNL     1      -0.954  10.257  18.199  0.00  0.00    +0.000 C 
ATOM     20  C   UNL     1      -0.364  10.445  20.652  0.00  0.00    +0.000 C 
BRANCH  18  21
ATOM     21  C   UNL     1       1.234  11.229  18.909  0.00  0.00    +0.000 A 
ATOM     22  N   UNL     1       2.159  11.049  17.954  0.00  0.00    +0.000 NA
ATOM     23  O   UNL     1       2.888  12.231  17.976  0.00  0.00    +0.000 OA
ATOM     24  C   UNL     1       2.330  13.013  18.940  0.00  0.00    +0.000 A 
ATOM     25  C   UNL     1       2.936  14.339  19.148  0.00  0.00    +0.000 C 
ATOM     26  N   UNL     1       1.310  12.448  19.548  0.00  0.00    +0.000 NA
ENDBRANCH  18  21
ENDBRANCH  16  18
ENDBRANCH   4  14
BRANCH   1  28
ATOM     27  C   UNL     1       2.953   2.097  19.132  0.00  0.00    +0.000 C 
ATOM     28  O   UNL     1       3.789   3.208  19.449  0.00  0.00    +0.000 OA
ENDBRANCH   1  28
TORSDOF 5
ENDMDL
