MODEL 1
REMARK VINA RESULT:      -7.1      0.000      0.000
REMARK  Name = 
REMARK  9 active torsions:
REMARK  status: ('A' for Active; 'I' for Inactive)
REMARK    1  A    between atoms: C_1  and  O_2
REMARK    2  A    between atoms: O_2  and  C_3
REMARK    3  A    between atoms: C_5  and  C_6
REMARK    4  A    between atoms: C_6  and  C_8
REMARK    5  A    between atoms: C_13  and  N_14
REMARK    6  A    between atoms: C_16  and  O_17
REMARK    7  A    between atoms: O_17  and  C_18
REMARK    8  A    between atoms: C_19  and  O_20
REMARK    9  A    between atoms: O_20  and  C_21
REMARK                            x       y       z     vdW  Elec       q    Type
REMARK                         _______ _______ _______ _____ _____    ______ ____
ROOT
ATOM      1  C   UNL     1       2.835   3.210  17.859  0.00  0.00    +0.000 C 
ATOM      2  O   UNL     1       2.261   2.590  16.967  0.00  0.00    +0.000 OA
ENDROOT
BRANCH   1   3
ATOM      3  C   UNL     1       2.677   2.932  19.272  0.00  0.00    +0.000 A 
ATOM      4  S   UNL     1       1.137   3.181  20.002  0.00  0.00    +0.000 S 
ATOM      5  C   UNL     1       1.750   2.573  21.484  0.00  0.00    +0.000 A 
ATOM      6  N   UNL     1       0.964   2.438  22.565  0.00  0.00    +0.000 N 
ATOM      7  N   UNL     1       3.020   2.268  21.486  0.00  0.00    +0.000 NA
ATOM      8  C   UNL     1       3.553   2.496  20.248  0.00  0.00    +0.000 A 
ATOM      9  H   UNL     1       0.133   3.011  22.622  0.00  0.00    +0.000 HD
ATOM     10  H   UNL     1       1.451   2.312  23.445  0.00  0.00    +0.000 HD
BRANCH   8  11
ATOM     11  N   UNL     1       4.867   2.265  20.136  0.00  0.00    +0.000 N 
ATOM     12  H   UNL     1       5.164   1.431  19.639  0.00  0.00    +0.000 HD
ATOM     13  H   UNL     1       5.603   2.938  20.303  0.00  0.00    +0.000 HD
ENDBRANCH   8  11
ENDBRANCH   1   3
BRANCH   1  16
ATOM     14  C   UNL     1       4.251   6.699  17.455  0.00  0.00    +0.000 A 
ATOM     15  C   UNL     1       3.362   5.639  17.705  0.00  0.00    +0.000 A 
ATOM     16  C   UNL     1       3.728   4.322  17.433  0.00  0.00    +0.000 A 
ATOM     17  C   UNL     1       4.940   4.080  16.788  0.00  0.00    +0.000 A 
ATOM     18  C   UNL     1       5.830   5.124  16.493  0.00  0.00    +0.000 A 
ATOM     19  C   UNL     1       5.492   6.456  16.819  0.00  0.00    +0.000 A 
BRANCH  14  21
ATOM     20  C   UNL     1       2.518   8.279  17.864  0.00  0.00    +0.000 C 
ATOM     21  O   UNL     1       3.914   7.981  17.810  0.00  0.00    +0.000 OA
ENDBRANCH  14  21
BRANCH  18  22
ATOM     22  O   UNL     1       6.978   4.637  15.922  0.00  0.00    +0.000 OA
ATOM     23  C   UNL     1       7.119   4.629  14.510  0.00  0.00    +0.000 C 
ENDBRANCH  18  22
BRANCH  19  24
ATOM     24  O   UNL     1       6.420   7.399  16.472  0.00  0.00    +0.000 OA
ATOM     25  C   UNL     1       7.446   7.792  17.366  0.00  0.00    +0.000 C 
ENDBRANCH  19  24
ENDBRANCH   1  16
TORSDOF 6
ENDMDL
MODEL 2
REMARK VINA RESULT:      -6.8      0.203      2.780
REMARK  Name = 
REMARK  9 active torsions:
REMARK  status: ('A' for Active; 'I' for Inactive)
REMARK    1  A    between atoms: C_1  and  O_2
REMARK    2  A    between atoms: O_2  and  C_3
REMARK    3  A    between atoms: C_5  and  C_6
REMARK    4  A    between atoms: C_6  and  C_8
REMARK    5  A    between atoms: C_13  and  N_14
REMARK    6  A    between atoms: C_16  and  O_17
REMARK    7  A    between atoms: O_17  and  C_18
REMARK    8  A    between atoms: C_19  and  O_20
REMARK    9  A    between atoms: O_20  and  C_21
REMARK                            x       y       z     vdW  Elec       q    Type
REMARK                         _______ _______ _______ _____ _____    ______ ____
ROOT
ATOM      1  C   UNL     1       2.871   3.312  18.036  0.00  0.00    +0.000 C 
ATOM      2  O   UNL     1       2.273   2.789  17.098  0.00  0.00    +0.000 OA
ENDROOT
BRANCH   1   3
ATOM      3  C   UNL     1       2.663   2.963  19.426  0.00  0.00    +0.000 A 
ATOM      4  S   UNL     1       1.111   3.221  20.126  0.00  0.00    +0.000 S 
ATOM      5  C   UNL     1       1.661   2.516  21.589  0.00  0.00    +0.000 A 
ATOM      6  N   UNL     1       0.839   2.349  22.639  0.00  0.00    +0.000 N 
ATOM      7  N   UNL     1       2.920   2.171  21.610  0.00  0.00    +0.000 NA
ATOM      8  C   UNL     1       3.496   2.448  20.401  0.00  0.00    +0.000 A 
ATOM      9  H   UNL     1       0.024   2.943  22.704  0.00  0.00    +0.000 HD
ATOM     10  H   UNL     1       1.296   2.160  23.524  0.00  0.00    +0.000 HD
BRANCH   8  11
ATOM     11  N   UNL     1       4.805   2.181  20.314  0.00  0.00    +0.000 N 
ATOM     12  H   UNL     1       5.156   1.793  19.443  0.00  0.00    +0.000 HD
ATOM     13  H   UNL     1       5.522   2.523  20.939  0.00  0.00    +0.000 HD
ENDBRANCH   8  11
ENDBRANCH   1   3
BRANCH   1  16
ATOM     14  C   UNL     1       5.924   5.023  16.591  0.00  0.00    +0.000 A 
ATOM     15  C   UNL     1       5.048   4.031  17.067  0.00  0.00    +0.000 A 
ATOM     16  C   UNL     1       3.852   4.377  17.692  0.00  0.00    +0.000 A 
ATOM     17  C   UNL     1       3.594   5.721  17.955  0.00  0.00    +0.000 A 
ATOM     18  C   UNL     1       4.469   6.730  17.524  0.00  0.00    +0.000 A 
ATOM     19  C   UNL     1       5.656   6.391  16.838  0.00  0.00    +0.000 A 
BRANCH  14  21
ATOM     20  C   UNL     1       6.890   4.402  14.506  0.00  0.00    +0.000 C 
ATOM     21  O   UNL     1       7.056   4.671  15.899  0.00  0.00    +0.000 OA
ENDBRANCH  14  21
BRANCH  18  22
ATOM     22  O   UNL     1       3.973   7.970  17.838  0.00  0.00    +0.000 OA
ATOM     23  C   UNL     1       2.571   8.185  17.866  0.00  0.00    +0.000 C 
ENDBRANCH  18  22
BRANCH  19  24
ATOM     24  O   UNL     1       6.448   7.446  16.478  0.00  0.00    +0.000 OA
ATOM     25  C   UNL     1       7.470   7.930  17.331  0.00  0.00    +0.000 C 
ENDBRANCH  19  24
ENDBRANCH   1  16
TORSDOF 6
ENDMDL
MODEL 3
REMARK VINA RESULT:      -6.6      3.307      5.754
REMARK  Name = 
REMARK  9 active torsions:
REMARK  status: ('A' for Active; 'I' for Inactive)
REMARK    1  A    between atoms: C_1  and  O_2
REMARK    2  A    between atoms: O_2  and  C_3
REMARK    3  A    between atoms: C_5  and  C_6
REMARK    4  A    between atoms: C_6  and  C_8
REMARK    5  A    between atoms: C_13  and  N_14
REMARK    6  A    between atoms: C_16  and  O_17
REMARK    7  A    between atoms: O_17  and  C_18
REMARK    8  A    between atoms: C_19  and  O_20
REMARK    9  A    between atoms: O_20  and  C_21
REMARK                            x       y       z     vdW  Elec       q    Type
REMARK                         _______ _______ _______ _____ _____    ______ ____
ROOT
ATOM      1  C   UNL     1       4.235   3.853  17.183  0.00  0.00    +0.000 C 
ATOM      2  O   UNL     1       3.709   2.750  17.046  0.00  0.00    +0.000 OA
ENDROOT
BRANCH   1   3
ATOM      3  C   UNL     1       5.460   4.254  16.524  0.00  0.00    +0.000 A 
ATOM      4  S   UNL     1       5.451   4.481  14.817  0.00  0.00    +0.000 S 
ATOM      5  C   UNL     1       7.087   4.992  14.883  0.00  0.00    +0.000 A 
ATOM      6  N   UNL     1       7.738   5.405  13.783  0.00  0.00    +0.000 N 
ATOM      7  N   UNL     1       7.646   4.939  16.062  0.00  0.00    +0.000 NA
ATOM      8  C   UNL     1       6.740   4.496  16.985  0.00  0.00    +0.000 A 
ATOM      9  H   UNL     1       7.402   5.086  12.885  0.00  0.00    +0.000 HD
ATOM     10  H   UNL     1       8.747   5.450  13.865  0.00  0.00    +0.000 HD
BRANCH   8  11
ATOM     11  N   UNL     1       7.211   4.353  18.230  0.00  0.00    +0.000 N 
ATOM     12  H   UNL     1       7.011   3.485  18.719  0.00  0.00    +0.000 HD
ATOM     13  H   UNL     1       7.927   4.921  18.662  0.00  0.00    +0.000 HD
ENDBRANCH   8  11
ENDBRANCH   1   3
BRANCH   1  16
ATOM     14  C   UNL     1       2.568   5.257  20.279  0.00  0.00    +0.000 A 
ATOM     15  C   UNL     1       3.074   4.354  19.327  0.00  0.00    +0.000 A 
ATOM     16  C   UNL     1       3.556   4.808  18.101  0.00  0.00    +0.000 A 
ATOM     17  C   UNL     1       3.411   6.156  17.778  0.00  0.00    +0.000 A 
ATOM     18  C   UNL     1       2.875   7.073  18.695  0.00  0.00    +0.000 A 
ATOM     19  C   UNL     1       2.438   6.631  19.963  0.00  0.00    +0.000 A 
BRANCH  14  21
ATOM     20  C   UNL     1       1.966   3.403  21.646  0.00  0.00    +0.000 C 
ATOM     21  O   UNL     1       2.179   4.809  21.518  0.00  0.00    +0.000 OA
ENDBRANCH  14  21
BRANCH  18  22
ATOM     22  O   UNL     1       2.895   8.344  18.180  0.00  0.00    +0.000 OA
ATOM     23  C   UNL     1       1.707   8.913  17.653  0.00  0.00    +0.000 C 
ENDBRANCH  18  22
BRANCH  19  24
ATOM     24  O   UNL     1       1.916   7.600  20.774  0.00  0.00    +0.000 OA
ATOM     25  C   UNL     1       0.517   7.753  20.940  0.00  0.00    +0.000 C 
ENDBRANCH  19  24
ENDBRANCH   1  16
TORSDOF 6
ENDMDL
MODEL 4
REMARK VINA RESULT:      -6.5      3.295      5.634
REMARK  Name = 
REMARK  9 active torsions:
REMARK  status: ('A' for Active; 'I' for Inactive)
REMARK    1  A    between atoms: C_1  and  O_2
REMARK    2  A    between atoms: O_2  and  C_3
REMARK    3  A    between atoms: C_5  and  C_6
REMARK    4  A    between atoms: C_6  and  C_8
REMARK    5  A    between atoms: C_13  and  N_14
REMARK    6  A    between atoms: C_16  and  O_17
REMARK    7  A    between atoms: O_17  and  C_18
REMARK    8  A    between atoms: C_19  and  O_20
REMARK    9  A    between atoms: O_20  and  C_21
REMARK                            x       y       z     vdW  Elec       q    Type
REMARK                         _______ _______ _______ _____ _____    ______ ____
ROOT
ATOM      1  C   UNL     1       4.290   3.639  17.453  0.00  0.00    +0.000 C 
ATOM      2  O   UNL     1       3.835   2.510  17.282  0.00  0.00    +0.000 OA
ENDROOT
BRANCH   1   3
ATOM      3  C   UNL     1       5.472   4.147  16.787  0.00  0.00    +0.000 A 
ATOM      4  S   UNL     1       5.434   4.369  15.079  0.00  0.00    +0.000 S 
ATOM      5  C   UNL     1       7.017   5.024  15.137  0.00  0.00    +0.000 A 
ATOM      6  N   UNL     1       7.623   5.492  14.032  0.00  0.00    +0.000 N 
ATOM      7  N   UNL     1       7.585   5.024  16.313  0.00  0.00    +0.000 NA
ATOM      8  C   UNL     1       6.727   4.503  17.241  0.00  0.00    +0.000 A 
ATOM      9  H   UNL     1       7.313   5.142  13.136  0.00  0.00    +0.000 HD
ATOM     10  H   UNL     1       8.625   5.627  14.109  0.00  0.00    +0.000 HD
BRANCH   8  11
ATOM     11  N   UNL     1       7.215   4.405  18.484  0.00  0.00    +0.000 N 
ATOM     12  H   UNL     1       6.595   4.619  19.259  0.00  0.00    +0.000 HD
ATOM     13  H   UNL     1       8.070   3.932  18.749  0.00  0.00    +0.000 HD
ENDBRANCH   8  11
ENDBRANCH   1   3
BRANCH   1  16
ATOM     14  C   UNL     1       2.444   6.615  18.893  0.00  0.00    +0.000 A 
ATOM     15  C   UNL     1       3.255   5.819  18.065  0.00  0.00    +0.000 A 
ATOM     16  C   UNL     1       3.571   4.509  18.423  0.00  0.00    +0.000 A 
ATOM     17  C   UNL     1       3.178   4.041  19.675  0.00  0.00    +0.000 A 
ATOM     18  C   UNL     1       2.400   4.828  20.537  0.00  0.00    +0.000 A 
ATOM     19  C   UNL     1       2.026   6.135  20.158  0.00  0.00    +0.000 A 
BRANCH  14  21
ATOM     20  C   UNL     1       2.892   8.496  17.504  0.00  0.00    +0.000 C 
ATOM     21  O   UNL     1       2.067   7.872  18.489  0.00  0.00    +0.000 OA
ENDBRANCH  14  21
BRANCH  18  22
ATOM     22  O   UNL     1       2.083   4.132  21.677  0.00  0.00    +0.000 OA
ATOM     23  C   UNL     1       2.088   2.713  21.664  0.00  0.00    +0.000 C 
ENDBRANCH  18  22
BRANCH  19  24
ATOM     24  O   UNL     1       1.284   6.824  21.077  0.00  0.00    +0.000 OA
ATOM     25  C   UNL     1       1.486   8.207  21.307  0.00  0.00    +0.000 C 
ENDBRANCH  19  24
ENDBRANCH   1  16
TORSDOF 6
ENDMDL
MODEL 5
REMARK VINA RESULT:      -6.5      4.337      6.546
REMARK  Name = 
REMARK  9 active torsions:
REMARK  status: ('A' for Active; 'I' for Inactive)
REMARK    1  A    between atoms: C_1  and  O_2
REMARK    2  A    between atoms: O_2  and  C_3
REMARK    3  A    between atoms: C_5  and  C_6
REMARK    4  A    between atoms: C_6  and  C_8
REMARK    5  A    between atoms: C_13  and  N_14
REMARK    6  A    between atoms: C_16  and  O_17
REMARK    7  A    between atoms: O_17  and  C_18
REMARK    8  A    between atoms: C_19  and  O_20
REMARK    9  A    between atoms: O_20  and  C_21
REMARK                            x       y       z     vdW  Elec       q    Type
REMARK                         _______ _______ _______ _____ _____    ______ ____
ROOT
ATOM      1  C   UNL     1       6.662   5.712  16.045  0.00  0.00    +0.000 C 
ATOM      2  O   UNL     1       7.482   6.572  16.361  0.00  0.00    +0.000 OA
ENDROOT
BRANCH   1   3
ATOM      3  C   UNL     1       6.682   4.995  14.786  0.00  0.00    +0.000 A 
ATOM      4  S   UNL     1       5.495   3.780  14.502  0.00  0.00    +0.000 S 
ATOM      5  C   UNL     1       6.118   3.552  12.921  0.00  0.00    +0.000 A 
ATOM      6  N   UNL     1       5.552   2.689  12.061  0.00  0.00    +0.000 N 
ATOM      7  N   UNL     1       7.175   4.260  12.624  0.00  0.00    +0.000 NA
ATOM      8  C   UNL     1       7.513   5.055  13.684  0.00  0.00    +0.000 A 
ATOM      9  H   UNL     1       5.003   1.931  12.443  0.00  0.00    +0.000 HD
ATOM     10  H   UNL     1       6.117   2.438  11.259  0.00  0.00    +0.000 HD
BRANCH   8  11
ATOM     11  N   UNL     1       8.615   5.797  13.518  0.00  0.00    +0.000 N 
ATOM     12  H   UNL     1       9.214   5.949  14.324  0.00  0.00    +0.000 HD
ATOM     13  H   UNL     1       9.034   6.044  12.632  0.00  0.00    +0.000 HD
ENDBRANCH   8  11
ENDBRANCH   1   3
BRANCH   1  16
ATOM     14  C   UNL     1       4.788   4.113  18.920  0.00  0.00    +0.000 A 
ATOM     15  C   UNL     1       5.709   4.324  17.879  0.00  0.00    +0.000 A 
ATOM     16  C   UNL     1       5.584   5.423  17.030  0.00  0.00    +0.000 A 
ATOM     17  C   UNL     1       4.460   6.239  17.146  0.00  0.00    +0.000 A 
ATOM     18  C   UNL     1       3.506   6.028  18.153  0.00  0.00    +0.000 A 
ATOM     19  C   UNL     1       3.655   4.952  19.055  0.00  0.00    +0.000 A 
BRANCH  14  21
ATOM     20  C   UNL     1       4.326   1.846  19.482  0.00  0.00    +0.000 C 
ATOM     21  O   UNL     1       4.971   3.079  19.804  0.00  0.00    +0.000 OA
ENDBRANCH  14  21
BRANCH  18  22
ATOM     22  O   UNL     1       2.532   6.993  18.108  0.00  0.00    +0.000 OA
ATOM     23  C   UNL     1       2.857   8.309  17.689  0.00  0.00    +0.000 C 
ENDBRANCH  18  22
BRANCH  19  24
ATOM     24  O   UNL     1       2.662   4.824  19.985  0.00  0.00    +0.000 OA
ATOM     25  C   UNL     1       1.481   4.091  19.713  0.00  0.00    +0.000 C 
ENDBRANCH  19  24
ENDBRANCH   1  16
TORSDOF 6
ENDMDL
MODEL 6
REMARK VINA RESULT:      -6.4      1.635      2.559
REMARK  Name = 
REMARK  9 active torsions:
REMARK  status: ('A' for Active; 'I' for Inactive)
REMARK    1  A    between atoms: C_1  and  O_2
REMARK    2  A    between atoms: O_2  and  C_3
REMARK    3  A    between atoms: C_5  and  C_6
REMARK    4  A    between atoms: C_6  and  C_8
REMARK    5  A    between atoms: C_13  and  N_14
REMARK    6  A    between atoms: C_16  and  O_17
REMARK    7  A    between atoms: O_17  and  C_18
REMARK    8  A    between atoms: C_19  and  O_20
REMARK    9  A    between atoms: O_20  and  C_21
REMARK                            x       y       z     vdW  Elec       q    Type
REMARK                         _______ _______ _______ _____ _____    ______ ____
ROOT
ATOM      1  C   UNL     1       3.253   3.414  17.943  0.00  0.00    +0.000 C 
ATOM      2  O   UNL     1       2.535   3.111  16.991  0.00  0.00    +0.000 OA
ENDROOT
BRANCH   1   3
ATOM      3  C   UNL     1       2.977   3.047  19.316  0.00  0.00    +0.000 A 
ATOM      4  S   UNL     1       1.473   3.513  20.016  0.00  0.00    +0.000 S 
ATOM      5  C   UNL     1       1.891   2.676  21.452  0.00  0.00    +0.000 A 
ATOM      6  N   UNL     1       1.040   2.595  22.490  0.00  0.00    +0.000 N 
ATOM      7  N   UNL     1       3.083   2.142  21.468  0.00  0.00    +0.000 NA
ATOM      8  C   UNL     1       3.709   2.374  20.275  0.00  0.00    +0.000 A 
ATOM      9  H   UNL     1       0.325   3.304  22.573  0.00  0.00    +0.000 HD
ATOM     10  H   UNL     1       1.451   2.305  23.369  0.00  0.00    +0.000 HD
BRANCH   8  11
ATOM     11  N   UNL     1       4.963   1.915  20.185  0.00  0.00    +0.000 N 
ATOM     12  H   UNL     1       5.216   1.105  20.744  0.00  0.00    +0.000 HD
ATOM     13  H   UNL     1       5.630   2.150  19.462  0.00  0.00    +0.000 HD
ENDBRANCH   8  11
ENDBRANCH   1   3
BRANCH   1  16
ATOM     14  C   UNL     1       5.829   5.384  15.988  0.00  0.00    +0.000 A 
ATOM     15  C   UNL     1       4.784   4.498  16.306  0.00  0.00    +0.000 A 
ATOM     16  C   UNL     1       4.464   4.223  17.635  0.00  0.00    +0.000 A 
ATOM     17  C   UNL     1       5.276   4.737  18.643  0.00  0.00    +0.000 A 
ATOM     18  C   UNL     1       6.348   5.594  18.351  0.00  0.00    +0.000 A 
ATOM     19  C   UNL     1       6.644   5.925  17.011  0.00  0.00    +0.000 A 
BRANCH  14  21
ATOM     20  C   UNL     1       6.897   4.811  13.939  0.00  0.00    +0.000 C 
ATOM     21  O   UNL     1       6.077   5.716  14.679  0.00  0.00    +0.000 OA
ENDBRANCH  14  21
BRANCH  18  22
ATOM     22  O   UNL     1       6.955   6.023  19.504  0.00  0.00    +0.000 OA
ATOM     23  C   UNL     1       8.160   5.412  19.939  0.00  0.00    +0.000 C 
ENDBRANCH  18  22
BRANCH  19  24
ATOM     24  O   UNL     1       7.718   6.752  16.834  0.00  0.00    +0.000 OA
ATOM     25  C   UNL     1       7.736   8.068  17.357  0.00  0.00    +0.000 C 
ENDBRANCH  19  24
ENDBRANCH   1  16
TORSDOF 6
ENDMDL
MODEL 7
REMARK VINA RESULT:      -6.3      4.323      6.161
REMARK  Name = 
REMARK  9 active torsions:
REMARK  status: ('A' for Active; 'I' for Inactive)
REMARK    1  A    between atoms: C_1  and  O_2
REMARK    2  A    between atoms: O_2  and  C_3
REMARK    3  A    between atoms: C_5  and  C_6
REMARK    4  A    between atoms: C_6  and  C_8
REMARK    5  A    between atoms: C_13  and  N_14
REMARK    6  A    between atoms: C_16  and  O_17
REMARK    7  A    between atoms: O_17  and  C_18
REMARK    8  A    between atoms: C_19  and  O_20
REMARK    9  A    between atoms: O_20  and  C_21
REMARK                            x       y       z     vdW  Elec       q    Type
REMARK                         _______ _______ _______ _____ _____    ______ ____
ROOT
ATOM      1  C   UNL     1       6.697   5.655  16.099  0.00  0.00    +0.000 C 
ATOM      2  O   UNL     1       7.589   6.420  16.461  0.00  0.00    +0.000 OA
ENDROOT
BRANCH   1   3
ATOM      3  C   UNL     1       6.668   4.993  14.812  0.00  0.00    +0.000 A 
ATOM      4  S   UNL     1       5.439   3.826  14.503  0.00  0.00    +0.000 S 
ATOM      5  C   UNL     1       6.021   3.649  12.900  0.00  0.00    +0.000 A 
ATOM      6  N   UNL     1       5.410   2.840  12.018  0.00  0.00    +0.000 N 
ATOM      7  N   UNL     1       7.091   4.338  12.609  0.00  0.00    +0.000 NA
ATOM      8  C   UNL     1       7.476   5.076  13.694  0.00  0.00    +0.000 A 
ATOM      9  H   UNL     1       4.847   2.082  12.379  0.00  0.00    +0.000 HD
ATOM     10  H   UNL     1       5.950   2.608  11.192  0.00  0.00    +0.000 HD
BRANCH   8  11
ATOM     11  N   UNL     1       8.596   5.792  13.534  0.00  0.00    +0.000 N 
ATOM     12  H   UNL     1       8.543   6.645  12.987  0.00  0.00    +0.000 HD
ATOM     13  H   UNL     1       9.444   5.694  14.077  0.00  0.00    +0.000 HD
ENDBRANCH   8  11
ENDBRANCH   1   3
BRANCH   1  16
ATOM     14  C   UNL     1       3.402   6.089  17.914  0.00  0.00    +0.000 A 
ATOM     15  C   UNL     1       4.542   6.351  17.132  0.00  0.00    +0.000 A 
ATOM     16  C   UNL     1       5.583   5.427  17.060  0.00  0.00    +0.000 A 
ATOM     17  C   UNL     1       5.538   4.297  17.874  0.00  0.00    +0.000 A 
ATOM     18  C   UNL     1       4.429   4.030  18.691  0.00  0.00    +0.000 A 
ATOM     19  C   UNL     1       3.343   4.932  18.727  0.00  0.00    +0.000 A 
BRANCH  14  21
ATOM     20  C   UNL     1       2.672   8.354  17.854  0.00  0.00    +0.000 C 
ATOM     21  O   UNL     1       2.345   6.965  17.908  0.00  0.00    +0.000 OA
ENDBRANCH  14  21
BRANCH  18  22
ATOM     22  O   UNL     1       4.584   2.834  19.344  0.00  0.00    +0.000 OA
ATOM     23  C   UNL     1       4.010   1.654  18.806  0.00  0.00    +0.000 C 
ENDBRANCH  18  22
BRANCH  19  24
ATOM     24  O   UNL     1       2.322   4.588  19.569  0.00  0.00    +0.000 OA
ATOM     25  C   UNL     1       1.226   3.807  19.125  0.00  0.00    +0.000 C 
ENDBRANCH  19  24
ENDBRANCH   1  16
TORSDOF 6
ENDMDL
MODEL 8
REMARK VINA RESULT:      -6.3      3.223      5.863
REMARK  Name = 
REMARK  9 active torsions:
REMARK  status: ('A' for Active; 'I' for Inactive)
REMARK    1  A    between atoms: C_1  and  O_2
REMARK    2  A    between atoms: O_2  and  C_3
REMARK    3  A    between atoms: C_5  and  C_6
REMARK    4  A    between atoms: C_6  and  C_8
REMARK    5  A    between atoms: C_13  and  N_14
REMARK    6  A    between atoms: C_16  and  O_17
REMARK    7  A    between atoms: O_17  and  C_18
REMARK    8  A    between atoms: C_19  and  O_20
REMARK    9  A    between atoms: O_20  and  C_21
REMARK                            x       y       z     vdW  Elec       q    Type
REMARK                         _______ _______ _______ _____ _____    ______ ____
ROOT
ATOM      1  C   UNL     1       4.798   6.191  17.420  0.00  0.00    +0.000 C 
ATOM      2  O   UNL     1       4.791   7.420  17.435  0.00  0.00    +0.000 OA
ENDROOT
BRANCH   1   3
ATOM      3  C   UNL     1       5.661   5.395  16.572  0.00  0.00    +0.000 A 
ATOM      4  S   UNL     1       5.235   5.182  14.917  0.00  0.00    +0.000 S 
ATOM      5  C   UNL     1       6.687   4.307  14.663  0.00  0.00    +0.000 A 
ATOM      6  N   UNL     1       7.028   3.851  13.446  0.00  0.00    +0.000 N 
ATOM      7  N   UNL     1       7.419   4.109  15.726  0.00  0.00    +0.000 NA
ATOM      8  C   UNL     1       6.829   4.697  16.811  0.00  0.00    +0.000 A 
ATOM      9  H   UNL     1       6.291   3.707  12.770  0.00  0.00    +0.000 HD
ATOM     10  H   UNL     1       7.757   3.148  13.432  0.00  0.00    +0.000 HD
BRANCH   8  11
ATOM     11  N   UNL     1       7.464   4.522  17.976  0.00  0.00    +0.000 N 
ATOM     12  H   UNL     1       7.878   3.613  18.162  0.00  0.00    +0.000 HD
ATOM     13  H   UNL     1       7.767   5.256  18.602  0.00  0.00    +0.000 HD
ENDBRANCH   8  11
ENDBRANCH   1   3
BRANCH   1  16
ATOM     14  C   UNL     1       2.155   5.662  20.079  0.00  0.00    +0.000 A 
ATOM     15  C   UNL     1       3.178   6.244  19.310  0.00  0.00    +0.000 A 
ATOM     16  C   UNL     1       3.838   5.506  18.328  0.00  0.00    +0.000 A 
ATOM     17  C   UNL     1       3.558   4.146  18.206  0.00  0.00    +0.000 A 
ATOM     18  C   UNL     1       2.568   3.532  18.987  0.00  0.00    +0.000 A 
ATOM     19  C   UNL     1       1.853   4.285  19.945  0.00  0.00    +0.000 A 
BRANCH  14  21
ATOM     20  C   UNL     1       1.485   7.836  20.781  0.00  0.00    +0.000 C 
ATOM     21  O   UNL     1       1.452   6.422  20.981  0.00  0.00    +0.000 OA
ENDBRANCH  14  21
BRANCH  18  22
ATOM     22  O   UNL     1       2.427   2.212  18.644  0.00  0.00    +0.000 OA
ATOM     23  C   UNL     1       3.577   1.401  18.464  0.00  0.00    +0.000 C 
ENDBRANCH  18  22
BRANCH  19  24
ATOM     24  O   UNL     1       0.924   3.589  20.665  0.00  0.00    +0.000 OA
ATOM     25  C   UNL     1       1.303   2.692  21.695  0.00  0.00    +0.000 C 
ENDBRANCH  19  24
ENDBRANCH   1  16
TORSDOF 6
ENDMDL
MODEL 9
REMARK VINA RESULT:      -6.2      3.805      5.630
REMARK  Name = 
REMARK  9 active torsions:
REMARK  status: ('A' for Active; 'I' for Inactive)
REMARK    1  A    between atoms: C_1  and  O_2
REMARK    2  A    between atoms: O_2  and  C_3
REMARK    3  A    between atoms: C_5  and  C_6
REMARK    4  A    between atoms: C_6  and  C_8
REMARK    5  A    between atoms: C_13  and  N_14
REMARK    6  A    between atoms: C_16  and  O_17
REMARK    7  A    between atoms: O_17  and  C_18
REMARK    8  A    between atoms: C_19  and  O_20
REMARK    9  A    between atoms: O_20  and  C_21
REMARK                            x       y       z     vdW  Elec       q    Type
REMARK                         _______ _______ _______ _____ _____    ______ ____
ROOT
ATOM      1  C   UNL     1       2.274   8.090  18.204  0.00  0.00    +0.000 C 
ATOM      2  O   UNL     1       2.605   8.648  17.160  0.00  0.00    +0.000 OA
ENDROOT
BRANCH   1   3
ATOM      3  C   UNL     1       1.467   8.710  19.234  0.00  0.00    +0.000 A 
ATOM      4  S   UNL     1       1.470   8.028  20.816  0.00  0.00    +0.000 S 
ATOM      5  C   UNL     1       0.455   9.300  21.358  0.00  0.00    +0.000 A 
ATOM      6  N   UNL     1       0.083   9.400  22.645  0.00  0.00    +0.000 N 
ATOM      7  N   UNL     1       0.067  10.142  20.438  0.00  0.00    +0.000 NA
ATOM      8  C   UNL     1       0.613   9.796  19.233  0.00  0.00    +0.000 A 
ATOM      9  H   UNL     1       0.095   8.562  23.209  0.00  0.00    +0.000 HD
ATOM     10  H   UNL     1      -0.698  10.020  22.826  0.00  0.00    +0.000 HD
BRANCH   8  11
ATOM     11  N   UNL     1       0.249  10.560  18.196  0.00  0.00    +0.000 N 
ATOM     12  H   UNL     1      -0.060  10.097  17.347  0.00  0.00    +0.000 HD
ATOM     13  H   UNL     1       0.039  11.549  18.234  0.00  0.00    +0.000 HD
ENDBRANCH   8  11
ENDBRANCH   1   3
BRANCH   1  16
ATOM     14  C   UNL     1       2.401   4.306  18.118  0.00  0.00    +0.000 A 
ATOM     15  C   UNL     1       1.921   5.628  18.091  0.00  0.00    +0.000 A 
ATOM     16  C   UNL     1       2.760   6.697  18.400  0.00  0.00    +0.000 A 
ATOM     17  C   UNL     1       4.048   6.430  18.862  0.00  0.00    +0.000 A 
ATOM     18  C   UNL     1       4.540   5.118  18.934  0.00  0.00    +0.000 A 
ATOM     19  C   UNL     1       3.715   4.032  18.567  0.00  0.00    +0.000 A 
BRANCH  14  21
ATOM     20  C   UNL     1       0.834   2.631  18.755  0.00  0.00    +0.000 C 
ATOM     21  O   UNL     1       1.591   3.269  17.726  0.00  0.00    +0.000 OA
ENDBRANCH  14  21
BRANCH  18  22
ATOM     22  O   UNL     1       5.847   5.111  19.351  0.00  0.00    +0.000 OA
ATOM     23  C   UNL     1       6.895   5.152  18.396  0.00  0.00    +0.000 C 
ENDBRANCH  18  22
BRANCH  19  24
ATOM     24  O   UNL     1       4.283   2.795  18.691  0.00  0.00    +0.000 OA
ATOM     25  C   UNL     1       4.348   2.130  19.941  0.00  0.00    +0.000 C 
ENDBRANCH  19  24
ENDBRANCH   1  16
TORSDOF 6
ENDMDL
