MODEL 1
REMARK VINA RESULT:      -6.4      0.000      0.000
REMARK  Name = 
REMARK  11 active torsions:
REMARK  status: ('A' for Active; 'I' for Inactive)
REMARK    1  A    between atoms: C_1  and  C_2
REMARK    2  A    between atoms: C_2  and  C_3
REMARK    3  A    between atoms: C_3  and  N_4
REMARK    4  A    between atoms: N_4  and  C_5
REMARK    5  A    between atoms: C_5  and  N_7
REMARK    6  A    between atoms: N_7  and  C_8
REMARK    7  A    between atoms: C_8  and  C_9
REMARK    8  A    between atoms: C_9  and  C_10
REMARK    9  A    between atoms: C_10  and  O_11
REMARK   10  A    between atoms: C_10  and  C_12
REMARK   11  A    between atoms: C_17  and  N_18
REMARK                            x       y       z     vdW  Elec       q    Type
REMARK                         _______ _______ _______ _____ _____    ______ ____
ROOT
ATOM      1  C   UNL     1       3.536   4.736  17.437  0.00  0.00    +0.000 C 
ENDROOT
BRANCH   1   2
ATOM      2  C   UNL     1       2.618   4.183  18.518  0.00  0.00    +0.000 A 
ATOM      3  C   UNL     1       2.188   5.107  19.499  0.00  0.00    +0.000 A 
ATOM      4  C   UNL     1       1.378   4.719  20.562  0.00  0.00    +0.000 A 
ATOM      5  C   UNL     1       0.993   3.395  20.680  0.00  0.00    +0.000 A 
ATOM      6  C   UNL     1       1.383   2.472  19.711  0.00  0.00    +0.000 A 
ATOM      7  C   UNL     1       2.140   2.864  18.591  0.00  0.00    +0.000 A 
BRANCH   7   8
ATOM      8  N   UNL     1       2.489   1.870  17.664  0.00  0.00    +0.000 N 
ATOM      9  H   UNL     1       2.048   1.974  16.755  0.00  0.00    +0.000 HD
ATOM     10  H   UNL     1       3.492   1.753  17.563  0.00  0.00    +0.000 HD
ENDBRANCH   7   8
ENDBRANCH   1   2
BRANCH   1  11
ATOM     11  O   UNL     1       4.638   3.846  17.236  0.00  0.00    +0.000 OA
ATOM     12  H   UNL     1       5.422   4.387  17.041  0.00  0.00    +0.000 HD
ENDBRANCH   1  11
BRANCH   1  13
ATOM     13  C   UNL     1       4.082   6.157  17.617  0.00  0.00    +0.000 C 
BRANCH  13  14
ATOM     14  C   UNL     1       4.786   6.628  16.351  0.00  0.00    +0.000 C 
BRANCH  14  15
ATOM     15  N   UNL     1       6.223   6.746  16.546  0.00  0.00    +0.000 N 
ATOM     16  H   UNL     1       6.620   7.678  16.606  0.00  0.00    +0.000 HD
BRANCH  15  17
ATOM     17  C   UNL     1       7.071   5.765  16.966  0.00  0.00    +0.000 C 
ATOM     18  S   UNL     1       7.627   5.827  18.537  0.00  0.00    +0.000 S 
BRANCH  17  19
ATOM     19  N   UNL     1       7.351   4.796  16.047  0.00  0.00    +0.000 N 
ATOM     20  H   UNL     1       7.913   4.016  16.355  0.00  0.00    +0.000 HD
BRANCH  19  21
ATOM     21  C   UNL     1       7.127   4.914  14.620  0.00  0.00    +0.000 C 
BRANCH  21  23
ATOM     22  C   UNL     1       6.314   3.612  12.644  0.00  0.00    +0.000 C 
ATOM     23  C   UNL     1       6.111   3.893  14.122  0.00  0.00    +0.000 C 
ENDBRANCH  21  23
ENDBRANCH  19  21
ENDBRANCH  17  19
ENDBRANCH  15  17
ENDBRANCH  14  15
ENDBRANCH  13  14
ENDBRANCH   1  13
TORSDOF 10
ENDMDL
MODEL 2
REMARK VINA RESULT:      -6.1      2.185      3.347
REMARK  Name = 
REMARK  11 active torsions:
REMARK  status: ('A' for Active; 'I' for Inactive)
REMARK    1  A    between atoms: C_1  and  C_2
REMARK    2  A    between atoms: C_2  and  C_3
REMARK    3  A    between atoms: C_3  and  N_4
REMARK    4  A    between atoms: N_4  and  C_5
REMARK    5  A    between atoms: C_5  and  N_7
REMARK    6  A    between atoms: N_7  and  C_8
REMARK    7  A    between atoms: C_8  and  C_9
REMARK    8  A    between atoms: C_9  and  C_10
REMARK    9  A    between atoms: C_10  and  O_11
REMARK   10  A    between atoms: C_10  and  C_12
REMARK   11  A    between atoms: C_17  and  N_18
REMARK                            x       y       z     vdW  Elec       q    Type
REMARK                         _______ _______ _______ _____ _____    ______ ____
ROOT
ATOM      1  C   UNL     1       2.873   4.798  17.770  0.00  0.00    +0.000 C 
ENDROOT
BRANCH   1   2
ATOM      2  C   UNL     1       2.644   3.993  19.041  0.00  0.00    +0.000 A 
ATOM      3  C   UNL     1       1.317   3.968  19.529  0.00  0.00    +0.000 A 
ATOM      4  C   UNL     1       0.982   3.300  20.703  0.00  0.00    +0.000 A 
ATOM      5  C   UNL     1       1.971   2.657  21.428  0.00  0.00    +0.000 A 
ATOM      6  C   UNL     1       3.281   2.645  20.953  0.00  0.00    +0.000 A 
ATOM      7  C   UNL     1       3.620   3.252  19.730  0.00  0.00    +0.000 A 
BRANCH   7   8
ATOM      8  N   UNL     1       4.963   3.194  19.327  0.00  0.00    +0.000 N 
ATOM      9  H   UNL     1       5.518   3.997  19.609  0.00  0.00    +0.000 HD
ATOM     10  H   UNL     1       5.423   2.330  19.594  0.00  0.00    +0.000 HD
ENDBRANCH   7   8
ENDBRANCH   1   2
BRANCH   1  11
ATOM     11  O   UNL     1       3.835   4.135  16.944  0.00  0.00    +0.000 OA
ATOM     12  H   UNL     1       3.652   4.383  16.022  0.00  0.00    +0.000 HD
ENDBRANCH   1  11
BRANCH   1  13
ATOM     13  C   UNL     1       3.282   6.268  17.915  0.00  0.00    +0.000 C 
BRANCH  13  14
ATOM     14  C   UNL     1       4.486   6.582  17.036  0.00  0.00    +0.000 C 
BRANCH  14  15
ATOM     15  N   UNL     1       5.739   6.385  17.747  0.00  0.00    +0.000 N 
ATOM     16  H   UNL     1       5.697   6.187  18.741  0.00  0.00    +0.000 HD
BRANCH  15  17
ATOM     17  C   UNL     1       6.957   6.125  17.193  0.00  0.00    +0.000 C 
ATOM     18  S   UNL     1       7.305   4.553  16.758  0.00  0.00    +0.000 S 
BRANCH  17  19
ATOM     19  N   UNL     1       7.766   7.210  17.015  0.00  0.00    +0.000 N 
ATOM     20  H   UNL     1       8.672   7.049  16.602  0.00  0.00    +0.000 HD
BRANCH  19  21
ATOM     21  C   UNL     1       7.540   8.519  17.596  0.00  0.00    +0.000 C 
BRANCH  21  23
ATOM     22  C   UNL     1       9.017  10.402  18.328  0.00  0.00    +0.000 C 
ATOM     23  C   UNL     1       8.682   8.934  18.516  0.00  0.00    +0.000 C 
ENDBRANCH  21  23
ENDBRANCH  19  21
ENDBRANCH  17  19
ENDBRANCH  15  17
ENDBRANCH  14  15
ENDBRANCH  13  14
ENDBRANCH   1  13
TORSDOF 10
ENDMDL
MODEL 3
REMARK VINA RESULT:      -6.1      1.285      1.430
REMARK  Name = 
REMARK  11 active torsions:
REMARK  status: ('A' for Active; 'I' for Inactive)
REMARK    1  A    between atoms: C_1  and  C_2
REMARK    2  A    between atoms: C_2  and  C_3
REMARK    3  A    between atoms: C_3  and  N_4
REMARK    4  A    between atoms: N_4  and  C_5
REMARK    5  A    between atoms: C_5  and  N_7
REMARK    6  A    between atoms: N_7  and  C_8
REMARK    7  A    between atoms: C_8  and  C_9
REMARK    8  A    between atoms: C_9  and  C_10
REMARK    9  A    between atoms: C_10  and  O_11
REMARK   10  A    between atoms: C_10  and  C_12
REMARK   11  A    between atoms: C_17  and  N_18
REMARK                            x       y       z     vdW  Elec       q    Type
REMARK                         _______ _______ _______ _____ _____    ______ ____
ROOT
ATOM      1  C   UNL     1       3.035   4.120  17.733  0.00  0.00    +0.000 C 
ENDROOT
BRANCH   1   2
ATOM      2  C   UNL     1       2.670   3.541  19.093  0.00  0.00    +0.000 A 
ATOM      3  C   UNL     1       1.307   3.629  19.460  0.00  0.00    +0.000 A 
ATOM      4  C   UNL     1       0.851   3.173  20.693  0.00  0.00    +0.000 A 
ATOM      5  C   UNL     1       1.751   2.635  21.596  0.00  0.00    +0.000 A 
ATOM      6  C   UNL     1       3.094   2.514  21.248  0.00  0.00    +0.000 A 
ATOM      7  C   UNL     1       3.557   2.902  19.976  0.00  0.00    +0.000 A 
BRANCH   7   8
ATOM      8  N   UNL     1       4.925   2.746  19.708  0.00  0.00    +0.000 N 
ATOM      9  H   UNL     1       5.314   3.457  19.095  0.00  0.00    +0.000 HD
ATOM     10  H   UNL     1       5.488   2.652  20.548  0.00  0.00    +0.000 HD
ENDBRANCH   7   8
ENDBRANCH   1   2
BRANCH   1  11
ATOM     11  O   UNL     1       4.208   3.473  17.231  0.00  0.00    +0.000 OA
ATOM     12  H   UNL     1       4.513   2.848  17.910  0.00  0.00    +0.000 HD
ENDBRANCH   1  11
BRANCH   1  13
ATOM     13  C   UNL     1       3.227   5.636  17.626  0.00  0.00    +0.000 C 
BRANCH  13  14
ATOM     14  C   UNL     1       4.623   6.036  18.087  0.00  0.00    +0.000 C 
BRANCH  14  15
ATOM     15  N   UNL     1       5.509   6.293  16.962  0.00  0.00    +0.000 N 
ATOM     16  H   UNL     1       5.163   6.876  16.207  0.00  0.00    +0.000 HD
BRANCH  15  17
ATOM     17  C   UNL     1       6.859   6.107  16.930  0.00  0.00    +0.000 C 
ATOM     18  S   UNL     1       7.760   6.664  18.218  0.00  0.00    +0.000 S 
BRANCH  17  19
ATOM     19  N   UNL     1       7.335   5.438  15.840  0.00  0.00    +0.000 N 
ATOM     20  H   UNL     1       8.312   5.190  15.841  0.00  0.00    +0.000 HD
BRANCH  19  21
ATOM     21  C   UNL     1       6.623   5.279  14.587  0.00  0.00    +0.000 C 
BRANCH  21  23
ATOM     22  C   UNL     1       6.034   3.575  12.851  0.00  0.00    +0.000 C 
ATOM     23  C   UNL     1       6.245   3.824  14.334  0.00  0.00    +0.000 C 
ENDBRANCH  21  23
ENDBRANCH  19  21
ENDBRANCH  17  19
ENDBRANCH  15  17
ENDBRANCH  14  15
ENDBRANCH  13  14
ENDBRANCH   1  13
TORSDOF 10
ENDMDL
MODEL 4
REMARK VINA RESULT:      -6.1      1.291      1.358
REMARK  Name = 
REMARK  11 active torsions:
REMARK  status: ('A' for Active; 'I' for Inactive)
REMARK    1  A    between atoms: C_1  and  C_2
REMARK    2  A    between atoms: C_2  and  C_3
REMARK    3  A    between atoms: C_3  and  N_4
REMARK    4  A    between atoms: N_4  and  C_5
REMARK    5  A    between atoms: C_5  and  N_7
REMARK    6  A    between atoms: N_7  and  C_8
REMARK    7  A    between atoms: C_8  and  C_9
REMARK    8  A    between atoms: C_9  and  C_10
REMARK    9  A    between atoms: C_10  and  O_11
REMARK   10  A    between atoms: C_10  and  C_12
REMARK   11  A    between atoms: C_17  and  N_18
REMARK                            x       y       z     vdW  Elec       q    Type
REMARK                         _______ _______ _______ _____ _____    ______ ____
ROOT
ATOM      1  C   UNL     1       3.333   4.844  17.672  0.00  0.00    +0.000 C 
ENDROOT
BRANCH   1   2
ATOM      2  C   UNL     1       2.852   4.122  18.923  0.00  0.00    +0.000 A 
ATOM      3  C   UNL     1       1.512   4.364  19.303  0.00  0.00    +0.000 A 
ATOM      4  C   UNL     1       0.963   3.795  20.448  0.00  0.00    +0.000 A 
ATOM      5  C   UNL     1       1.747   2.987  21.252  0.00  0.00    +0.000 A 
ATOM      6  C   UNL     1       3.063   2.713  20.885  0.00  0.00    +0.000 A 
ATOM      7  C   UNL     1       3.609   3.220  19.691  0.00  0.00    +0.000 A 
BRANCH   7   8
ATOM      8  N   UNL     1       4.942   2.895  19.398  0.00  0.00    +0.000 N 
ATOM      9  H   UNL     1       5.578   3.687  19.420  0.00  0.00    +0.000 HD
ATOM     10  H   UNL     1       5.301   2.133  19.963  0.00  0.00    +0.000 HD
ENDBRANCH   7   8
ENDBRANCH   1   2
BRANCH   1  11
ATOM     11  O   UNL     1       4.081   3.942  16.851  0.00  0.00    +0.000 OA
ATOM     12  H   UNL     1       3.569   3.119  16.775  0.00  0.00    +0.000 HD
ENDBRANCH   1  11
BRANCH   1  13
ATOM     13  C   UNL     1       4.146   6.130  17.853  0.00  0.00    +0.000 C 
BRANCH  13  14
ATOM     14  C   UNL     1       4.716   6.600  16.521  0.00  0.00    +0.000 C 
BRANCH  14  15
ATOM     15  N   UNL     1       6.170   6.616  16.532  0.00  0.00    +0.000 N 
ATOM     16  H   UNL     1       6.634   7.437  16.909  0.00  0.00    +0.000 HD
BRANCH  15  17
ATOM     17  C   UNL     1       6.998   5.543  16.386  0.00  0.00    +0.000 C 
ATOM     18  S   UNL     1       7.569   4.797  17.763  0.00  0.00    +0.000 S 
BRANCH  17  19
ATOM     19  N   UNL     1       7.247   5.164  15.099  0.00  0.00    +0.000 N 
ATOM     20  H   UNL     1       8.080   5.527  14.663  0.00  0.00    +0.000 HD
BRANCH  19  21
ATOM     21  C   UNL     1       6.296   4.496  14.231  0.00  0.00    +0.000 C 
BRANCH  21  23
ATOM     22  C   UNL     1       7.753   5.283  12.354  0.00  0.00    +0.000 C 
ATOM     23  C   UNL     1       6.917   4.133  12.887  0.00  0.00    +0.000 C 
ENDBRANCH  21  23
ENDBRANCH  19  21
ENDBRANCH  17  19
ENDBRANCH  15  17
ENDBRANCH  14  15
ENDBRANCH  13  14
ENDBRANCH   1  13
TORSDOF 10
ENDMDL
MODEL 5
REMARK VINA RESULT:      -6.1      1.473      1.480
REMARK  Name = 
REMARK  11 active torsions:
REMARK  status: ('A' for Active; 'I' for Inactive)
REMARK    1  A    between atoms: C_1  and  C_2
REMARK    2  A    between atoms: C_2  and  C_3
REMARK    3  A    between atoms: C_3  and  N_4
REMARK    4  A    between atoms: N_4  and  C_5
REMARK    5  A    between atoms: C_5  and  N_7
REMARK    6  A    between atoms: N_7  and  C_8
REMARK    7  A    between atoms: C_8  and  C_9
REMARK    8  A    between atoms: C_9  and  C_10
REMARK    9  A    between atoms: C_10  and  O_11
REMARK   10  A    between atoms: C_10  and  C_12
REMARK   11  A    between atoms: C_17  and  N_18
REMARK                            x       y       z     vdW  Elec       q    Type
REMARK                         _______ _______ _______ _____ _____    ______ ____
ROOT
ATOM      1  C   UNL     1       4.144   4.797  18.486  0.00  0.00    +0.000 C 
ENDROOT
BRANCH   1   2
ATOM      2  C   UNL     1       3.243   4.066  19.471  0.00  0.00    +0.000 A 
ATOM      3  C   UNL     1       1.945   4.601  19.640  0.00  0.00    +0.000 A 
ATOM      4  C   UNL     1       1.038   4.048  20.539  0.00  0.00    +0.000 A 
ATOM      5  C   UNL     1       1.413   2.959  21.305  0.00  0.00    +0.000 A 
ATOM      6  C   UNL     1       2.678   2.398  21.138  0.00  0.00    +0.000 A 
ATOM      7  C   UNL     1       3.579   2.899  20.180  0.00  0.00    +0.000 A 
BRANCH   7   8
ATOM      8  N   UNL     1       4.831   2.275  20.078  0.00  0.00    +0.000 N 
ATOM      9  H   UNL     1       5.416   2.634  19.328  0.00  0.00    +0.000 HD
ATOM     10  H   UNL     1       5.343   2.261  20.954  0.00  0.00    +0.000 HD
ENDBRANCH   7   8
ENDBRANCH   1   2
BRANCH   1  11
ATOM     11  O   UNL     1       5.280   5.330  19.174  0.00  0.00    +0.000 OA
ATOM     12  H   UNL     1       5.240   6.299  19.100  0.00  0.00    +0.000 HD
ENDBRANCH   1  11
BRANCH   1  13
ATOM     13  C   UNL     1       3.522   5.907  17.633  0.00  0.00    +0.000 C 
BRANCH  13  14
ATOM     14  C   UNL     1       4.537   7.010  17.361  0.00  0.00    +0.000 C 
BRANCH  14  15
ATOM     15  N   UNL     1       5.472   6.635  16.312  0.00  0.00    +0.000 N 
ATOM     16  H   UNL     1       5.159   6.701  15.349  0.00  0.00    +0.000 HD
BRANCH  15  17
ATOM     17  C   UNL     1       6.823   6.499  16.437  0.00  0.00    +0.000 C 
ATOM     18  S   UNL     1       7.608   7.442  17.566  0.00  0.00    +0.000 S 
BRANCH  17  19
ATOM     19  N   UNL     1       7.396   5.559  15.631  0.00  0.00    +0.000 N 
ATOM     20  H   UNL     1       8.231   5.825  15.131  0.00  0.00    +0.000 HD
BRANCH  19  21
ATOM     21  C   UNL     1       6.774   4.309  15.240  0.00  0.00    +0.000 C 
BRANCH  21  23
ATOM     22  C   UNL     1       6.235   3.525  12.925  0.00  0.00    +0.000 C 
ATOM     23  C   UNL     1       5.857   4.488  14.036  0.00  0.00    +0.000 C 
ENDBRANCH  21  23
ENDBRANCH  19  21
ENDBRANCH  17  19
ENDBRANCH  15  17
ENDBRANCH  14  15
ENDBRANCH  13  14
ENDBRANCH   1  13
TORSDOF 10
ENDMDL
MODEL 6
REMARK VINA RESULT:      -6.0      2.267      3.309
REMARK  Name = 
REMARK  11 active torsions:
REMARK  status: ('A' for Active; 'I' for Inactive)
REMARK    1  A    between atoms: C_1  and  C_2
REMARK    2  A    between atoms: C_2  and  C_3
REMARK    3  A    between atoms: C_3  and  N_4
REMARK    4  A    between atoms: N_4  and  C_5
REMARK    5  A    between atoms: C_5  and  N_7
REMARK    6  A    between atoms: N_7  and  C_8
REMARK    7  A    between atoms: C_8  and  C_9
REMARK    8  A    between atoms: C_9  and  C_10
REMARK    9  A    between atoms: C_10  and  O_11
REMARK   10  A    between atoms: C_10  and  C_12
REMARK   11  A    between atoms: C_17  and  N_18
REMARK                            x       y       z     vdW  Elec       q    Type
REMARK                         _______ _______ _______ _____ _____    ______ ____
ROOT
ATOM      1  C   UNL     1       2.065   4.463  17.707  0.00  0.00    +0.000 C 
ENDROOT
BRANCH   1   2
ATOM      2  C   UNL     1       2.018   4.046  19.171  0.00  0.00    +0.000 A 
ATOM      3  C   UNL     1       1.437   2.786  19.439  0.00  0.00    +0.000 A 
ATOM      4  C   UNL     1       1.300   2.306  20.738  0.00  0.00    +0.000 A 
ATOM      5  C   UNL     1       1.723   3.083  21.801  0.00  0.00    +0.000 A 
ATOM      6  C   UNL     1       2.323   4.318  21.561  0.00  0.00    +0.000 A 
ATOM      7  C   UNL     1       2.537   4.783  20.250  0.00  0.00    +0.000 A 
BRANCH   7   8
ATOM      8  N   UNL     1       3.147   6.037  20.098  0.00  0.00    +0.000 N 
ATOM      9  H   UNL     1       3.986   6.163  20.657  0.00  0.00    +0.000 HD
ATOM     10  H   UNL     1       3.324   6.280  19.128  0.00  0.00    +0.000 HD
ENDBRANCH   7   8
ENDBRANCH   1   2
BRANCH   1  11
ATOM     11  O   UNL     1       0.782   4.263  17.107  0.00  0.00    +0.000 OA
ATOM     12  H   UNL     1       0.281   5.092  17.199  0.00  0.00    +0.000 HD
ENDBRANCH   1  11
BRANCH   1  13
ATOM     13  C   UNL     1       3.130   3.821  16.812  0.00  0.00    +0.000 C 
BRANCH  13  14
ATOM     14  C   UNL     1       4.510   4.384  17.129  0.00  0.00    +0.000 C 
BRANCH  14  15
ATOM     15  N   UNL     1       5.560   3.667  16.423  0.00  0.00    +0.000 N 
ATOM     16  H   UNL     1       5.426   2.676  16.249  0.00  0.00    +0.000 HD
BRANCH  15  17
ATOM     17  C   UNL     1       6.569   4.216  15.688  0.00  0.00    +0.000 C 
ATOM     18  S   UNL     1       6.461   4.144  14.026  0.00  0.00    +0.000 S 
BRANCH  17  19
ATOM     19  N   UNL     1       7.563   4.812  16.408  0.00  0.00    +0.000 N 
ATOM     20  H   UNL     1       8.316   5.239  15.890  0.00  0.00    +0.000 HD
BRANCH  19  21
ATOM     21  C   UNL     1       7.758   4.665  17.837  0.00  0.00    +0.000 C 
BRANCH  21  23
ATOM     22  C   UNL     1       7.485   7.138  17.566  0.00  0.00    +0.000 C 
ATOM     23  C   UNL     1       7.692   6.007  18.557  0.00  0.00    +0.000 C 
ENDBRANCH  21  23
ENDBRANCH  19  21
ENDBRANCH  17  19
ENDBRANCH  15  17
ENDBRANCH  14  15
ENDBRANCH  13  14
ENDBRANCH   1  13
TORSDOF 10
ENDMDL
MODEL 7
REMARK VINA RESULT:      -6.0      1.437      1.653
REMARK  Name = 
REMARK  11 active torsions:
REMARK  status: ('A' for Active; 'I' for Inactive)
REMARK    1  A    between atoms: C_1  and  C_2
REMARK    2  A    between atoms: C_2  and  C_3
REMARK    3  A    between atoms: C_3  and  N_4
REMARK    4  A    between atoms: N_4  and  C_5
REMARK    5  A    between atoms: C_5  and  N_7
REMARK    6  A    between atoms: N_7  and  C_8
REMARK    7  A    between atoms: C_8  and  C_9
REMARK    8  A    between atoms: C_9  and  C_10
REMARK    9  A    between atoms: C_10  and  O_11
REMARK   10  A    between atoms: C_10  and  C_12
REMARK   11  A    between atoms: C_17  and  N_18
REMARK                            x       y       z     vdW  Elec       q    Type
REMARK                         _______ _______ _______ _____ _____    ______ ____
ROOT
ATOM      1  C   UNL     1       2.429   4.383  17.723  0.00  0.00    +0.000 C 
ENDROOT
BRANCH   1   2
ATOM      2  C   UNL     1       2.232   3.888  19.149  0.00  0.00    +0.000 A 
ATOM      3  C   UNL     1       2.418   4.848  20.170  0.00  0.00    +0.000 A 
ATOM      4  C   UNL     1       2.305   4.514  21.517  0.00  0.00    +0.000 A 
ATOM      5  C   UNL     1       2.022   3.207  21.874  0.00  0.00    +0.000 A 
ATOM      6  C   UNL     1       1.810   2.249  20.885  0.00  0.00    +0.000 A 
ATOM      7  C   UNL     1       1.847   2.588  19.519  0.00  0.00    +0.000 A 
BRANCH   7   8
ATOM      8  N   UNL     1       1.622   1.561  18.590  0.00  0.00    +0.000 N 
ATOM      9  H   UNL     1       0.885   1.761  17.919  0.00  0.00    +0.000 HD
ATOM     10  H   UNL     1       2.467   1.261  18.114  0.00  0.00    +0.000 HD
ENDBRANCH   7   8
ENDBRANCH   1   2
BRANCH   1  11
ATOM     11  O   UNL     1       1.275   4.070  16.938  0.00  0.00    +0.000 OA
ATOM     12  H   UNL     1       0.594   3.725  17.541  0.00  0.00    +0.000 HD
ENDBRANCH   1  11
BRANCH   1  13
ATOM     13  C   UNL     1       3.677   3.914  16.966  0.00  0.00    +0.000 C 
BRANCH  13  14
ATOM     14  C   UNL     1       4.893   3.909  17.884  0.00  0.00    +0.000 C 
BRANCH  14  15
ATOM     15  N   UNL     1       6.124   4.157  17.149  0.00  0.00    +0.000 N 
ATOM     16  H   UNL     1       6.586   3.365  16.714  0.00  0.00    +0.000 HD
BRANCH  15  17
ATOM     17  C   UNL     1       6.578   5.363  16.706  0.00  0.00    +0.000 C 
ATOM     18  S   UNL     1       7.276   6.396  17.813  0.00  0.00    +0.000 S 
BRANCH  17  19
ATOM     19  N   UNL     1       6.444   5.585  15.366  0.00  0.00    +0.000 N 
ATOM     20  H   UNL     1       5.799   6.306  15.079  0.00  0.00    +0.000 HD
BRANCH  19  21
ATOM     21  C   UNL     1       6.952   4.714  14.324  0.00  0.00    +0.000 C 
BRANCH  21  23
ATOM     22  C   UNL     1       6.276   3.421  12.290  0.00  0.00    +0.000 C 
ATOM     23  C   UNL     1       5.834   3.926  13.652  0.00  0.00    +0.000 C 
ENDBRANCH  21  23
ENDBRANCH  19  21
ENDBRANCH  17  19
ENDBRANCH  15  17
ENDBRANCH  14  15
ENDBRANCH  13  14
ENDBRANCH   1  13
TORSDOF 10
ENDMDL
MODEL 8
REMARK VINA RESULT:      -6.0      1.206      1.446
REMARK  Name = 
REMARK  11 active torsions:
REMARK  status: ('A' for Active; 'I' for Inactive)
REMARK    1  A    between atoms: C_1  and  C_2
REMARK    2  A    between atoms: C_2  and  C_3
REMARK    3  A    between atoms: C_3  and  N_4
REMARK    4  A    between atoms: N_4  and  C_5
REMARK    5  A    between atoms: C_5  and  N_7
REMARK    6  A    between atoms: N_7  and  C_8
REMARK    7  A    between atoms: C_8  and  C_9
REMARK    8  A    between atoms: C_9  and  C_10
REMARK    9  A    between atoms: C_10  and  O_11
REMARK   10  A    between atoms: C_10  and  C_12
REMARK   11  A    between atoms: C_17  and  N_18
REMARK                            x       y       z     vdW  Elec       q    Type
REMARK                         _______ _______ _______ _____ _____    ______ ____
ROOT
ATOM      1  C   UNL     1       4.208   4.976  18.446  0.00  0.00    +0.000 C 
ENDROOT
BRANCH   1   2
ATOM      2  C   UNL     1       3.073   4.221  19.124  0.00  0.00    +0.000 A 
ATOM      3  C   UNL     1       2.128   5.012  19.816  0.00  0.00    +0.000 A 
ATOM      4  C   UNL     1       1.065   4.442  20.510  0.00  0.00    +0.000 A 
ATOM      5  C   UNL     1       0.933   3.065  20.544  0.00  0.00    +0.000 A 
ATOM      6  C   UNL     1       1.837   2.265  19.848  0.00  0.00    +0.000 A 
ATOM      7  C   UNL     1       2.873   2.830  19.081  0.00  0.00    +0.000 A 
BRANCH   7   8
ATOM      8  N   UNL     1       3.739   1.952  18.412  0.00  0.00    +0.000 N 
ATOM      9  H   UNL     1       3.783   1.021  18.817  0.00  0.00    +0.000 HD
ATOM     10  H   UNL     1       3.561   1.899  17.414  0.00  0.00    +0.000 HD
ENDBRANCH   7   8
ENDBRANCH   1   2
BRANCH   1  11
ATOM     11  O   UNL     1       4.336   4.541  17.089  0.00  0.00    +0.000 OA
ATOM     12  H   UNL     1       4.845   5.216  16.610  0.00  0.00    +0.000 HD
ENDBRANCH   1  11
BRANCH   1  13
ATOM     13  C   UNL     1       5.591   4.935  19.105  0.00  0.00    +0.000 C 
BRANCH  13  14
ATOM     14  C   UNL     1       6.607   4.270  18.185  0.00  0.00    +0.000 C 
BRANCH  14  15
ATOM     15  N   UNL     1       7.525   5.238  17.606  0.00  0.00    +0.000 N 
ATOM     16  H   UNL     1       8.509   4.992  17.557  0.00  0.00    +0.000 HD
BRANCH  15  17
ATOM     17  C   UNL     1       7.195   6.314  16.837  0.00  0.00    +0.000 C 
ATOM     18  S   UNL     1       7.568   7.835  17.410  0.00  0.00    +0.000 S 
BRANCH  17  19
ATOM     19  N   UNL     1       6.615   6.023  15.636  0.00  0.00    +0.000 N 
ATOM     20  H   UNL     1       5.673   6.350  15.487  0.00  0.00    +0.000 HD
BRANCH  19  21
ATOM     21  C   UNL     1       7.138   5.078  14.668  0.00  0.00    +0.000 C 
BRANCH  21  23
ATOM     22  C   UNL     1       6.201   3.627  12.857  0.00  0.00    +0.000 C 
ATOM     23  C   UNL     1       6.118   3.998  14.327  0.00  0.00    +0.000 C 
ENDBRANCH  21  23
ENDBRANCH  19  21
ENDBRANCH  17  19
ENDBRANCH  15  17
ENDBRANCH  14  15
ENDBRANCH  13  14
ENDBRANCH   1  13
TORSDOF 10
ENDMDL
MODEL 9
REMARK VINA RESULT:      -6.0      1.902      2.864
REMARK  Name = 
REMARK  11 active torsions:
REMARK  status: ('A' for Active; 'I' for Inactive)
REMARK    1  A    between atoms: C_1  and  C_2
REMARK    2  A    between atoms: C_2  and  C_3
REMARK    3  A    between atoms: C_3  and  N_4
REMARK    4  A    between atoms: N_4  and  C_5
REMARK    5  A    between atoms: C_5  and  N_7
REMARK    6  A    between atoms: N_7  and  C_8
REMARK    7  A    between atoms: C_8  and  C_9
REMARK    8  A    between atoms: C_9  and  C_10
REMARK    9  A    between atoms: C_10  and  O_11
REMARK   10  A    between atoms: C_10  and  C_12
REMARK   11  A    between atoms: C_17  and  N_18
REMARK                            x       y       z     vdW  Elec       q    Type
REMARK                         _______ _______ _______ _____ _____    ______ ____
ROOT
ATOM      1  C   UNL     1       4.787   3.628  19.049  0.00  0.00    +0.000 C 
ENDROOT
BRANCH   1   2
ATOM      2  C   UNL     1       3.320   3.749  19.437  0.00  0.00    +0.000 A 
ATOM      3  C   UNL     1       2.959   4.921  20.142  0.00  0.00    +0.000 A 
ATOM      4  C   UNL     1       1.658   5.134  20.587  0.00  0.00    +0.000 A 
ATOM      5  C   UNL     1       0.690   4.172  20.354  0.00  0.00    +0.000 A 
ATOM      6  C   UNL     1       1.016   3.021  19.639  0.00  0.00    +0.000 A 
ATOM      7  C   UNL     1       2.309   2.826  19.118  0.00  0.00    +0.000 A 
BRANCH   7   8
ATOM      8  N   UNL     1       2.551   1.639  18.410  0.00  0.00    +0.000 N 
ATOM      9  H   UNL     1       2.787   1.778  17.432  0.00  0.00    +0.000 HD
ATOM     10  H   UNL     1       3.234   1.038  18.861  0.00  0.00    +0.000 HD
ENDBRANCH   7   8
ENDBRANCH   1   2
BRANCH   1  11
ATOM     11  O   UNL     1       5.328   2.412  19.574  0.00  0.00    +0.000 OA
ATOM     12  H   UNL     1       6.260   2.576  19.795  0.00  0.00    +0.000 HD
ENDBRANCH   1  11
BRANCH   1  13
ATOM     13  C   UNL     1       5.725   4.782  19.421  0.00  0.00    +0.000 C 
BRANCH  13  14
ATOM     14  C   UNL     1       6.999   4.731  18.587  0.00  0.00    +0.000 C 
BRANCH  14  15
ATOM     15  N   UNL     1       6.749   4.212  17.252  0.00  0.00    +0.000 N 
ATOM     16  H   UNL     1       6.386   3.268  17.168  0.00  0.00    +0.000 HD
BRANCH  15  17
ATOM     17  C   UNL     1       6.647   4.938  16.102  0.00  0.00    +0.000 C 
ATOM     18  S   UNL     1       6.304   4.126  14.687  0.00  0.00    +0.000 S 
BRANCH  17  19
ATOM     19  N   UNL     1       6.803   6.286  16.242  0.00  0.00    +0.000 N 
ATOM     20  H   UNL     1       7.707   6.673  16.015  0.00  0.00    +0.000 HD
BRANCH  19  21
ATOM     21  C   UNL     1       5.872   7.165  16.923  0.00  0.00    +0.000 C 
BRANCH  21  23
ATOM     22  C   UNL     1       3.488   7.459  17.626  0.00  0.00    +0.000 C 
ATOM     23  C   UNL     1       4.424   6.777  16.644  0.00  0.00    +0.000 C 
ENDBRANCH  21  23
ENDBRANCH  19  21
ENDBRANCH  17  19
ENDBRANCH  15  17
ENDBRANCH  14  15
ENDBRANCH  13  14
ENDBRANCH   1  13
TORSDOF 10
ENDMDL
