MODEL 1
REMARK VINA RESULT:      -6.7      0.000      0.000
REMARK  Name = 
REMARK  3 active torsions:
REMARK  status: ('A' for Active; 'I' for Inactive)
REMARK    1  A    between atoms: C_1  and  C_2
REMARK    2  A    between atoms: C_2  and  C_4
REMARK    3  A    between atoms: C_5  and  N_6
REMARK                            x       y       z     vdW  Elec       q    Type
REMARK                         _______ _______ _______ _____ _____    ______ ____
ROOT
ATOM      1  C   UNL     1       6.015   5.786  17.091  0.00  0.00    +0.000 C 
ATOM      2  C   UNL     1       5.587   5.178  18.212  0.00  0.00    +0.000 C 
ATOM      3  C   UNL     1       6.495   5.404  19.399  0.00  0.00    +0.000 C 
ATOM      4  C   UNL     1       7.704   6.132  18.855  0.00  0.00    +0.000 C 
ATOM      5  C   UNL     1       7.292   6.431  17.451  0.00  0.00    +0.000 C 
ATOM      6  O   UNL     1       7.967   7.103  16.681  0.00  0.00    +0.000 OA
ENDROOT
BRANCH   2   7
ATOM      7  N   UNL     1       4.443   4.436  18.452  0.00  0.00    +0.000 N 
ATOM      8  C   UNL     1       4.451   3.084  19.026  0.00  0.00    +0.000 C 
ATOM      9  C   UNL     1       3.593   2.179  18.136  0.00  0.00    +0.000 C 
ATOM     10  C   UNL     1       2.191   2.752  17.897  0.00  0.00    +0.000 C 
ATOM     11  C   UNL     1       2.222   4.226  17.490  0.00  0.00    +0.000 C 
ATOM     12  C   UNL     1       3.107   5.040  18.428  0.00  0.00    +0.000 C 
ENDBRANCH   2   7
BRANCH   1  14
ATOM     13  C   UNL     1       5.262   4.468  15.021  0.00  0.00    +0.000 C 
ATOM     14  C   UNL     1       5.398   5.783  15.742  0.00  0.00    +0.000 C 
ATOM     15  O   UNL     1       4.981   6.816  15.216  0.00  0.00    +0.000 OA
ENDBRANCH   1  14
TORSDOF 2
ENDMDL
MODEL 2
REMARK VINA RESULT:      -6.6      1.640      2.950
REMARK  Name = 
REMARK  3 active torsions:
REMARK  status: ('A' for Active; 'I' for Inactive)
REMARK    1  A    between atoms: C_1  and  C_2
REMARK    2  A    between atoms: C_2  and  C_4
REMARK    3  A    between atoms: C_5  and  N_6
REMARK                            x       y       z     vdW  Elec       q    Type
REMARK                         _______ _______ _______ _____ _____    ______ ____
ROOT
ATOM      1  C   UNL     1       6.504   5.092  17.254  0.00  0.00    +0.000 C 
ATOM      2  C   UNL     1       5.295   4.561  17.514  0.00  0.00    +0.000 C 
ATOM      3  C   UNL     1       4.610   4.005  16.286  0.00  0.00    +0.000 C 
ATOM      4  C   UNL     1       5.486   4.397  15.117  0.00  0.00    +0.000 C 
ATOM      5  C   UNL     1       6.688   4.967  15.795  0.00  0.00    +0.000 C 
ATOM      6  O   UNL     1       7.692   5.326  15.194  0.00  0.00    +0.000 OA
ENDROOT
BRANCH   2   7
ATOM      7  N   UNL     1       4.620   4.404  18.713  0.00  0.00    +0.000 N 
ATOM      8  C   UNL     1       4.601   3.154  19.482  0.00  0.00    +0.000 C 
ATOM      9  C   UNL     1       3.144   2.821  19.820  0.00  0.00    +0.000 C 
ATOM     10  C   UNL     1       2.418   3.988  20.499  0.00  0.00    +0.000 C 
ATOM     11  C   UNL     1       2.631   5.315  19.768  0.00  0.00    +0.000 C 
ATOM     12  C   UNL     1       4.107   5.551  19.468  0.00  0.00    +0.000 C 
ENDBRANCH   2   7
BRANCH   1  14
ATOM     13  C   UNL     1       7.750   7.200  18.024  0.00  0.00    +0.000 C 
ATOM     14  C   UNL     1       7.456   5.732  18.194  0.00  0.00    +0.000 C 
ATOM     15  O   UNL     1       7.987   5.104  19.110  0.00  0.00    +0.000 OA
ENDBRANCH   1  14
TORSDOF 2
ENDMDL
MODEL 3
REMARK VINA RESULT:      -6.6      1.517      2.772
REMARK  Name = 
REMARK  3 active torsions:
REMARK  status: ('A' for Active; 'I' for Inactive)
REMARK    1  A    between atoms: C_1  and  C_2
REMARK    2  A    between atoms: C_2  and  C_4
REMARK    3  A    between atoms: C_5  and  N_6
REMARK                            x       y       z     vdW  Elec       q    Type
REMARK                         _______ _______ _______ _____ _____    ______ ____
ROOT
ATOM      1  C   UNL     1       6.508   5.619  16.580  0.00  0.00    +0.000 C 
ATOM      2  C   UNL     1       5.364   4.986  16.896  0.00  0.00    +0.000 C 
ATOM      3  C   UNL     1       4.922   3.990  15.849  0.00  0.00    +0.000 C 
ATOM      4  C   UNL     1       5.873   4.171  14.686  0.00  0.00    +0.000 C 
ATOM      5  C   UNL     1       6.888   5.112  15.247  0.00  0.00    +0.000 C 
ATOM      6  O   UNL     1       7.899   5.448  14.643  0.00  0.00    +0.000 OA
ENDROOT
BRANCH   2   7
ATOM      7  N   UNL     1       4.574   5.070  18.030  0.00  0.00    +0.000 N 
ATOM      8  C   UNL     1       4.799   4.275  19.243  0.00  0.00    +0.000 C 
ATOM      9  C   UNL     1       3.474   3.616  19.639  0.00  0.00    +0.000 C 
ATOM     10  C   UNL     1       2.328   4.627  19.754  0.00  0.00    +0.000 C 
ATOM     11  C   UNL     1       2.254   5.569  18.551  0.00  0.00    +0.000 C 
ATOM     12  C   UNL     1       3.620   6.165  18.231  0.00  0.00    +0.000 C 
ENDBRANCH   2   7
BRANCH   1  14
ATOM     13  C   UNL     1       7.842   6.275  18.673  0.00  0.00    +0.000 C 
ATOM     14  C   UNL     1       7.236   6.659  17.348  0.00  0.00    +0.000 C 
ATOM     15  O   UNL     1       7.372   7.806  16.922  0.00  0.00    +0.000 OA
ENDBRANCH   1  14
TORSDOF 2
ENDMDL
MODEL 4
REMARK VINA RESULT:      -6.6      3.057      4.988
REMARK  Name = 
REMARK  3 active torsions:
REMARK  status: ('A' for Active; 'I' for Inactive)
REMARK    1  A    between atoms: C_1  and  C_2
REMARK    2  A    between atoms: C_2  and  C_4
REMARK    3  A    between atoms: C_5  and  N_6
REMARK                            x       y       z     vdW  Elec       q    Type
REMARK                         _______ _______ _______ _____ _____    ______ ____
ROOT
ATOM      1  C   UNL     1       3.515   3.720  19.782  0.00  0.00    +0.000 C 
ATOM      2  C   UNL     1       3.841   4.844  19.118  0.00  0.00    +0.000 C 
ATOM      3  C   UNL     1       3.028   6.046  19.539  0.00  0.00    +0.000 C 
ATOM      4  C   UNL     1       1.976   5.515  20.487  0.00  0.00    +0.000 C 
ATOM      5  C   UNL     1       2.403   4.096  20.676  0.00  0.00    +0.000 C 
ATOM      6  O   UNL     1       1.856   3.328  21.459  0.00  0.00    +0.000 OA
ENDROOT
BRANCH   2   7
ATOM      7  N   UNL     1       4.819   5.072  18.164  0.00  0.00    +0.000 N 
ATOM      8  C   UNL     1       4.570   5.056  16.718  0.00  0.00    +0.000 C 
ATOM      9  C   UNL     1       5.614   4.148  16.060  0.00  0.00    +0.000 C 
ATOM     10  C   UNL     1       7.048   4.528  16.447  0.00  0.00    +0.000 C 
ATOM     11  C   UNL     1       7.215   4.729  17.953  0.00  0.00    +0.000 C 
ATOM     12  C   UNL     1       6.126   5.637  18.514  0.00  0.00    +0.000 C 
ENDBRANCH   2   7
BRANCH   1  14
ATOM     13  C   UNL     1       3.589   1.495  18.504  0.00  0.00    +0.000 C 
ATOM     14  C   UNL     1       4.083   2.358  19.636  0.00  0.00    +0.000 C 
ATOM     15  O   UNL     1       4.953   1.931  20.396  0.00  0.00    +0.000 OA
ENDBRANCH   1  14
TORSDOF 2
ENDMDL
MODEL 5
REMARK VINA RESULT:      -6.4      0.746      1.482
REMARK  Name = 
REMARK  3 active torsions:
REMARK  status: ('A' for Active; 'I' for Inactive)
REMARK    1  A    between atoms: C_1  and  C_2
REMARK    2  A    between atoms: C_2  and  C_4
REMARK    3  A    between atoms: C_5  and  N_6
REMARK                            x       y       z     vdW  Elec       q    Type
REMARK                         _______ _______ _______ _____ _____    ______ ____
ROOT
ATOM      1  C   UNL     1       5.798   5.663  16.922  0.00  0.00    +0.000 C 
ATOM      2  C   UNL     1       5.143   4.997  17.891  0.00  0.00    +0.000 C 
ATOM      3  C   UNL     1       5.826   5.075  19.237  0.00  0.00    +0.000 C 
ATOM      4  C   UNL     1       7.146   5.770  18.986  0.00  0.00    +0.000 C 
ATOM      5  C   UNL     1       7.014   6.201  17.562  0.00  0.00    +0.000 C 
ATOM      6  O   UNL     1       7.848   6.890  16.988  0.00  0.00    +0.000 OA
ENDROOT
BRANCH   2   7
ATOM      7  N   UNL     1       3.943   4.307  17.854  0.00  0.00    +0.000 N 
ATOM      8  C   UNL     1       2.627   4.959  17.852  0.00  0.00    +0.000 C 
ATOM      9  C   UNL     1       1.768   4.308  18.941  0.00  0.00    +0.000 C 
ATOM     10  C   UNL     1       1.714   2.782  18.811  0.00  0.00    +0.000 C 
ATOM     11  C   UNL     1       3.098   2.161  18.616  0.00  0.00    +0.000 C 
ATOM     12  C   UNL     1       3.878   2.881  17.521  0.00  0.00    +0.000 C 
ENDBRANCH   2   7
BRANCH   1  14
ATOM     13  C   UNL     1       5.548   4.588  14.605  0.00  0.00    +0.000 C 
ATOM     14  C   UNL     1       5.442   5.803  15.489  0.00  0.00    +0.000 C 
ATOM     15  O   UNL     1       5.046   6.869  15.019  0.00  0.00    +0.000 OA
ENDBRANCH   1  14
TORSDOF 2
ENDMDL
MODEL 6
REMARK VINA RESULT:      -6.3      1.596      2.958
REMARK  Name = 
REMARK  3 active torsions:
REMARK  status: ('A' for Active; 'I' for Inactive)
REMARK    1  A    between atoms: C_1  and  C_2
REMARK    2  A    between atoms: C_2  and  C_4
REMARK    3  A    between atoms: C_5  and  N_6
REMARK                            x       y       z     vdW  Elec       q    Type
REMARK                         _______ _______ _______ _____ _____    ______ ____
ROOT
ATOM      1  C   UNL     1       6.405   4.801  16.336  0.00  0.00    +0.000 C 
ATOM      2  C   UNL     1       5.162   4.296  16.240  0.00  0.00    +0.000 C 
ATOM      3  C   UNL     1       4.767   3.942  14.825  0.00  0.00    +0.000 C 
ATOM      4  C   UNL     1       5.892   4.447  13.949  0.00  0.00    +0.000 C 
ATOM      5  C   UNL     1       6.916   4.866  14.953  0.00  0.00    +0.000 C 
ATOM      6  O   UNL     1       8.036   5.256  14.648  0.00  0.00    +0.000 OA
ENDROOT
BRANCH   2   7
ATOM      7  N   UNL     1       4.229   4.011  17.223  0.00  0.00    +0.000 N 
ATOM      8  C   UNL     1       4.054   2.683  17.823  0.00  0.00    +0.000 C 
ATOM      9  C   UNL     1       2.565   2.325  17.772  0.00  0.00    +0.000 C 
ATOM     10  C   UNL     1       1.680   3.414  18.387  0.00  0.00    +0.000 C 
ATOM     11  C   UNL     1       2.032   4.813  17.879  0.00  0.00    +0.000 C 
ATOM     12  C   UNL     1       3.532   5.069  17.961  0.00  0.00    +0.000 C 
ENDBRANCH   2   7
BRANCH   1  14
ATOM     13  C   UNL     1       7.339   6.746  17.728  0.00  0.00    +0.000 C 
ATOM     14  C   UNL     1       7.127   5.266  17.546  0.00  0.00    +0.000 C 
ATOM     15  O   UNL     1       7.532   4.480  18.403  0.00  0.00    +0.000 OA
ENDBRANCH   1  14
TORSDOF 2
ENDMDL
MODEL 7
REMARK VINA RESULT:      -6.3      3.046      5.111
REMARK  Name = 
REMARK  3 active torsions:
REMARK  status: ('A' for Active; 'I' for Inactive)
REMARK    1  A    between atoms: C_1  and  C_2
REMARK    2  A    between atoms: C_2  and  C_4
REMARK    3  A    between atoms: C_5  and  N_6
REMARK                            x       y       z     vdW  Elec       q    Type
REMARK                         _______ _______ _______ _____ _____    ______ ____
ROOT
ATOM      1  C   UNL     1       3.451   3.702  19.879  0.00  0.00    +0.000 C 
ATOM      2  C   UNL     1       3.832   4.850  19.291  0.00  0.00    +0.000 C 
ATOM      3  C   UNL     1       2.987   6.038  19.691  0.00  0.00    +0.000 C 
ATOM      4  C   UNL     1       1.859   5.472  20.526  0.00  0.00    +0.000 C 
ATOM      5  C   UNL     1       2.269   4.045  20.692  0.00  0.00    +0.000 C 
ATOM      6  O   UNL     1       1.659   3.248  21.394  0.00  0.00    +0.000 OA
ENDROOT
BRANCH   2   7
ATOM      7  N   UNL     1       4.887   5.114  18.432  0.00  0.00    +0.000 N 
ATOM      8  C   UNL     1       6.294   4.863  18.766  0.00  0.00    +0.000 C 
ATOM      9  C   UNL     1       7.094   6.134  18.461  0.00  0.00    +0.000 C 
ATOM     10  C   UNL     1       6.867   6.640  17.032  0.00  0.00    +0.000 C 
ATOM     11  C   UNL     1       5.385   6.697  16.658  0.00  0.00    +0.000 C 
ATOM     12  C   UNL     1       4.676   5.394  17.009  0.00  0.00    +0.000 C 
ENDBRANCH   2   7
BRANCH   1  14
ATOM     13  C   UNL     1       3.540   1.483  18.592  0.00  0.00    +0.000 C 
ATOM     14  C   UNL     1       4.030   2.345  19.726  0.00  0.00    +0.000 C 
ATOM     15  O   UNL     1       4.905   1.922  20.481  0.00  0.00    +0.000 OA
ENDBRANCH   1  14
TORSDOF 2
ENDMDL
MODEL 8
REMARK VINA RESULT:      -6.3      1.419      3.193
REMARK  Name = 
REMARK  3 active torsions:
REMARK  status: ('A' for Active; 'I' for Inactive)
REMARK    1  A    between atoms: C_1  and  C_2
REMARK    2  A    between atoms: C_2  and  C_4
REMARK    3  A    between atoms: C_5  and  N_6
REMARK                            x       y       z     vdW  Elec       q    Type
REMARK                         _______ _______ _______ _____ _____    ______ ____
ROOT
ATOM      1  C   UNL     1       6.436   5.393  16.162  0.00  0.00    +0.000 C 
ATOM      2  C   UNL     1       5.314   4.658  16.269  0.00  0.00    +0.000 C 
ATOM      3  C   UNL     1       5.058   3.777  15.067  0.00  0.00    +0.000 C 
ATOM      4  C   UNL     1       6.110   4.161  14.049  0.00  0.00    +0.000 C 
ATOM      5  C   UNL     1       6.990   5.081  14.830  0.00  0.00    +0.000 C 
ATOM      6  O   UNL     1       8.031   5.551  14.388  0.00  0.00    +0.000 OA
ENDROOT
BRANCH   2   7
ATOM      7  N   UNL     1       4.405   4.551  17.308  0.00  0.00    +0.000 N 
ATOM      8  C   UNL     1       3.491   5.628  17.708  0.00  0.00    +0.000 C 
ATOM      9  C   UNL     1       3.614   5.826  19.222  0.00  0.00    +0.000 C 
ATOM     10  C   UNL     1       3.426   4.519  20.001  0.00  0.00    +0.000 C 
ATOM     11  C   UNL     1       4.252   3.369  19.425  0.00  0.00    +0.000 C 
ATOM     12  C   UNL     1       4.070   3.259  17.915  0.00  0.00    +0.000 C 
ENDBRANCH   2   7
BRANCH   1  14
ATOM     13  C   UNL     1       7.565   5.848  18.422  0.00  0.00    +0.000 C 
ATOM     14  C   UNL     1       7.002   6.368  17.126  0.00  0.00    +0.000 C 
ATOM     15  O   UNL     1       7.039   7.575  16.883  0.00  0.00    +0.000 OA
ENDBRANCH   1  14
TORSDOF 2
ENDMDL
MODEL 9
REMARK VINA RESULT:      -6.2      2.355      3.577
REMARK  Name = 
REMARK  3 active torsions:
REMARK  status: ('A' for Active; 'I' for Inactive)
REMARK    1  A    between atoms: C_1  and  C_2
REMARK    2  A    between atoms: C_2  and  C_4
REMARK    3  A    between atoms: C_5  and  N_6
REMARK                            x       y       z     vdW  Elec       q    Type
REMARK                         _______ _______ _______ _____ _____    ______ ____
ROOT
ATOM      1  C   UNL     1       3.650   5.627  17.889  0.00  0.00    +0.000 C 
ATOM      2  C   UNL     1       3.532   4.291  17.999  0.00  0.00    +0.000 C 
ATOM      3  C   UNL     1       4.440   3.530  17.061  0.00  0.00    +0.000 C 
ATOM      4  C   UNL     1       5.078   4.576  16.173  0.00  0.00    +0.000 C 
ATOM      5  C   UNL     1       4.631   5.851  16.810  0.00  0.00    +0.000 C 
ATOM      6  O   UNL     1       5.012   6.955  16.442  0.00  0.00    +0.000 OA
ENDROOT
BRANCH   2   7
ATOM      7  N   UNL     1       2.759   3.524  18.856  0.00  0.00    +0.000 N 
ATOM      8  C   UNL     1       1.297   3.427  18.770  0.00  0.00    +0.000 C 
ATOM      9  C   UNL     1       0.716   3.690  20.164  0.00  0.00    +0.000 C 
ATOM     10  C   UNL     1       1.344   2.796  21.239  0.00  0.00    +0.000 C 
ATOM     11  C   UNL     1       2.871   2.773  21.163  0.00  0.00    +0.000 C 
ATOM     12  C   UNL     1       3.351   2.515  19.739  0.00  0.00    +0.000 C 
ENDBRANCH   2   7
BRANCH   1  14
ATOM     13  C   UNL     1       2.326   7.825  17.847  0.00  0.00    +0.000 C 
ATOM     14  C   UNL     1       2.923   6.686  18.630  0.00  0.00    +0.000 C 
ATOM     15  O   UNL     1       2.782   6.644  19.853  0.00  0.00    +0.000 OA
ENDBRANCH   1  14
TORSDOF 2
ENDMDL
