MODEL 1
REMARK VINA RESULT:      -8.5      0.000      0.000
REMARK  Name = 
REMARK  4 active torsions:
REMARK  status: ('A' for Active; 'I' for Inactive)
REMARK    1  A    between atoms: C_1  and  C_2
REMARK    2  A    between atoms: C_4  and  C_5
REMARK    3  A    between atoms: C_16  and  O_17
REMARK    4  A    between atoms: C_19  and  O_20
REMARK                            x       y       z     vdW  Elec       q    Type
REMARK                         _______ _______ _______ _____ _____    ______ ____
ROOT
ATOM      1  C   UNL     1       2.044   9.631  17.786  0.00  0.00    +0.000 C 
ATOM      2  C   UNL     1       2.522   8.271  18.208  0.00  0.00    +0.000 A 
ATOM      3  C   UNL     1       3.599   7.673  17.572  0.00  0.00    +0.000 A 
ATOM      4  C   UNL     1       4.025   6.375  17.926  0.00  0.00    +0.000 A 
ATOM      5  C   UNL     1       3.300   5.725  18.982  0.00  0.00    +0.000 A 
ATOM      6  C   UNL     1       2.256   6.456  19.545  0.00  0.00    +0.000 A 
ATOM      7  N   UNL     1       1.838   7.690  19.201  0.00  0.00    +0.000 NA
ATOM      8  S   UNL     1       1.440   5.657  20.803  0.00  0.00    +0.000 S 
ATOM      9  C   UNL     1       2.439   4.281  20.666  0.00  0.00    +0.000 A 
ATOM     10  C   UNL     1       2.413   3.098  21.424  0.00  0.00    +0.000 A 
ATOM     11  C   UNL     1       3.340   2.107  21.153  0.00  0.00    +0.000 A 
ATOM     12  C   UNL     1       4.221   2.328  20.122  0.00  0.00    +0.000 A 
ATOM     13  N   UNL     1       4.250   3.422  19.356  0.00  0.00    +0.000 NA
ATOM     14  C   UNL     1       3.372   4.425  19.640  0.00  0.00    +0.000 A 
ENDROOT
BRANCH   4  15
ATOM     15  C   UNL     1       5.141   5.735  17.186  0.00  0.00    +0.000 A 
ATOM     16  C   UNL     1       6.416   5.559  17.743  0.00  0.00    +0.000 A 
ATOM     17  C   UNL     1       7.417   4.834  17.086  0.00  0.00    +0.000 A 
ATOM     18  C   UNL     1       7.201   4.355  15.802  0.00  0.00    +0.000 A 
ATOM     19  C   UNL     1       5.985   4.606  15.176  0.00  0.00    +0.000 A 
ATOM     20  C   UNL     1       4.966   5.271  15.867  0.00  0.00    +0.000 A 
ENDBRANCH   4  15
BRANCH  10  21
ATOM     21  O   UNL     1       1.520   2.884  22.442  0.00  0.00    +0.000 OA
ATOM     22  H   UNL     1       0.625   2.937  22.058  0.00  0.00    +0.000 HD
ENDBRANCH  10  21
BRANCH  12  23
ATOM     23  O   UNL     1       5.185   1.407  19.821  0.00  0.00    +0.000 OA
ATOM     24  H   UNL     1       5.929   1.535  20.427  0.00  0.00    +0.000 HD
ENDBRANCH  12  23
TORSDOF 3
ENDMDL
MODEL 2
REMARK VINA RESULT:      -8.3      0.222      1.017
REMARK  Name = 
REMARK  4 active torsions:
REMARK  status: ('A' for Active; 'I' for Inactive)
REMARK    1  A    between atoms: C_1  and  C_2
REMARK    2  A    between atoms: C_4  and  C_5
REMARK    3  A    between atoms: C_16  and  O_17
REMARK    4  A    between atoms: C_19  and  O_20
REMARK                            x       y       z     vdW  Elec       q    Type
REMARK                         _______ _______ _______ _____ _____    ______ ____
ROOT
ATOM      1  C   UNL     1       1.965   9.677  17.826  0.00  0.00    +0.000 C 
ATOM      2  C   UNL     1       2.447   8.314  18.231  0.00  0.00    +0.000 A 
ATOM      3  C   UNL     1       3.502   7.711  17.563  0.00  0.00    +0.000 A 
ATOM      4  C   UNL     1       3.931   6.411  17.903  0.00  0.00    +0.000 A 
ATOM      5  C   UNL     1       3.234   5.763  18.979  0.00  0.00    +0.000 A 
ATOM      6  C   UNL     1       2.211   6.499  19.573  0.00  0.00    +0.000 A 
ATOM      7  N   UNL     1       1.790   7.735  19.243  0.00  0.00    +0.000 NA
ATOM      8  S   UNL     1       1.427   5.701  20.853  0.00  0.00    +0.000 S 
ATOM      9  C   UNL     1       2.414   4.321  20.685  0.00  0.00    +0.000 A 
ATOM     10  C   UNL     1       2.405   3.136  21.441  0.00  0.00    +0.000 A 
ATOM     11  C   UNL     1       3.318   2.141  21.142  0.00  0.00    +0.000 A 
ATOM     12  C   UNL     1       4.170   2.359  20.086  0.00  0.00    +0.000 A 
ATOM     13  N   UNL     1       4.182   3.454  19.321  0.00  0.00    +0.000 NA
ATOM     14  C   UNL     1       3.319   4.461  19.632  0.00  0.00    +0.000 A 
ENDROOT
BRANCH   4  15
ATOM     15  C   UNL     1       5.022   5.766  17.130  0.00  0.00    +0.000 A 
ATOM     16  C   UNL     1       4.781   4.967  16.003  0.00  0.00    +0.000 A 
ATOM     17  C   UNL     1       5.822   4.479  15.205  0.00  0.00    +0.000 A 
ATOM     18  C   UNL     1       7.142   4.690  15.577  0.00  0.00    +0.000 A 
ATOM     19  C   UNL     1       7.418   5.386  16.749  0.00  0.00    +0.000 A 
ATOM     20  C   UNL     1       6.371   5.930  17.503  0.00  0.00    +0.000 A 
ENDBRANCH   4  15
BRANCH  10  21
ATOM     21  O   UNL     1       1.540   2.926  22.485  0.00  0.00    +0.000 OA
ATOM     22  H   UNL     1       1.766   3.570  23.182  0.00  0.00    +0.000 HD
ENDBRANCH  10  21
BRANCH  12  23
ATOM     23  O   UNL     1       5.120   1.433  19.756  0.00  0.00    +0.000 OA
ATOM     24  H   UNL     1       4.969   0.639  20.288  0.00  0.00    +0.000 HD
ENDBRANCH  12  23
TORSDOF 3
ENDMDL
MODEL 3
REMARK VINA RESULT:      -6.9      2.759      5.744
REMARK  Name = 
REMARK  4 active torsions:
REMARK  status: ('A' for Active; 'I' for Inactive)
REMARK    1  A    between atoms: C_1  and  C_2
REMARK    2  A    between atoms: C_4  and  C_5
REMARK    3  A    between atoms: C_16  and  O_17
REMARK    4  A    between atoms: C_19  and  O_20
REMARK                            x       y       z     vdW  Elec       q    Type
REMARK                         _______ _______ _______ _____ _____    ______ ____
ROOT
ATOM      1  C   UNL     1       1.030   2.800  21.511  0.00  0.00    +0.000 C 
ATOM      2  C   UNL     1       2.003   3.665  20.762  0.00  0.00    +0.000 A 
ATOM      3  C   UNL     1       1.695   4.985  20.470  0.00  0.00    +0.000 A 
ATOM      4  C   UNL     1       2.581   5.791  19.724  0.00  0.00    +0.000 A 
ATOM      5  C   UNL     1       3.811   5.180  19.306  0.00  0.00    +0.000 A 
ATOM      6  C   UNL     1       3.996   3.854  19.691  0.00  0.00    +0.000 A 
ATOM      7  N   UNL     1       3.148   3.077  20.393  0.00  0.00    +0.000 NA
ATOM      8  S   UNL     1       5.473   3.178  19.191  0.00  0.00    +0.000 S 
ATOM      9  C   UNL     1       5.952   4.625  18.426  0.00  0.00    +0.000 A 
ATOM     10  C   UNL     1       7.149   4.904  17.745  0.00  0.00    +0.000 A 
ATOM     11  C   UNL     1       7.340   6.167  17.213  0.00  0.00    +0.000 A 
ATOM     12  C   UNL     1       6.319   7.076  17.355  0.00  0.00    +0.000 A 
ATOM     13  N   UNL     1       5.154   6.835  17.961  0.00  0.00    +0.000 NA
ATOM     14  C   UNL     1       4.970   5.610  18.530  0.00  0.00    +0.000 A 
ENDROOT
BRANCH   4  15
ATOM     15  C   UNL     1       2.198   7.181  19.373  0.00  0.00    +0.000 A 
ATOM     16  C   UNL     1       2.322   7.696  18.074  0.00  0.00    +0.000 A 
ATOM     17  C   UNL     1       1.831   8.961  17.730  0.00  0.00    +0.000 A 
ATOM     18  C   UNL     1       1.296   9.789  18.704  0.00  0.00    +0.000 A 
ATOM     19  C   UNL     1       1.256   9.354  20.024  0.00  0.00    +0.000 A 
ATOM     20  C   UNL     1       1.686   8.061  20.348  0.00  0.00    +0.000 A 
ENDBRANCH   4  15
BRANCH  10  21
ATOM     21  O   UNL     1       8.155   3.984  17.599  0.00  0.00    +0.000 OA
ATOM     22  H   UNL     1       7.876   3.174  18.066  0.00  0.00    +0.000 HD
ENDBRANCH  10  21
BRANCH  12  23
ATOM     23  O   UNL     1       6.454   8.352  16.883  0.00  0.00    +0.000 OA
ATOM     24  H   UNL     1       6.807   8.904  17.594  0.00  0.00    +0.000 HD
ENDBRANCH  12  23
TORSDOF 3
ENDMDL
MODEL 4
REMARK VINA RESULT:      -6.6      2.758      5.661
REMARK  Name = 
REMARK  4 active torsions:
REMARK  status: ('A' for Active; 'I' for Inactive)
REMARK    1  A    between atoms: C_1  and  C_2
REMARK    2  A    between atoms: C_4  and  C_5
REMARK    3  A    between atoms: C_16  and  O_17
REMARK    4  A    between atoms: C_19  and  O_20
REMARK                            x       y       z     vdW  Elec       q    Type
REMARK                         _______ _______ _______ _____ _____    ______ ____
ROOT
ATOM      1  C   UNL     1       1.059   2.759  21.566  0.00  0.00    +0.000 C 
ATOM      2  C   UNL     1       2.018   3.627  20.802  0.00  0.00    +0.000 A 
ATOM      3  C   UNL     1       1.689   4.938  20.490  0.00  0.00    +0.000 A 
ATOM      4  C   UNL     1       2.562   5.746  19.731  0.00  0.00    +0.000 A 
ATOM      5  C   UNL     1       3.801   5.148  19.321  0.00  0.00    +0.000 A 
ATOM      6  C   UNL     1       4.007   3.831  19.727  0.00  0.00    +0.000 A 
ATOM      7  N   UNL     1       3.171   3.052  20.441  0.00  0.00    +0.000 NA
ATOM      8  S   UNL     1       5.494   3.172  19.236  0.00  0.00    +0.000 S 
ATOM      9  C   UNL     1       5.950   4.614  18.448  0.00  0.00    +0.000 A 
ATOM     10  C   UNL     1       7.142   4.901  17.762  0.00  0.00    +0.000 A 
ATOM     11  C   UNL     1       7.313   6.158  17.210  0.00  0.00    +0.000 A 
ATOM     12  C   UNL     1       6.278   7.053  17.339  0.00  0.00    +0.000 A 
ATOM     13  N   UNL     1       5.116   6.803  17.950  0.00  0.00    +0.000 NA
ATOM     14  C   UNL     1       4.952   5.584  18.537  0.00  0.00    +0.000 A 
ENDROOT
BRANCH   4  15
ATOM     15  C   UNL     1       2.156   7.125  19.359  0.00  0.00    +0.000 A 
ATOM     16  C   UNL     1       1.663   8.047  20.293  0.00  0.00    +0.000 A 
ATOM     17  C   UNL     1       1.414   9.382  19.955  0.00  0.00    +0.000 A 
ATOM     18  C   UNL     1       1.551   9.804  18.641  0.00  0.00    +0.000 A 
ATOM     19  C   UNL     1       1.933   8.889  17.666  0.00  0.00    +0.000 A 
ATOM     20  C   UNL     1       2.247   7.573  18.026  0.00  0.00    +0.000 A 
ENDBRANCH   4  15
BRANCH  10  21
ATOM     21  O   UNL     1       8.162   3.994  17.629  0.00  0.00    +0.000 OA
ATOM     22  H   UNL     1       7.849   3.292  17.029  0.00  0.00    +0.000 HD
ENDBRANCH  10  21
BRANCH  12  23
ATOM     23  O   UNL     1       6.391   8.323  16.847  0.00  0.00    +0.000 OA
ATOM     24  H   UNL     1       6.600   8.917  17.582  0.00  0.00    +0.000 HD
ENDBRANCH  12  23
TORSDOF 3
ENDMDL
MODEL 5
REMARK VINA RESULT:      -6.6      2.778      5.796
REMARK  Name = 
REMARK  4 active torsions:
REMARK  status: ('A' for Active; 'I' for Inactive)
REMARK    1  A    between atoms: C_1  and  C_2
REMARK    2  A    between atoms: C_4  and  C_5
REMARK    3  A    between atoms: C_16  and  O_17
REMARK    4  A    between atoms: C_19  and  O_20
REMARK                            x       y       z     vdW  Elec       q    Type
REMARK                         _______ _______ _______ _____ _____    ______ ____
ROOT
ATOM      1  C   UNL     1       1.219   2.656  21.942  0.00  0.00    +0.000 C 
ATOM      2  C   UNL     1       1.932   3.389  20.842  0.00  0.00    +0.000 A 
ATOM      3  C   UNL     1       1.743   4.751  20.662  0.00  0.00    +0.000 A 
ATOM      4  C   UNL     1       2.370   5.439  19.601  0.00  0.00    +0.000 A 
ATOM      5  C   UNL     1       3.218   4.663  18.742  0.00  0.00    +0.000 A 
ATOM      6  C   UNL     1       3.333   3.310  19.057  0.00  0.00    +0.000 A 
ATOM      7  N   UNL     1       2.727   2.646  20.061  0.00  0.00    +0.000 NA
ATOM      8  S   UNL     1       4.362   2.435  18.026  0.00  0.00    +0.000 S 
ATOM      9  C   UNL     1       4.714   3.819  17.094  0.00  0.00    +0.000 A 
ATOM     10  C   UNL     1       5.565   3.936  15.982  0.00  0.00    +0.000 A 
ATOM     11  C   UNL     1       5.722   5.174  15.383  0.00  0.00    +0.000 A 
ATOM     12  C   UNL     1       4.998   6.222  15.898  0.00  0.00    +0.000 A 
ATOM     13  N   UNL     1       4.150   6.141  16.927  0.00  0.00    +0.000 NA
ATOM     14  C   UNL     1       4.021   4.938  17.555  0.00  0.00    +0.000 A 
ENDROOT
BRANCH   4  15
ATOM     15  C   UNL     1       2.100   6.884  19.396  0.00  0.00    +0.000 A 
ATOM     16  C   UNL     1       2.249   7.512  18.151  0.00  0.00    +0.000 A 
ATOM     17  C   UNL     1       1.861   8.840  17.941  0.00  0.00    +0.000 A 
ATOM     18  C   UNL     1       1.411   9.610  19.004  0.00  0.00    +0.000 A 
ATOM     19  C   UNL     1       1.353   9.051  20.276  0.00  0.00    +0.000 A 
ATOM     20  C   UNL     1       1.677   7.702  20.462  0.00  0.00    +0.000 A 
ENDBRANCH   4  15
BRANCH  10  21
ATOM     21  O   UNL     1       6.272   2.878  15.470  0.00  0.00    +0.000 OA
ATOM     22  H   UNL     1       5.634   2.295  15.019  0.00  0.00    +0.000 HD
ENDBRANCH  10  21
BRANCH  12  23
ATOM     23  O   UNL     1       5.129   7.479  15.377  0.00  0.00    +0.000 OA
ATOM     24  H   UNL     1       4.464   7.593  14.683  0.00  0.00    +0.000 HD
ENDBRANCH  12  23
TORSDOF 3
ENDMDL
MODEL 6
REMARK VINA RESULT:      -6.5      9.763     11.248
REMARK  Name = 
REMARK  4 active torsions:
REMARK  status: ('A' for Active; 'I' for Inactive)
REMARK    1  A    between atoms: C_1  and  C_2
REMARK    2  A    between atoms: C_4  and  C_5
REMARK    3  A    between atoms: C_16  and  O_17
REMARK    4  A    between atoms: C_19  and  O_20
REMARK                            x       y       z     vdW  Elec       q    Type
REMARK                         _______ _______ _______ _____ _____    ______ ____
ROOT
ATOM      1  C   UNL     1       7.401  11.569  24.590  0.00  0.00    +0.000 C 
ATOM      2  C   UNL     1       7.639  12.365  23.338  0.00  0.00    +0.000 A 
ATOM      3  C   UNL     1       8.530  11.916  22.375  0.00  0.00    +0.000 A 
ATOM      4  C   UNL     1       8.798  12.680  21.219  0.00  0.00    +0.000 A 
ATOM      5  C   UNL     1       8.091  13.922  21.089  0.00  0.00    +0.000 A 
ATOM      6  C   UNL     1       7.209  14.233  22.123  0.00  0.00    +0.000 A 
ATOM      7  N   UNL     1       6.960  13.513  23.234  0.00  0.00    +0.000 NA
ATOM      8  S   UNL     1       6.380  15.702  21.918  0.00  0.00    +0.000 S 
ATOM      9  C   UNL     1       7.155  16.009  20.430  0.00  0.00    +0.000 A 
ATOM     10  C   UNL     1       6.986  17.099  19.559  0.00  0.00    +0.000 A 
ATOM     11  C   UNL     1       7.710  17.136  18.382  0.00  0.00    +0.000 A 
ATOM     12  C   UNL     1       8.591  16.108  18.146  0.00  0.00    +0.000 A 
ATOM     13  N   UNL     1       8.807  15.077  18.968  0.00  0.00    +0.000 NA
ATOM     14  C   UNL     1       8.067  15.003  20.110  0.00  0.00    +0.000 A 
ENDROOT
BRANCH   4  15
ATOM     15  C   UNL     1       9.803  12.204  20.236  0.00  0.00    +0.000 A 
ATOM     16  C   UNL     1       9.448  11.665  18.991  0.00  0.00    +0.000 A 
ATOM     17  C   UNL     1      10.407  11.348  18.021  0.00  0.00    +0.000 A 
ATOM     18  C   UNL     1      11.758  11.464  18.314  0.00  0.00    +0.000 A 
ATOM     19  C   UNL     1      12.148  11.892  19.578  0.00  0.00    +0.000 A 
ATOM     20  C   UNL     1      11.182  12.273  20.517  0.00  0.00    +0.000 A 
ENDBRANCH   4  15
BRANCH  10  21
ATOM     21  O   UNL     1       6.113  18.126  19.813  0.00  0.00    +0.000 OA
ATOM     22  H   UNL     1       5.227  17.830  19.529  0.00  0.00    +0.000 HD
ENDBRANCH  10  21
BRANCH  12  23
ATOM     23  O   UNL     1       9.314  16.063  16.987  0.00  0.00    +0.000 OA
ATOM     24  H   UNL     1       8.710  16.203  16.244  0.00  0.00    +0.000 HD
ENDBRANCH  12  23
TORSDOF 3
ENDMDL
MODEL 7
REMARK VINA RESULT:      -6.3      3.191      6.006
REMARK  Name = 
REMARK  4 active torsions:
REMARK  status: ('A' for Active; 'I' for Inactive)
REMARK    1  A    between atoms: C_1  and  C_2
REMARK    2  A    between atoms: C_4  and  C_5
REMARK    3  A    between atoms: C_16  and  O_17
REMARK    4  A    between atoms: C_19  and  O_20
REMARK                            x       y       z     vdW  Elec       q    Type
REMARK                         _______ _______ _______ _____ _____    ______ ____
ROOT
ATOM      1  C   UNL     1       5.093   6.198  15.825  0.00  0.00    +0.000 C 
ATOM      2  C   UNL     1       4.141   6.594  16.918  0.00  0.00    +0.000 A 
ATOM      3  C   UNL     1       3.668   5.650  17.818  0.00  0.00    +0.000 A 
ATOM      4  C   UNL     1       2.736   6.002  18.818  0.00  0.00    +0.000 A 
ATOM      5  C   UNL     1       2.326   7.377  18.862  0.00  0.00    +0.000 A 
ATOM      6  C   UNL     1       2.903   8.216  17.910  0.00  0.00    +0.000 A 
ATOM      7  N   UNL     1       3.783   7.883  16.946  0.00  0.00    +0.000 NA
ATOM      8  S   UNL     1       2.404   9.837  18.013  0.00  0.00    +0.000 S 
ATOM      9  C   UNL     1       1.383   9.509  19.339  0.00  0.00    +0.000 A 
ATOM     10  C   UNL     1       0.575  10.399  20.067  0.00  0.00    +0.000 A 
ATOM     11  C   UNL     1      -0.165   9.916  21.132  0.00  0.00    +0.000 A 
ATOM     12  C   UNL     1      -0.090   8.570  21.397  0.00  0.00    +0.000 A 
ATOM     13  N   UNL     1       0.636   7.688  20.703  0.00  0.00    +0.000 NA
ATOM     14  C   UNL     1       1.404   8.157  19.680  0.00  0.00    +0.000 A 
ENDROOT
BRANCH   4  15
ATOM     15  C   UNL     1       2.200   4.959  19.727  0.00  0.00    +0.000 A 
ATOM     16  C   UNL     1       1.113   4.142  19.383  0.00  0.00    +0.000 A 
ATOM     17  C   UNL     1       0.705   3.074  20.192  0.00  0.00    +0.000 A 
ATOM     18  C   UNL     1       1.310   2.861  21.422  0.00  0.00    +0.000 A 
ATOM     19  C   UNL     1       2.319   3.720  21.844  0.00  0.00    +0.000 A 
ATOM     20  C   UNL     1       2.767   4.742  20.998  0.00  0.00    +0.000 A 
ENDBRANCH   4  15
BRANCH  10  21
ATOM     21  O   UNL     1       0.500  11.739  19.785  0.00  0.00    +0.000 OA
ATOM     22  H   UNL     1      -0.200  11.854  19.115  0.00  0.00    +0.000 HD
ENDBRANCH  10  21
BRANCH  12  23
ATOM     23  O   UNL     1      -0.768   8.030  22.454  0.00  0.00    +0.000 OA
ATOM     24  H   UNL     1      -1.621   8.481  22.531  0.00  0.00    +0.000 HD
ENDBRANCH  12  23
TORSDOF 3
ENDMDL
MODEL 8
REMARK VINA RESULT:      -6.2      8.562     10.660
REMARK  Name = 
REMARK  4 active torsions:
REMARK  status: ('A' for Active; 'I' for Inactive)
REMARK    1  A    between atoms: C_1  and  C_2
REMARK    2  A    between atoms: C_4  and  C_5
REMARK    3  A    between atoms: C_16  and  O_17
REMARK    4  A    between atoms: C_19  and  O_20
REMARK                            x       y       z     vdW  Elec       q    Type
REMARK                         _______ _______ _______ _____ _____    ______ ____
ROOT
ATOM      1  C   UNL     1      -3.069  10.060  14.453  0.00  0.00    +0.000 C 
ATOM      2  C   UNL     1      -3.237  10.667  15.816  0.00  0.00    +0.000 A 
ATOM      3  C   UNL     1      -2.152  10.799  16.669  0.00  0.00    +0.000 A 
ATOM      4  C   UNL     1      -2.308  11.323  17.970  0.00  0.00    +0.000 A 
ATOM      5  C   UNL     1      -3.634  11.723  18.349  0.00  0.00    +0.000 A 
ATOM      6  C   UNL     1      -4.622  11.554  17.380  0.00  0.00    +0.000 A 
ATOM      7  N   UNL     1      -4.480  11.043  16.142  0.00  0.00    +0.000 NA
ATOM      8  S   UNL     1      -6.171  12.060  17.864  0.00  0.00    +0.000 S 
ATOM      9  C   UNL     1      -5.608  12.534  19.403  0.00  0.00    +0.000 A 
ATOM     10  C   UNL     1      -6.328  13.110  20.463  0.00  0.00    +0.000 A 
ATOM     11  C   UNL     1      -5.660  13.439  21.629  0.00  0.00    +0.000 A 
ATOM     12  C   UNL     1      -4.319  13.147  21.694  0.00  0.00    +0.000 A 
ATOM     13  N   UNL     1      -3.610  12.565  20.723  0.00  0.00    +0.000 NA
ATOM     14  C   UNL     1      -4.245  12.277  19.552  0.00  0.00    +0.000 A 
ENDROOT
BRANCH   4  15
ATOM     15  C   UNL     1      -1.141  11.394  18.883  0.00  0.00    +0.000 A 
ATOM     16  C   UNL     1      -0.355  12.548  19.019  0.00  0.00    +0.000 A 
ATOM     17  C   UNL     1       0.657  12.645  19.981  0.00  0.00    +0.000 A 
ATOM     18  C   UNL     1       0.980  11.548  20.765  0.00  0.00    +0.000 A 
ATOM     19  C   UNL     1       0.294  10.352  20.582  0.00  0.00    +0.000 A 
ATOM     20  C   UNL     1      -0.762  10.285  19.666  0.00  0.00    +0.000 A 
ENDBRANCH   4  15
BRANCH  10  21
ATOM     21  O   UNL     1      -7.670  13.385  20.390  0.00  0.00    +0.000 OA
ATOM     22  H   UNL     1      -8.137  12.676  20.871  0.00  0.00    +0.000 HD
ENDBRANCH  10  21
BRANCH  12  23
ATOM     23  O   UNL     1      -3.589  13.474  22.803  0.00  0.00    +0.000 OA
ATOM     24  H   UNL     1      -3.568  14.439  22.880  0.00  0.00    +0.000 HD
ENDBRANCH  12  23
TORSDOF 3
ENDMDL
MODEL 9
REMARK VINA RESULT:      -6.2      8.647     10.746
REMARK  Name = 
REMARK  4 active torsions:
REMARK  status: ('A' for Active; 'I' for Inactive)
REMARK    1  A    between atoms: C_1  and  C_2
REMARK    2  A    between atoms: C_4  and  C_5
REMARK    3  A    between atoms: C_16  and  O_17
REMARK    4  A    between atoms: C_19  and  O_20
REMARK                            x       y       z     vdW  Elec       q    Type
REMARK                         _______ _______ _______ _____ _____    ______ ____
ROOT
ATOM      1  C   UNL     1      -3.060  10.062  14.481  0.00  0.00    +0.000 C 
ATOM      2  C   UNL     1      -3.263  10.682  15.834  0.00  0.00    +0.000 A 
ATOM      3  C   UNL     1      -2.187  10.885  16.686  0.00  0.00    +0.000 A 
ATOM      4  C   UNL     1      -2.373  11.422  17.978  0.00  0.00    +0.000 A 
ATOM      5  C   UNL     1      -3.719  11.759  18.348  0.00  0.00    +0.000 A 
ATOM      6  C   UNL     1      -4.695  11.523  17.381  0.00  0.00    +0.000 A 
ATOM      7  N   UNL     1      -4.524  10.999  16.152  0.00  0.00    +0.000 NA
ATOM      8  S   UNL     1      -6.268  11.955  17.855  0.00  0.00    +0.000 S 
ATOM      9  C   UNL     1      -5.734  12.483  19.386  0.00  0.00    +0.000 A 
ATOM     10  C   UNL     1      -6.485  13.039  20.436  0.00  0.00    +0.000 A 
ATOM     11  C   UNL     1      -5.837  13.422  21.597  0.00  0.00    +0.000 A 
ATOM     12  C   UNL     1      -4.483  13.201  21.668  0.00  0.00    +0.000 A 
ATOM     13  N   UNL     1      -3.743  12.641  20.708  0.00  0.00    +0.000 NA
ATOM     14  C   UNL     1      -4.360  12.300  19.541  0.00  0.00    +0.000 A 
ENDROOT
BRANCH   4  15
ATOM     15  C   UNL     1      -1.212  11.569  18.891  0.00  0.00    +0.000 A 
ATOM     16  C   UNL     1      -0.737  10.517  19.687  0.00  0.00    +0.000 A 
ATOM     17  C   UNL     1       0.438  10.631  20.439  0.00  0.00    +0.000 A 
ATOM     18  C   UNL     1       1.114  11.841  20.496  0.00  0.00    +0.000 A 
ATOM     19  C   UNL     1       0.610  12.937  19.805  0.00  0.00    +0.000 A 
ATOM     20  C   UNL     1      -0.527  12.795  19.001  0.00  0.00    +0.000 A 
ENDBRANCH   4  15
BRANCH  10  21
ATOM     21  O   UNL     1      -7.840  13.242  20.356  0.00  0.00    +0.000 OA
ATOM     22  H   UNL     1      -8.202  13.127  21.255  0.00  0.00    +0.000 HD
ENDBRANCH  10  21
BRANCH  12  23
ATOM     23  O   UNL     1      -3.773  13.585  22.771  0.00  0.00    +0.000 OA
ATOM     24  H   UNL     1      -3.952  14.522  22.939  0.00  0.00    +0.000 HD
ENDBRANCH  12  23
TORSDOF 3
ENDMDL
