MODEL 1
REMARK VINA RESULT:      -7.1      0.000      0.000
REMARK  Name = 
REMARK  6 active torsions:
REMARK  status: ('A' for Active; 'I' for Inactive)
REMARK    1  A    between atoms: C_1  and  C_2
REMARK    2  A    between atoms: C_6  and  C_7
REMARK    3  A    between atoms: N_9  and  C_10
REMARK    4  A    between atoms: C_10  and  C_11
REMARK    5  A    between atoms: C_16  and  C_17
REMARK    6  A    between atoms: C_18  and  C_19
REMARK                            x       y       z     vdW  Elec       q    Type
REMARK                         _______ _______ _______ _____ _____    ______ ____
ROOT
ATOM      1  C   UNL     1       3.628   2.195  18.191  0.00  0.00    +0.000 C 
ATOM      2  C   UNL     1       3.339   3.679  18.250  0.00  0.00    +0.000 A 
ATOM      3  C   UNL     1       2.291   4.200  19.021  0.00  0.00    +0.000 A 
ATOM      4 BR   UNL     1       1.134   3.125  20.082  0.00  0.00    +0.000 Br
ATOM      5  C   UNL     1       2.037   5.572  19.034  0.00  0.00    +0.000 A 
ATOM      6  C   UNL     1       2.807   6.471  18.281  0.00  0.00    +0.000 A 
ATOM      7  C   UNL     1       3.869   5.984  17.484  0.00  0.00    +0.000 A 
ATOM      8  C   UNL     1       4.701   6.876  16.596  0.00  0.00    +0.000 C 
ATOM      9  C   UNL     1       4.139   4.578  17.482  0.00  0.00    +0.000 A 
ATOM     10  C   UNL     1       5.256   3.990  16.639  0.00  0.00    +0.000 C 
ENDROOT
BRANCH   6  11
ATOM     11  C   UNL     1       2.321   7.884  18.357  0.00  0.00    +0.000 C 
ATOM     12  O   UNL     1       2.421   8.605  17.368  0.00  0.00    +0.000 OA
ATOM     13  N   UNL     1       1.717   8.313  19.518  0.00  0.00    +0.000 N 
ATOM     14  H   UNL     1       1.465   7.645  20.231  0.00  0.00    +0.000 HD
BRANCH  13  15
ATOM     15  C   UNL     1       1.162   9.645  19.619  0.00  0.00    +0.000 C 
BRANCH  15  16
ATOM     16  C   UNL     1       0.487   9.789  20.932  0.00  0.00    +0.000 A 
ATOM     17  C   UNL     1       0.214   8.905  21.957  0.00  0.00    +0.000 A 
ATOM     18  C   UNL     1      -0.475   9.648  22.945  0.00  0.00    +0.000 A 
ATOM     19  C   UNL     1      -0.573  10.933  22.463  0.00  0.00    +0.000 A 
ATOM     20  O   UNL     1       0.014  11.029  21.241  0.00  0.00    +0.000 OA
ENDBRANCH  15  16
ENDBRANCH  13  15
ENDBRANCH   6  11
TORSDOF 3
ENDMDL
MODEL 2
REMARK VINA RESULT:      -7.1      4.338      7.444
REMARK  Name = 
REMARK  6 active torsions:
REMARK  status: ('A' for Active; 'I' for Inactive)
REMARK    1  A    between atoms: C_1  and  C_2
REMARK    2  A    between atoms: C_6  and  C_7
REMARK    3  A    between atoms: N_9  and  C_10
REMARK    4  A    between atoms: C_10  and  C_11
REMARK    5  A    between atoms: C_16  and  C_17
REMARK    6  A    between atoms: C_18  and  C_19
REMARK                            x       y       z     vdW  Elec       q    Type
REMARK                         _______ _______ _______ _____ _____    ______ ____
ROOT
ATOM      1  C   UNL     1       0.478   4.428  20.376  0.00  0.00    +0.000 C 
ATOM      2  C   UNL     1       1.852   4.463  19.745  0.00  0.00    +0.000 A 
ATOM      3  C   UNL     1       2.626   5.630  19.714  0.00  0.00    +0.000 A 
ATOM      4 BR   UNL     1       2.057   7.284  20.463  0.00  0.00    +0.000 Br
ATOM      5  C   UNL     1       3.879   5.633  19.102  0.00  0.00    +0.000 A 
ATOM      6  C   UNL     1       4.406   4.481  18.497  0.00  0.00    +0.000 A 
ATOM      7  C   UNL     1       3.654   3.284  18.501  0.00  0.00    +0.000 A 
ATOM      8  C   UNL     1       4.120   2.023  17.816  0.00  0.00    +0.000 C 
ATOM      9  C   UNL     1       2.373   3.278  19.141  0.00  0.00    +0.000 A 
ATOM     10  C   UNL     1       1.511   2.029  19.170  0.00  0.00    +0.000 C 
ENDROOT
BRANCH   6  11
ATOM     11  C   UNL     1       5.719   4.711  17.818  0.00  0.00    +0.000 C 
ATOM     12  O   UNL     1       6.751   4.336  18.370  0.00  0.00    +0.000 OA
ATOM     13  N   UNL     1       5.725   5.279  16.563  0.00  0.00    +0.000 N 
ATOM     14  H   UNL     1       4.860   5.383  16.054  0.00  0.00    +0.000 HD
BRANCH  13  15
ATOM     15  C   UNL     1       6.960   5.454  15.832  0.00  0.00    +0.000 C 
BRANCH  15  16
ATOM     16  C   UNL     1       6.817   4.843  14.489  0.00  0.00    +0.000 A 
ATOM     17  C   UNL     1       5.993   3.860  13.979  0.00  0.00    +0.000 A 
ATOM     18  C   UNL     1       6.352   3.709  12.619  0.00  0.00    +0.000 A 
ATOM     19  C   UNL     1       7.365   4.610  12.385  0.00  0.00    +0.000 A 
ATOM     20  O   UNL     1       7.652   5.307  13.516  0.00  0.00    +0.000 OA
ENDBRANCH  15  16
ENDBRANCH  13  15
ENDBRANCH   6  11
TORSDOF 3
ENDMDL
MODEL 3
REMARK VINA RESULT:      -7.0      4.129      7.864
REMARK  Name = 
REMARK  6 active torsions:
REMARK  status: ('A' for Active; 'I' for Inactive)
REMARK    1  A    between atoms: C_1  and  C_2
REMARK    2  A    between atoms: C_6  and  C_7
REMARK    3  A    between atoms: N_9  and  C_10
REMARK    4  A    between atoms: C_10  and  C_11
REMARK    5  A    between atoms: C_16  and  C_17
REMARK    6  A    between atoms: C_18  and  C_19
REMARK                            x       y       z     vdW  Elec       q    Type
REMARK                         _______ _______ _______ _____ _____    ______ ____
ROOT
ATOM      1  C   UNL     1       2.275   4.941  20.785  0.00  0.00    +0.000 C 
ATOM      2  C   UNL     1       3.233   4.919  19.615  0.00  0.00    +0.000 A 
ATOM      3  C   UNL     1       4.046   3.811  19.342  0.00  0.00    +0.000 A 
ATOM      4 BR   UNL     1       4.033   2.219  20.384  0.00  0.00    +0.000 Br
ATOM      5  C   UNL     1       4.937   3.834  18.269  0.00  0.00    +0.000 A 
ATOM      6  C   UNL     1       5.055   4.955  17.433  0.00  0.00    +0.000 A 
ATOM      7  C   UNL     1       4.256   6.096  17.678  0.00  0.00    +0.000 A 
ATOM      8  C   UNL     1       4.370   7.364  16.868  0.00  0.00    +0.000 C 
ATOM      9  C   UNL     1       3.332   6.067  18.772  0.00  0.00    +0.000 A 
ATOM     10  C   UNL     1       2.456   7.263  19.097  0.00  0.00    +0.000 C 
ENDROOT
BRANCH   6  11
ATOM     11  C   UNL     1       6.125   4.818  16.397  0.00  0.00    +0.000 C 
ATOM     12  O   UNL     1       7.301   4.803  16.752  0.00  0.00    +0.000 OA
ATOM     13  N   UNL     1       5.755   4.649  15.081  0.00  0.00    +0.000 N 
ATOM     14  H   UNL     1       4.791   4.459  14.850  0.00  0.00    +0.000 HD
BRANCH  13  15
ATOM     15  C   UNL     1       6.747   4.437  14.051  0.00  0.00    +0.000 C 
BRANCH  15  16
ATOM     16  C   UNL     1       6.135   3.666  12.942  0.00  0.00    +0.000 A 
ATOM     17  C   UNL     1       6.640   2.772  12.020  0.00  0.00    +0.000 A 
ATOM     18  C   UNL     1       5.550   2.387  11.205  0.00  0.00    +0.000 A 
ATOM     19  C   UNL     1       4.452   3.065  11.682  0.00  0.00    +0.000 A 
ATOM     20  O   UNL     1       4.798   3.842  12.742  0.00  0.00    +0.000 OA
ENDBRANCH  15  16
ENDBRANCH  13  15
ENDBRANCH   6  11
TORSDOF 3
ENDMDL
MODEL 4
REMARK VINA RESULT:      -6.9      3.849      7.422
REMARK  Name = 
REMARK  6 active torsions:
REMARK  status: ('A' for Active; 'I' for Inactive)
REMARK    1  A    between atoms: C_1  and  C_2
REMARK    2  A    between atoms: C_6  and  C_7
REMARK    3  A    between atoms: N_9  and  C_10
REMARK    4  A    between atoms: C_10  and  C_11
REMARK    5  A    between atoms: C_16  and  C_17
REMARK    6  A    between atoms: C_18  and  C_19
REMARK                            x       y       z     vdW  Elec       q    Type
REMARK                         _______ _______ _______ _____ _____    ______ ____
ROOT
ATOM      1  C   UNL     1       0.966   4.327  20.750  0.00  0.00    +0.000 C 
ATOM      2  C   UNL     1       2.035   4.646  19.728  0.00  0.00    +0.000 A 
ATOM      3  C   UNL     1       2.462   5.958  19.486  0.00  0.00    +0.000 A 
ATOM      4 BR   UNL     1       1.771   7.473  20.409  0.00  0.00    +0.000 Br
ATOM      5  C   UNL     1       3.432   6.220  18.519  0.00  0.00    +0.000 A 
ATOM      6  C   UNL     1       4.009   5.192  17.757  0.00  0.00    +0.000 A 
ATOM      7  C   UNL     1       3.601   3.854  17.967  0.00  0.00    +0.000 A 
ATOM      8  C   UNL     1       4.123   2.702  17.145  0.00  0.00    +0.000 C 
ATOM      9  C   UNL     1       2.614   3.585  18.969  0.00  0.00    +0.000 A 
ATOM     10  C   UNL     1       2.124   2.173  19.234  0.00  0.00    +0.000 C 
ENDROOT
BRANCH   6  11
ATOM     11  C   UNL     1       4.961   5.684  16.714  0.00  0.00    +0.000 C 
ATOM     12  O   UNL     1       4.810   6.811  16.251  0.00  0.00    +0.000 OA
ATOM     13  N   UNL     1       6.019   4.879  16.351  0.00  0.00    +0.000 N 
ATOM     14  H   UNL     1       6.233   4.055  16.893  0.00  0.00    +0.000 HD
BRANCH  13  15
ATOM     15  C   UNL     1       7.010   5.336  15.403  0.00  0.00    +0.000 C 
BRANCH  15  16
ATOM     16  C   UNL     1       6.779   4.663  14.101  0.00  0.00    +0.000 A 
ATOM     17  C   UNL     1       5.865   3.722  13.671  0.00  0.00    +0.000 A 
ATOM     18  C   UNL     1       6.171   3.466  12.314  0.00  0.00    +0.000 A 
ATOM     19  C   UNL     1       7.245   4.267  12.002  0.00  0.00    +0.000 A 
ATOM     20  O   UNL     1       7.619   5.002  13.082  0.00  0.00    +0.000 OA
ENDBRANCH  15  16
ENDBRANCH  13  15
ENDBRANCH   6  11
TORSDOF 3
ENDMDL
MODEL 5
REMARK VINA RESULT:      -6.8      1.067      1.231
REMARK  Name = 
REMARK  6 active torsions:
REMARK  status: ('A' for Active; 'I' for Inactive)
REMARK    1  A    between atoms: C_1  and  C_2
REMARK    2  A    between atoms: C_6  and  C_7
REMARK    3  A    between atoms: N_9  and  C_10
REMARK    4  A    between atoms: C_10  and  C_11
REMARK    5  A    between atoms: C_16  and  C_17
REMARK    6  A    between atoms: C_18  and  C_19
REMARK                            x       y       z     vdW  Elec       q    Type
REMARK                         _______ _______ _______ _____ _____    ______ ____
ROOT
ATOM      1  C   UNL     1       4.382   2.603  19.605  0.00  0.00    +0.000 C 
ATOM      2  C   UNL     1       3.821   3.994  19.414  0.00  0.00    +0.000 A 
ATOM      3  C   UNL     1       2.698   4.445  20.120  0.00  0.00    +0.000 A 
ATOM      4 BR   UNL     1       1.768   3.385  21.398  0.00  0.00    +0.000 Br
ATOM      5  C   UNL     1       2.192   5.726  19.902  0.00  0.00    +0.000 A 
ATOM      6  C   UNL     1       2.777   6.602  18.973  0.00  0.00    +0.000 A 
ATOM      7  C   UNL     1       3.908   6.182  18.235  0.00  0.00    +0.000 A 
ATOM      8  C   UNL     1       4.554   7.036  17.173  0.00  0.00    +0.000 C 
ATOM      9  C   UNL     1       4.436   4.871  18.470  0.00  0.00    +0.000 A 
ATOM     10  C   UNL     1       5.639   4.356  17.701  0.00  0.00    +0.000 C 
ENDROOT
BRANCH   6  11
ATOM     11  C   UNL     1       2.036   7.891  18.819  0.00  0.00    +0.000 C 
ATOM     12  O   UNL     1       1.789   8.307  17.690  0.00  0.00    +0.000 OA
ATOM     13  N   UNL     1       1.597   8.542  19.952  0.00  0.00    +0.000 N 
ATOM     14  H   UNL     1       1.633   8.075  20.846  0.00  0.00    +0.000 HD
BRANCH  13  15
ATOM     15  C   UNL     1       0.812   9.752  19.857  0.00  0.00    +0.000 C 
BRANCH  15  16
ATOM     16  C   UNL     1       0.186  10.026  21.173  0.00  0.00    +0.000 A 
ATOM     17  C   UNL     1      -0.466  11.123  21.700  0.00  0.00    +0.000 A 
ATOM     18  C   UNL     1      -0.822  10.772  23.024  0.00  0.00    +0.000 A 
ATOM     19  C   UNL     1      -0.370   9.487  23.217  0.00  0.00    +0.000 A 
ATOM     20  O   UNL     1       0.240   9.024  22.095  0.00  0.00    +0.000 OA
ENDBRANCH  15  16
ENDBRANCH  13  15
ENDBRANCH   6  11
TORSDOF 3
ENDMDL
MODEL 6
REMARK VINA RESULT:      -6.8      3.838      7.899
REMARK  Name = 
REMARK  6 active torsions:
REMARK  status: ('A' for Active; 'I' for Inactive)
REMARK    1  A    between atoms: C_1  and  C_2
REMARK    2  A    between atoms: C_6  and  C_7
REMARK    3  A    between atoms: N_9  and  C_10
REMARK    4  A    between atoms: C_10  and  C_11
REMARK    5  A    between atoms: C_16  and  C_17
REMARK    6  A    between atoms: C_18  and  C_19
REMARK                            x       y       z     vdW  Elec       q    Type
REMARK                         _______ _______ _______ _____ _____    ______ ____
ROOT
ATOM      1  C   UNL     1       2.225   3.825  20.714  0.00  0.00    +0.000 C 
ATOM      2  C   UNL     1       2.932   4.234  19.441  0.00  0.00    +0.000 A 
ATOM      3  C   UNL     1       3.588   3.304  18.624  0.00  0.00    +0.000 A 
ATOM      4 BR   UNL     1       3.653   1.440  19.001  0.00  0.00    +0.000 Br
ATOM      5  C   UNL     1       4.251   3.719  17.470  0.00  0.00    +0.000 A 
ATOM      6  C   UNL     1       4.292   5.069  17.089  0.00  0.00    +0.000 A 
ATOM      7  C   UNL     1       3.649   6.040  17.891  0.00  0.00    +0.000 A 
ATOM      8  C   UNL     1       3.702   7.517  17.586  0.00  0.00    +0.000 C 
ATOM      9  C   UNL     1       2.956   5.612  19.068  0.00  0.00    +0.000 A 
ATOM     10  C   UNL     1       2.256   6.605  19.977  0.00  0.00    +0.000 C 
ENDROOT
BRANCH   6  11
ATOM     11  C   UNL     1       5.127   5.322  15.874  0.00  0.00    +0.000 C 
ATOM     12  O   UNL     1       5.531   6.461  15.653  0.00  0.00    +0.000 OA
ATOM     13  N   UNL     1       5.470   4.255  15.073  0.00  0.00    +0.000 N 
ATOM     14  H   UNL     1       5.300   3.312  15.391  0.00  0.00    +0.000 HD
BRANCH  13  15
ATOM     15  C   UNL     1       6.336   4.432  13.929  0.00  0.00    +0.000 C 
BRANCH  15  16
ATOM     16  C   UNL     1       5.821   3.617  12.803  0.00  0.00    +0.000 A 
ATOM     17  C   UNL     1       4.619   3.593  12.125  0.00  0.00    +0.000 A 
ATOM     18  C   UNL     1       4.734   2.572  11.152  0.00  0.00    +0.000 A 
ATOM     19  C   UNL     1       5.996   2.043  11.295  0.00  0.00    +0.000 A 
ATOM     20  O   UNL     1       6.666   2.676  12.294  0.00  0.00    +0.000 OA
ENDBRANCH  15  16
ENDBRANCH  13  15
ENDBRANCH   6  11
TORSDOF 3
ENDMDL
MODEL 7
REMARK VINA RESULT:      -6.7      3.597      7.290
REMARK  Name = 
REMARK  6 active torsions:
REMARK  status: ('A' for Active; 'I' for Inactive)
REMARK    1  A    between atoms: C_1  and  C_2
REMARK    2  A    between atoms: C_6  and  C_7
REMARK    3  A    between atoms: N_9  and  C_10
REMARK    4  A    between atoms: C_10  and  C_11
REMARK    5  A    between atoms: C_16  and  C_17
REMARK    6  A    between atoms: C_18  and  C_19
REMARK                            x       y       z     vdW  Elec       q    Type
REMARK                         _______ _______ _______ _____ _____    ______ ____
ROOT
ATOM      1  C   UNL     1       2.174   3.094  21.539  0.00  0.00    +0.000 C 
ATOM      2  C   UNL     1       2.884   3.744  20.373  0.00  0.00    +0.000 A 
ATOM      3  C   UNL     1       4.002   3.159  19.764  0.00  0.00    +0.000 A 
ATOM      4 BR   UNL     1       4.742   1.494  20.311  0.00  0.00    +0.000 Br
ATOM      5  C   UNL     1       4.648   3.799  18.706  0.00  0.00    +0.000 A 
ATOM      6  C   UNL     1       4.211   5.040  18.218  0.00  0.00    +0.000 A 
ATOM      7  C   UNL     1       3.090   5.667  18.810  0.00  0.00    +0.000 A 
ATOM      8  C   UNL     1       2.599   7.030  18.389  0.00  0.00    +0.000 C 
ATOM      9  C   UNL     1       2.419   5.004  19.887  0.00  0.00    +0.000 A 
ATOM     10  C   UNL     1       1.218   5.630  20.573  0.00  0.00    +0.000 C 
ENDROOT
BRANCH   6  11
ATOM     11  C   UNL     1       5.087   5.602  17.144  0.00  0.00    +0.000 C 
ATOM     12  O   UNL     1       4.824   6.706  16.674  0.00  0.00    +0.000 OA
ATOM     13  N   UNL     1       6.201   4.889  16.759  0.00  0.00    +0.000 N 
ATOM     14  H   UNL     1       6.502   4.094  17.302  0.00  0.00    +0.000 HD
BRANCH  13  15
ATOM     15  C   UNL     1       7.121   5.420  15.779  0.00  0.00    +0.000 C 
BRANCH  15  16
ATOM     16  C   UNL     1       6.841   4.794  14.464  0.00  0.00    +0.000 A 
ATOM     17  C   UNL     1       5.938   3.838  14.045  0.00  0.00    +0.000 A 
ATOM     18  C   UNL     1       6.174   3.651  12.662  0.00  0.00    +0.000 A 
ATOM     19  C   UNL     1       7.199   4.505  12.326  0.00  0.00    +0.000 A 
ATOM     20  O   UNL     1       7.607   5.208  13.415  0.00  0.00    +0.000 OA
ENDBRANCH  15  16
ENDBRANCH  13  15
ENDBRANCH   6  11
TORSDOF 3
ENDMDL
MODEL 8
REMARK VINA RESULT:      -6.7      2.905      6.871
REMARK  Name = 
REMARK  6 active torsions:
REMARK  status: ('A' for Active; 'I' for Inactive)
REMARK    1  A    between atoms: C_1  and  C_2
REMARK    2  A    between atoms: C_6  and  C_7
REMARK    3  A    between atoms: N_9  and  C_10
REMARK    4  A    between atoms: C_10  and  C_11
REMARK    5  A    between atoms: C_16  and  C_17
REMARK    6  A    between atoms: C_18  and  C_19
REMARK                            x       y       z     vdW  Elec       q    Type
REMARK                         _______ _______ _______ _____ _____    ______ ____
ROOT
ATOM      1  C   UNL     1       0.279  11.359  20.556  0.00  0.00    +0.000 C 
ATOM      2  C   UNL     1       0.840   9.976  20.310  0.00  0.00    +0.000 A 
ATOM      3  C   UNL     1       0.813   8.978  21.292  0.00  0.00    +0.000 A 
ATOM      4 BR   UNL     1       0.063   9.231  23.023  0.00  0.00    +0.000 Br
ATOM      5  C   UNL     1       1.362   7.721  21.040  0.00  0.00    +0.000 A 
ATOM      6  C   UNL     1       1.960   7.411  19.809  0.00  0.00    +0.000 A 
ATOM      7  C   UNL     1       2.014   8.394  18.793  0.00  0.00    +0.000 A 
ATOM      8  C   UNL     1       2.698   8.163  17.468  0.00  0.00    +0.000 C 
ATOM      9  C   UNL     1       1.439   9.680  19.047  0.00  0.00    +0.000 A 
ATOM     10  C   UNL     1       1.475  10.781  18.004  0.00  0.00    +0.000 C 
ENDROOT
BRANCH   6  11
ATOM     11  C   UNL     1       2.568   6.046  19.766  0.00  0.00    +0.000 C 
ATOM     12  O   UNL     1       1.831   5.063  19.767  0.00  0.00    +0.000 OA
ATOM     13  N   UNL     1       3.938   5.934  19.663  0.00  0.00    +0.000 N 
ATOM     14  H   UNL     1       4.495   6.750  19.457  0.00  0.00    +0.000 HD
BRANCH  13  15
ATOM     15  C   UNL     1       4.571   4.640  19.543  0.00  0.00    +0.000 C 
BRANCH  15  16
ATOM     16  C   UNL     1       5.515   4.669  18.400  0.00  0.00    +0.000 A 
ATOM     17  C   UNL     1       5.358   4.900  17.048  0.00  0.00    +0.000 A 
ATOM     18  C   UNL     1       6.644   4.772  16.473  0.00  0.00    +0.000 A 
ATOM     19  C   UNL     1       7.502   4.476  17.507  0.00  0.00    +0.000 A 
ATOM     20  O   UNL     1       6.825   4.416  18.684  0.00  0.00    +0.000 OA
ENDBRANCH  15  16
ENDBRANCH  13  15
ENDBRANCH   6  11
TORSDOF 3
ENDMDL
MODEL 9
REMARK VINA RESULT:      -6.7      3.050      6.645
REMARK  Name = 
REMARK  6 active torsions:
REMARK  status: ('A' for Active; 'I' for Inactive)
REMARK    1  A    between atoms: C_1  and  C_2
REMARK    2  A    between atoms: C_6  and  C_7
REMARK    3  A    between atoms: N_9  and  C_10
REMARK    4  A    between atoms: C_10  and  C_11
REMARK    5  A    between atoms: C_16  and  C_17
REMARK    6  A    between atoms: C_18  and  C_19
REMARK                            x       y       z     vdW  Elec       q    Type
REMARK                         _______ _______ _______ _____ _____    ______ ____
ROOT
ATOM      1  C   UNL     1       0.277  11.367  20.225  0.00  0.00    +0.000 C 
ATOM      2  C   UNL     1       0.767   9.937  20.201  0.00  0.00    +0.000 A 
ATOM      3  C   UNL     1       0.587   9.071  21.288  0.00  0.00    +0.000 A 
ATOM      4 BR   UNL     1      -0.297   9.578  22.895  0.00  0.00    +0.000 Br
ATOM      5  C   UNL     1       1.074   7.765  21.241  0.00  0.00    +0.000 A 
ATOM      6  C   UNL     1       1.759   7.274  20.119  0.00  0.00    +0.000 A 
ATOM      7  C   UNL     1       1.968   8.117  19.004  0.00  0.00    +0.000 A 
ATOM      8  C   UNL     1       2.751   7.687  17.788  0.00  0.00    +0.000 C 
ATOM      9  C   UNL     1       1.456   9.454  19.046  0.00  0.00    +0.000 A 
ATOM     10  C   UNL     1       1.657  10.414  17.888  0.00  0.00    +0.000 C 
ENDROOT
BRANCH   6  11
ATOM     11  C   UNL     1       2.279   5.883  20.299  0.00  0.00    +0.000 C 
ATOM     12  O   UNL     1       3.476   5.666  20.133  0.00  0.00    +0.000 OA
ATOM     13  N   UNL     1       1.406   4.898  20.708  0.00  0.00    +0.000 N 
ATOM     14  H   UNL     1       0.484   5.146  21.033  0.00  0.00    +0.000 HD
BRANCH  13  15
ATOM     15  C   UNL     1       1.871   3.554  20.968  0.00  0.00    +0.000 C 
BRANCH  15  16
ATOM     16  C   UNL     1       2.232   2.910  19.683  0.00  0.00    +0.000 A 
ATOM     17  C   UNL     1       1.615   2.848  18.449  0.00  0.00    +0.000 A 
ATOM     18  C   UNL     1       2.456   2.064  17.625  0.00  0.00    +0.000 A 
ATOM     19  C   UNL     1       3.531   1.702  18.404  0.00  0.00    +0.000 A 
ATOM     20  O   UNL     1       3.405   2.217  19.656  0.00  0.00    +0.000 OA
ENDBRANCH  15  16
ENDBRANCH  13  15
ENDBRANCH   6  11
TORSDOF 3
ENDMDL
