MODEL 1
REMARK VINA RESULT:      -8.6      0.000      0.000
REMARK  Name = 
REMARK  15 active torsions:
REMARK  status: ('A' for Active; 'I' for Inactive)
REMARK    1  A    between atoms: C_1  and  C_2
REMARK    2  A    between atoms: C_2  and  C_3
REMARK    3  A    between atoms: C_3  and  O_4
REMARK    4  A    between atoms: O_4  and  C_5
REMARK    5  A    between atoms: C_8  and  C_9
REMARK    6  A    between atoms: C_9  and  C_10
REMARK    7  A    between atoms: C_17  and  C_18
REMARK    8  A    between atoms: C_18  and  N_19
REMARK    9  A    between atoms: C_20  and  C_22
REMARK   10  A    between atoms: C_22  and  N_23
REMARK   11  A    between atoms: C_22  and  C_24
REMARK   12  A    between atoms: C_24  and  C_25
REMARK   13  A    between atoms: C_26  and  C_27
REMARK   14  A    between atoms: C_29  and  O_30
REMARK   15  A    between atoms: C_32  and  C_33
REMARK                            x       y       z     vdW  Elec       q    Type
REMARK                         _______ _______ _______ _____ _____    ______ ____
ROOT
ATOM      1  N   UNL     1       0.861  10.088  18.210  0.00  0.00    +0.000 N 
ATOM      2  C   UNL     1       0.822  11.374  18.709  0.00  0.00    +0.000 C 
ATOM      3  O   UNL     1       1.838  12.039  18.912  0.00  0.00    +0.000 OA
ATOM      4  H   UNL     1       0.007   9.580  18.048  0.00  0.00    +0.000 HD
ENDROOT
BRANCH   1   5
ATOM      5  C   UNL     1       2.103   9.361  18.018  0.00  0.00    +0.000 C 
BRANCH   5  11
ATOM      6  C   UNL     1       1.764   7.799  20.038  0.00  0.00    +0.000 A 
ATOM      7  C   UNL     1       1.816   6.491  20.560  0.00  0.00    +0.000 A 
ATOM      8  C   UNL     1       2.237   5.413  19.794  0.00  0.00    +0.000 A 
ATOM      9  C   UNL     1       2.605   5.596  18.467  0.00  0.00    +0.000 A 
ATOM     10  C   UNL     1       2.524   6.886  17.919  0.00  0.00    +0.000 A 
ATOM     11  C   UNL     1       2.115   8.002  18.694  0.00  0.00    +0.000 A 
BRANCH   6  12
ATOM     12  O   UNL     1       1.407   8.891  20.813  0.00  0.00    +0.000 OA
BRANCH  12  13
ATOM     13  C   UNL     1       0.158   8.714  21.498  0.00  0.00    +0.000 C 
BRANCH  13  15
ATOM     14  C   UNL     1      -0.778  10.705  22.645  0.00  0.00    +0.000 C 
ATOM     15  C   UNL     1       0.069   9.448  22.830  0.00  0.00    +0.000 C 
ENDBRANCH  13  15
ENDBRANCH  12  13
ENDBRANCH   6  12
BRANCH   9  16
ATOM     16  C   UNL     1       3.095   4.416  17.667  0.00  0.00    +0.000 C 
BRANCH  16  17
ATOM     17  C   UNL     1       4.574   4.452  17.362  0.00  0.00    +0.000 A 
ATOM     18  C   UNL     1       5.050   4.251  16.057  0.00  0.00    +0.000 A 
ATOM     19  C   UNL     1       6.416   4.341  15.779  0.00  0.00    +0.000 A 
ATOM     20  C   UNL     1       7.319   4.625  16.802  0.00  0.00    +0.000 A 
ATOM     21  C   UNL     1       6.859   4.790  18.107  0.00  0.00    +0.000 A 
ATOM     22  C   UNL     1       5.496   4.697  18.387  0.00  0.00    +0.000 A 
ENDBRANCH  16  17
ENDBRANCH   9  16
ENDBRANCH   5  11
ENDBRANCH   1   5
BRANCH   2  23
ATOM     23  C   UNL     1      -0.583  12.009  18.849  0.00  0.00    +0.000 C 
BRANCH  23  24
ATOM     24  N   UNL     1      -0.790  12.953  17.714  0.00  0.00    +0.000 NA
ATOM     25  H   UNL     1      -0.681  13.909  18.054  0.00  0.00    +0.000 HD
ATOM     26  H   UNL     1      -1.772  12.887  17.436  0.00  0.00    +0.000 HD
ENDBRANCH  23  24
BRANCH  23  27
ATOM     27  C   UNL     1      -1.783  11.041  18.936  0.00  0.00    +0.000 C 
BRANCH  27  28
ATOM     28  C   UNL     1      -3.191  11.439  18.486  0.00  0.00    +0.000 A 
ATOM     29  C   UNL     1      -4.092  12.222  19.251  0.00  0.00    +0.000 A 
ATOM     30  C   UNL     1      -3.778  12.943  20.535  0.00  0.00    +0.000 C 
ATOM     31  C   UNL     1      -5.394  12.480  18.760  0.00  0.00    +0.000 A 
ATOM     32  C   UNL     1      -5.777  12.070  17.497  0.00  0.00    +0.000 A 
ATOM     33  C   UNL     1      -4.877  11.413  16.683  0.00  0.00    +0.000 A 
ATOM     34  C   UNL     1      -3.585  11.109  17.149  0.00  0.00    +0.000 A 
ATOM     35  C   UNL     1      -2.640  10.476  16.154  0.00  0.00    +0.000 C 
BRANCH  32  36
ATOM     36  O   UNL     1      -7.015  12.342  16.999  0.00  0.00    +0.000 OA
ATOM     37  H   UNL     1      -7.408  13.056  17.526  0.00  0.00    +0.000 HD
ENDBRANCH  32  36
ENDBRANCH  27  28
ENDBRANCH  23  27
ENDBRANCH   2  23
TORSDOF 12
ENDMDL
MODEL 2
REMARK VINA RESULT:      -7.9      2.718      4.707
REMARK  Name = 
REMARK  15 active torsions:
REMARK  status: ('A' for Active; 'I' for Inactive)
REMARK    1  A    between atoms: C_1  and  C_2
REMARK    2  A    between atoms: C_2  and  C_3
REMARK    3  A    between atoms: C_3  and  O_4
REMARK    4  A    between atoms: O_4  and  C_5
REMARK    5  A    between atoms: C_8  and  C_9
REMARK    6  A    between atoms: C_9  and  C_10
REMARK    7  A    between atoms: C_17  and  C_18
REMARK    8  A    between atoms: C_18  and  N_19
REMARK    9  A    between atoms: C_20  and  C_22
REMARK   10  A    between atoms: C_22  and  N_23
REMARK   11  A    between atoms: C_22  and  C_24
REMARK   12  A    between atoms: C_24  and  C_25
REMARK   13  A    between atoms: C_26  and  C_27
REMARK   14  A    between atoms: C_29  and  O_30
REMARK   15  A    between atoms: C_32  and  C_33
REMARK                            x       y       z     vdW  Elec       q    Type
REMARK                         _______ _______ _______ _____ _____    ______ ____
ROOT
ATOM      1  N   UNL     1       2.499   8.036  18.746  0.00  0.00    +0.000 N 
ATOM      2  C   UNL     1       1.441   8.913  18.869  0.00  0.00    +0.000 C 
ATOM      3  O   UNL     1       0.890   9.429  17.896  0.00  0.00    +0.000 OA
ATOM      4  H   UNL     1       2.916   7.625  19.565  0.00  0.00    +0.000 HD
ENDROOT
BRANCH   1   5
ATOM      5  C   UNL     1       3.143   7.759  17.474  0.00  0.00    +0.000 C 
BRANCH   5  11
ATOM      6  C   UNL     1       3.219   5.240  18.001  0.00  0.00    +0.000 A 
ATOM      7  C   UNL     1       3.901   4.013  17.877  0.00  0.00    +0.000 A 
ATOM      8  C   UNL     1       5.120   3.915  17.221  0.00  0.00    +0.000 A 
ATOM      9  C   UNL     1       5.698   5.039  16.642  0.00  0.00    +0.000 A 
ATOM     10  C   UNL     1       5.015   6.262  16.722  0.00  0.00    +0.000 A 
ATOM     11  C   UNL     1       3.778   6.383  17.408  0.00  0.00    +0.000 A 
BRANCH   6  12
ATOM     12  O   UNL     1       2.034   5.359  18.709  0.00  0.00    +0.000 OA
BRANCH  12  13
ATOM     13  C   UNL     1       1.477   4.094  19.098  0.00  0.00    +0.000 C 
BRANCH  13  15
ATOM     14  C   UNL     1       1.633   2.906  21.270  0.00  0.00    +0.000 C 
ATOM     15  C   UNL     1       0.956   4.057  20.527  0.00  0.00    +0.000 C 
ENDBRANCH  13  15
ENDBRANCH  12  13
ENDBRANCH   6  12
BRANCH   9  16
ATOM     16  C   UNL     1       7.040   4.914  15.968  0.00  0.00    +0.000 C 
BRANCH  16  17
ATOM     17  C   UNL     1       6.959   4.664  14.480  0.00  0.00    +0.000 A 
ATOM     18  C   UNL     1       7.788   5.356  13.583  0.00  0.00    +0.000 A 
ATOM     19  C   UNL     1       7.741   5.074  12.215  0.00  0.00    +0.000 A 
ATOM     20  C   UNL     1       6.862   4.108  11.731  0.00  0.00    +0.000 A 
ATOM     21  C   UNL     1       6.010   3.442  12.610  0.00  0.00    +0.000 A 
ATOM     22  C   UNL     1       6.053   3.724  13.975  0.00  0.00    +0.000 A 
ENDBRANCH  16  17
ENDBRANCH   9  16
ENDBRANCH   5  11
ENDBRANCH   1   5
BRANCH   2  23
ATOM     23  C   UNL     1       0.865   9.093  20.294  0.00  0.00    +0.000 C 
BRANCH  23  24
ATOM     24  N   UNL     1       1.583   8.164  21.214  0.00  0.00    +0.000 NA
ATOM     25  H   UNL     1       1.669   7.252  20.761  0.00  0.00    +0.000 HD
ATOM     26  H   UNL     1       0.973   7.997  22.018  0.00  0.00    +0.000 HD
ENDBRANCH  23  24
BRANCH  23  27
ATOM     27  C   UNL     1       0.890  10.519  20.885  0.00  0.00    +0.000 C 
BRANCH  27  28
ATOM     28  C   UNL     1      -0.385  11.257  21.300  0.00  0.00    +0.000 A 
ATOM     29  C   UNL     1      -1.133  12.114  20.454  0.00  0.00    +0.000 A 
ATOM     30  C   UNL     1      -0.925  12.311  18.976  0.00  0.00    +0.000 C 
ATOM     31  C   UNL     1      -2.266  12.793  20.961  0.00  0.00    +0.000 A 
ATOM     32  C   UNL     1      -2.725  12.560  22.244  0.00  0.00    +0.000 A 
ATOM     33  C   UNL     1      -2.087  11.637  23.047  0.00  0.00    +0.000 A 
ATOM     34  C   UNL     1      -0.937  10.968  22.589  0.00  0.00    +0.000 A 
ATOM     35  C   UNL     1      -0.366   9.906  23.500  0.00  0.00    +0.000 C 
BRANCH  32  36
ATOM     36  O   UNL     1      -3.834  13.181  22.733  0.00  0.00    +0.000 OA
ATOM     37  H   UNL     1      -3.667  14.137  22.756  0.00  0.00    +0.000 HD
ENDBRANCH  32  36
ENDBRANCH  27  28
ENDBRANCH  23  27
ENDBRANCH   2  23
TORSDOF 12
ENDMDL
MODEL 3
REMARK VINA RESULT:      -7.6      3.078      5.517
REMARK  Name = 
REMARK  15 active torsions:
REMARK  status: ('A' for Active; 'I' for Inactive)
REMARK    1  A    between atoms: C_1  and  C_2
REMARK    2  A    between atoms: C_2  and  C_3
REMARK    3  A    between atoms: C_3  and  O_4
REMARK    4  A    between atoms: O_4  and  C_5
REMARK    5  A    between atoms: C_8  and  C_9
REMARK    6  A    between atoms: C_9  and  C_10
REMARK    7  A    between atoms: C_17  and  C_18
REMARK    8  A    between atoms: C_18  and  N_19
REMARK    9  A    between atoms: C_20  and  C_22
REMARK   10  A    between atoms: C_22  and  N_23
REMARK   11  A    between atoms: C_22  and  C_24
REMARK   12  A    between atoms: C_24  and  C_25
REMARK   13  A    between atoms: C_26  and  C_27
REMARK   14  A    between atoms: C_29  and  O_30
REMARK   15  A    between atoms: C_32  and  C_33
REMARK                            x       y       z     vdW  Elec       q    Type
REMARK                         _______ _______ _______ _____ _____    ______ ____
ROOT
ATOM      1  N   UNL     1       3.060   7.945  18.426  0.00  0.00    +0.000 N 
ATOM      2  C   UNL     1       1.930   8.737  18.425  0.00  0.00    +0.000 C 
ATOM      3  O   UNL     1       1.467   9.233  17.398  0.00  0.00    +0.000 OA
ATOM      4  H   UNL     1       3.401   7.548  19.286  0.00  0.00    +0.000 HD
ENDROOT
BRANCH   1   5
ATOM      5  C   UNL     1       3.879   7.749  17.243  0.00  0.00    +0.000 C 
BRANCH   5  11
ATOM      6  C   UNL     1       5.943   6.247  16.901  0.00  0.00    +0.000 A 
ATOM      7  C   UNL     1       6.490   4.949  16.903  0.00  0.00    +0.000 A 
ATOM      8  C   UNL     1       5.716   3.828  17.171  0.00  0.00    +0.000 A 
ATOM      9  C   UNL     1       4.365   3.963  17.468  0.00  0.00    +0.000 A 
ATOM     10  C   UNL     1       3.811   5.251  17.507  0.00  0.00    +0.000 A 
ATOM     11  C   UNL     1       4.584   6.405  17.215  0.00  0.00    +0.000 A 
BRANCH   6  12
ATOM     12  O   UNL     1       6.693   7.365  16.571  0.00  0.00    +0.000 OA
BRANCH  12  13
ATOM     13  C   UNL     1       7.667   7.707  17.568  0.00  0.00    +0.000 C 
BRANCH  13  15
ATOM     14  C   UNL     1       8.991   9.442  18.748  0.00  0.00    +0.000 C 
ATOM     15  C   UNL     1       7.804   9.203  17.815  0.00  0.00    +0.000 C 
ENDBRANCH  13  15
ENDBRANCH  12  13
ENDBRANCH   6  12
BRANCH   9  16
ATOM     16  C   UNL     1       3.538   2.728  17.718  0.00  0.00    +0.000 C 
BRANCH  16  17
ATOM     17  C   UNL     1       2.767   2.757  19.017  0.00  0.00    +0.000 A 
ATOM     18  C   UNL     1       1.373   2.916  19.029  0.00  0.00    +0.000 A 
ATOM     19  C   UNL     1       0.667   2.886  20.234  0.00  0.00    +0.000 A 
ATOM     20  C   UNL     1       1.346   2.706  21.437  0.00  0.00    +0.000 A 
ATOM     21  C   UNL     1       2.735   2.585  21.438  0.00  0.00    +0.000 A 
ATOM     22  C   UNL     1       3.442   2.618  20.237  0.00  0.00    +0.000 A 
ENDBRANCH  16  17
ENDBRANCH   9  16
ENDBRANCH   5  11
ENDBRANCH   1   5
BRANCH   2  23
ATOM     23  C   UNL     1       1.167   8.838  19.768  0.00  0.00    +0.000 C 
BRANCH  23  24
ATOM     24  N   UNL     1       1.626   7.732  20.657  0.00  0.00    +0.000 NA
ATOM     25  H   UNL     1       1.022   6.921  20.514  0.00  0.00    +0.000 HD
ATOM     26  H   UNL     1       1.449   8.020  21.622  0.00  0.00    +0.000 HD
ENDBRANCH  23  24
BRANCH  23  27
ATOM     27  C   UNL     1       1.262  10.179  20.529  0.00  0.00    +0.000 C 
BRANCH  27  28
ATOM     28  C   UNL     1       0.055  10.816  21.221  0.00  0.00    +0.000 A 
ATOM     29  C   UNL     1      -0.427  10.449  22.503  0.00  0.00    +0.000 A 
ATOM     30  C   UNL     1       0.248   9.520  23.477  0.00  0.00    +0.000 C 
ATOM     31  C   UNL     1      -1.590  11.065  23.022  0.00  0.00    +0.000 A 
ATOM     32  C   UNL     1      -2.216  12.096  22.346  0.00  0.00    +0.000 A 
ATOM     33  C   UNL     1      -1.695  12.556  21.154  0.00  0.00    +0.000 A 
ATOM     34  C   UNL     1      -0.560  11.945  20.591  0.00  0.00    +0.000 A 
ATOM     35  C   UNL     1      -0.006  12.579  19.336  0.00  0.00    +0.000 C 
BRANCH  32  36
ATOM     36  O   UNL     1      -3.316  12.720  22.851  0.00  0.00    +0.000 OA
ATOM     37  H   UNL     1      -3.024  13.396  23.484  0.00  0.00    +0.000 HD
ENDBRANCH  32  36
ENDBRANCH  27  28
ENDBRANCH  23  27
ENDBRANCH   2  23
TORSDOF 12
ENDMDL
MODEL 4
REMARK VINA RESULT:      -7.6      1.923      3.444
REMARK  Name = 
REMARK  15 active torsions:
REMARK  status: ('A' for Active; 'I' for Inactive)
REMARK    1  A    between atoms: C_1  and  C_2
REMARK    2  A    between atoms: C_2  and  C_3
REMARK    3  A    between atoms: C_3  and  O_4
REMARK    4  A    between atoms: O_4  and  C_5
REMARK    5  A    between atoms: C_8  and  C_9
REMARK    6  A    between atoms: C_9  and  C_10
REMARK    7  A    between atoms: C_17  and  C_18
REMARK    8  A    between atoms: C_18  and  N_19
REMARK    9  A    between atoms: C_20  and  C_22
REMARK   10  A    between atoms: C_22  and  N_23
REMARK   11  A    between atoms: C_22  and  C_24
REMARK   12  A    between atoms: C_24  and  C_25
REMARK   13  A    between atoms: C_26  and  C_27
REMARK   14  A    between atoms: C_29  and  O_30
REMARK   15  A    between atoms: C_32  and  C_33
REMARK                            x       y       z     vdW  Elec       q    Type
REMARK                         _______ _______ _______ _____ _____    ______ ____
ROOT
ATOM      1  N   UNL     1       1.058   8.453  20.972  0.00  0.00    +0.000 N 
ATOM      2  C   UNL     1      -0.108   9.018  21.449  0.00  0.00    +0.000 C 
ATOM      3  O   UNL     1      -0.862   8.429  22.224  0.00  0.00    +0.000 OA
ATOM      4  H   UNL     1       1.654   8.971  20.348  0.00  0.00    +0.000 HD
ENDROOT
BRANCH   1   5
ATOM      5  C   UNL     1       1.419   7.070  21.228  0.00  0.00    +0.000 C 
BRANCH   5  11
ATOM      6  C   UNL     1       1.498   5.024  19.666  0.00  0.00    +0.000 A 
ATOM      7  C   UNL     1       2.005   4.438  18.489  0.00  0.00    +0.000 A 
ATOM      8  C   UNL     1       2.904   5.104  17.668  0.00  0.00    +0.000 A 
ATOM      9  C   UNL     1       3.318   6.392  17.979  0.00  0.00    +0.000 A 
ATOM     10  C   UNL     1       2.795   7.007  19.127  0.00  0.00    +0.000 A 
ATOM     11  C   UNL     1       1.891   6.333  19.989  0.00  0.00    +0.000 A 
BRANCH   6  12
ATOM     12  O   UNL     1       0.652   4.343  20.526  0.00  0.00    +0.000 OA
BRANCH  12  13
ATOM     13  C   UNL     1       1.082   3.002  20.801  0.00  0.00    +0.000 C 
BRANCH  13  15
ATOM     14  C   UNL     1       3.469   2.356  21.004  0.00  0.00    +0.000 C 
ATOM     15  C   UNL     1       2.263   2.912  21.759  0.00  0.00    +0.000 C 
ENDBRANCH  13  15
ENDBRANCH  12  13
ENDBRANCH   6  12
BRANCH   9  16
ATOM     16  C   UNL     1       4.323   7.079  17.091  0.00  0.00    +0.000 C 
BRANCH  16  17
ATOM     17  C   UNL     1       5.374   6.155  16.522  0.00  0.00    +0.000 A 
ATOM     18  C   UNL     1       6.374   5.604  17.339  0.00  0.00    +0.000 A 
ATOM     19  C   UNL     1       7.306   4.707  16.811  0.00  0.00    +0.000 A 
ATOM     20  C   UNL     1       7.254   4.359  15.463  0.00  0.00    +0.000 A 
ATOM     21  C   UNL     1       6.286   4.929  14.637  0.00  0.00    +0.000 A 
ATOM     22  C   UNL     1       5.357   5.827  15.161  0.00  0.00    +0.000 A 
ENDBRANCH  16  17
ENDBRANCH   9  16
ENDBRANCH   5  11
ENDBRANCH   1   5
BRANCH   2  23
ATOM     23  C   UNL     1      -0.342  10.505  21.089  0.00  0.00    +0.000 C 
BRANCH  23  24
ATOM     24  N   UNL     1       0.801  11.304  21.615  0.00  0.00    +0.000 NA
ATOM     25  H   UNL     1       1.018  10.987  22.561  0.00  0.00    +0.000 HD
ATOM     26  H   UNL     1       0.474  12.266  21.733  0.00  0.00    +0.000 HD
ENDBRANCH  23  24
BRANCH  23  27
ATOM     27  C   UNL     1      -0.557  10.839  19.597  0.00  0.00    +0.000 C 
BRANCH  27  28
ATOM     28  C   UNL     1      -1.949  11.060  18.999  0.00  0.00    +0.000 A 
ATOM     29  C   UNL     1      -2.897  11.995  19.485  0.00  0.00    +0.000 A 
ATOM     30  C   UNL     1      -2.654  13.048  20.534  0.00  0.00    +0.000 C 
ATOM     31  C   UNL     1      -4.179  12.074  18.892  0.00  0.00    +0.000 A 
ATOM     32  C   UNL     1      -4.497  11.324  17.774  0.00  0.00    +0.000 A 
ATOM     33  C   UNL     1      -3.551  10.497  17.207  0.00  0.00    +0.000 A 
ATOM     34  C   UNL     1      -2.277  10.367  17.789  0.00  0.00    +0.000 A 
ATOM     35  C   UNL     1      -1.277   9.515  17.043  0.00  0.00    +0.000 C 
BRANCH  32  36
ATOM     36  O   UNL     1      -5.716  11.416  17.173  0.00  0.00    +0.000 OA
ATOM     37  H   UNL     1      -5.582  11.632  16.236  0.00  0.00    +0.000 HD
ENDBRANCH  32  36
ENDBRANCH  27  28
ENDBRANCH  23  27
ENDBRANCH   2  23
TORSDOF 12
ENDMDL
MODEL 5
REMARK VINA RESULT:      -7.6      6.827     10.218
REMARK  Name = 
REMARK  15 active torsions:
REMARK  status: ('A' for Active; 'I' for Inactive)
REMARK    1  A    between atoms: C_1  and  C_2
REMARK    2  A    between atoms: C_2  and  C_3
REMARK    3  A    between atoms: C_3  and  O_4
REMARK    4  A    between atoms: O_4  and  C_5
REMARK    5  A    between atoms: C_8  and  C_9
REMARK    6  A    between atoms: C_9  and  C_10
REMARK    7  A    between atoms: C_17  and  C_18
REMARK    8  A    between atoms: C_18  and  N_19
REMARK    9  A    between atoms: C_20  and  C_22
REMARK   10  A    between atoms: C_22  and  N_23
REMARK   11  A    between atoms: C_22  and  C_24
REMARK   12  A    between atoms: C_24  and  C_25
REMARK   13  A    between atoms: C_26  and  C_27
REMARK   14  A    between atoms: C_29  and  O_30
REMARK   15  A    between atoms: C_32  and  C_33
REMARK                            x       y       z     vdW  Elec       q    Type
REMARK                         _______ _______ _______ _____ _____    ______ ____
ROOT
ATOM      1  N   UNL     1       8.276   7.216  18.893  0.00  0.00    +0.000 N 
ATOM      2  C   UNL     1       8.246   8.270  18.004  0.00  0.00    +0.000 C 
ATOM      3  O   UNL     1       7.912   8.137  16.826  0.00  0.00    +0.000 OA
ATOM      4  H   UNL     1       8.544   7.367  19.851  0.00  0.00    +0.000 HD
ENDROOT
BRANCH   1   5
ATOM      5  C   UNL     1       8.055   5.840  18.483  0.00  0.00    +0.000 C 
BRANCH   5  11
ATOM      6  C   UNL     1       6.343   5.114  16.701  0.00  0.00    +0.000 A 
ATOM      7  C   UNL     1       4.993   4.909  16.354  0.00  0.00    +0.000 A 
ATOM      8  C   UNL     1       3.959   5.189  17.237  0.00  0.00    +0.000 A 
ATOM      9  C   UNL     1       4.235   5.665  18.512  0.00  0.00    +0.000 A 
ATOM     10  C   UNL     1       5.576   5.839  18.889  0.00  0.00    +0.000 A 
ATOM     11  C   UNL     1       6.644   5.578  17.991  0.00  0.00    +0.000 A 
BRANCH   6  12
ATOM     12  O   UNL     1       7.378   4.899  15.804  0.00  0.00    +0.000 OA
BRANCH  12  13
ATOM     13  C   UNL     1       7.072   5.336  14.472  0.00  0.00    +0.000 C 
BRANCH  13  15
ATOM     14  C   UNL     1       5.856   3.662  13.103  0.00  0.00    +0.000 C 
ATOM     15  C   UNL     1       7.230   4.256  13.411  0.00  0.00    +0.000 C 
ENDBRANCH  13  15
ENDBRANCH  12  13
ENDBRANCH   6  12
BRANCH   9  16
ATOM     16  C   UNL     1       3.094   5.996  19.439  0.00  0.00    +0.000 C 
BRANCH  16  17
ATOM     17  C   UNL     1       2.405   4.785  20.022  0.00  0.00    +0.000 A 
ATOM     18  C   UNL     1       2.734   4.308  21.301  0.00  0.00    +0.000 A 
ATOM     19  C   UNL     1       2.050   3.221  21.850  0.00  0.00    +0.000 A 
ATOM     20  C   UNL     1       1.038   2.595  21.125  0.00  0.00    +0.000 A 
ATOM     21  C   UNL     1       0.729   3.039  19.840  0.00  0.00    +0.000 A 
ATOM     22  C   UNL     1       1.413   4.122  19.289  0.00  0.00    +0.000 A 
ENDBRANCH  16  17
ENDBRANCH   9  16
ENDBRANCH   5  11
ENDBRANCH   1   5
BRANCH   2  23
ATOM     23  C   UNL     1       8.498   9.675  18.603  0.00  0.00    +0.000 C 
BRANCH  23  24
ATOM     24  N   UNL     1       9.054   9.510  19.977  0.00  0.00    +0.000 NA
ATOM     25  H   UNL     1       8.336   9.765  20.657  0.00  0.00    +0.000 HD
ATOM     26  H   UNL     1       9.787  10.213  20.097  0.00  0.00    +0.000 HD
ENDBRANCH  23  24
BRANCH  23  27
ATOM     27  C   UNL     1       9.403  10.630  17.795  0.00  0.00    +0.000 C 
BRANCH  27  28
ATOM     28  C   UNL     1       9.748  12.040  18.281  0.00  0.00    +0.000 A 
ATOM     29  C   UNL     1      10.958  12.397  18.927  0.00  0.00    +0.000 A 
ATOM     30  C   UNL     1      12.175  11.525  19.087  0.00  0.00    +0.000 C 
ATOM     31  C   UNL     1      11.147  13.721  19.390  0.00  0.00    +0.000 A 
ATOM     32  C   UNL     1      10.213  14.708  19.135  0.00  0.00    +0.000 A 
ATOM     33  C   UNL     1       9.082  14.414  18.400  0.00  0.00    +0.000 A 
ATOM     34  C   UNL     1       8.844  13.101  17.954  0.00  0.00    +0.000 A 
ATOM     35  C   UNL     1       7.632  12.897  17.075  0.00  0.00    +0.000 C 
BRANCH  32  36
ATOM     36  O   UNL     1      10.398  15.994  19.544  0.00  0.00    +0.000 OA
ATOM     37  H   UNL     1      11.022  16.423  18.937  0.00  0.00    +0.000 HD
ENDBRANCH  32  36
ENDBRANCH  27  28
ENDBRANCH  23  27
ENDBRANCH   2  23
TORSDOF 12
ENDMDL
MODEL 6
REMARK VINA RESULT:      -7.5      1.841      2.865
REMARK  Name = 
REMARK  15 active torsions:
REMARK  status: ('A' for Active; 'I' for Inactive)
REMARK    1  A    between atoms: C_1  and  C_2
REMARK    2  A    between atoms: C_2  and  C_3
REMARK    3  A    between atoms: C_3  and  O_4
REMARK    4  A    between atoms: O_4  and  C_5
REMARK    5  A    between atoms: C_8  and  C_9
REMARK    6  A    between atoms: C_9  and  C_10
REMARK    7  A    between atoms: C_17  and  C_18
REMARK    8  A    between atoms: C_18  and  N_19
REMARK    9  A    between atoms: C_20  and  C_22
REMARK   10  A    between atoms: C_22  and  N_23
REMARK   11  A    between atoms: C_22  and  C_24
REMARK   12  A    between atoms: C_24  and  C_25
REMARK   13  A    between atoms: C_26  and  C_27
REMARK   14  A    between atoms: C_29  and  O_30
REMARK   15  A    between atoms: C_32  and  C_33
REMARK                            x       y       z     vdW  Elec       q    Type
REMARK                         _______ _______ _______ _____ _____    ______ ____
ROOT
ATOM      1  N   UNL     1       0.434  10.901  18.109  0.00  0.00    +0.000 N 
ATOM      2  C   UNL     1       0.057  12.123  18.628  0.00  0.00    +0.000 C 
ATOM      3  O   UNL     1       0.868  12.931  19.081  0.00  0.00    +0.000 OA
ATOM      4  H   UNL     1      -0.259  10.272  17.738  0.00  0.00    +0.000 HD
ENDROOT
BRANCH   1   5
ATOM      5  C   UNL     1       1.797  10.405  18.186  0.00  0.00    +0.000 C 
BRANCH   5  11
ATOM      6  C   UNL     1       1.495   8.747  20.134  0.00  0.00    +0.000 A 
ATOM      7  C   UNL     1       1.643   7.432  20.618  0.00  0.00    +0.000 A 
ATOM      8  C   UNL     1       2.210   6.427  19.847  0.00  0.00    +0.000 A 
ATOM      9  C   UNL     1       2.634   6.692  18.551  0.00  0.00    +0.000 A 
ATOM     10  C   UNL     1       2.460   7.986  18.038  0.00  0.00    +0.000 A 
ATOM     11  C   UNL     1       1.901   9.030  18.820  0.00  0.00    +0.000 A 
BRANCH   6  12
ATOM     12  O   UNL     1       0.990   9.771  20.919  0.00  0.00    +0.000 OA
BRANCH  12  13
ATOM     13  C   UNL     1      -0.283   9.460  21.505  0.00  0.00    +0.000 C 
BRANCH  13  15
ATOM     14  C   UNL     1      -1.303  11.049  23.115  0.00  0.00    +0.000 C 
ATOM     15  C   UNL     1      -0.395   9.828  22.978  0.00  0.00    +0.000 C 
ENDBRANCH  13  15
ENDBRANCH  12  13
ENDBRANCH   6  12
BRANCH   9  16
ATOM     16  C   UNL     1       3.281   5.593  17.747  0.00  0.00    +0.000 C 
BRANCH  16  17
ATOM     17  C   UNL     1       2.854   4.201  18.153  0.00  0.00    +0.000 A 
ATOM     18  C   UNL     1       1.500   3.828  18.150  0.00  0.00    +0.000 A 
ATOM     19  C   UNL     1       1.125   2.522  18.475  0.00  0.00    +0.000 A 
ATOM     20  C   UNL     1       2.095   1.581  18.813  0.00  0.00    +0.000 A 
ATOM     21  C   UNL     1       3.438   1.952  18.854  0.00  0.00    +0.000 A 
ATOM     22  C   UNL     1       3.814   3.256  18.533  0.00  0.00    +0.000 A 
ENDBRANCH  16  17
ENDBRANCH   9  16
ENDBRANCH   5  11
ENDBRANCH   1   5
BRANCH   2  23
ATOM     23  C   UNL     1      -1.433  12.505  18.460  0.00  0.00    +0.000 C 
BRANCH  23  24
ATOM     24  N   UNL     1      -1.869  12.115  17.088  0.00  0.00    +0.000 NA
ATOM     25  H   UNL     1      -1.469  12.771  16.415  0.00  0.00    +0.000 HD
ATOM     26  H   UNL     1      -2.879  12.270  17.032  0.00  0.00    +0.000 HD
ENDBRANCH  23  24
BRANCH  23  27
ATOM     27  C   UNL     1      -2.425  11.931  19.495  0.00  0.00    +0.000 C 
BRANCH  27  28
ATOM     28  C   UNL     1      -3.847  12.473  19.657  0.00  0.00    +0.000 A 
ATOM     29  C   UNL     1      -4.984  11.972  18.975  0.00  0.00    +0.000 A 
ATOM     30  C   UNL     1      -5.039  10.728  18.127  0.00  0.00    +0.000 C 
ATOM     31  C   UNL     1      -6.244  12.590  19.155  0.00  0.00    +0.000 A 
ATOM     32  C   UNL     1      -6.414  13.616  20.066  0.00  0.00    +0.000 A 
ATOM     33  C   UNL     1      -5.348  14.041  20.833  0.00  0.00    +0.000 A 
ATOM     34  C   UNL     1      -4.073  13.473  20.656  0.00  0.00    +0.000 A 
ATOM     35  C   UNL     1      -2.992  13.933  21.608  0.00  0.00    +0.000 C 
BRANCH  32  36
ATOM     36  O   UNL     1      -7.628  14.197  20.274  0.00  0.00    +0.000 OA
ATOM     37  H   UNL     1      -8.205  13.553  20.716  0.00  0.00    +0.000 HD
ENDBRANCH  32  36
ENDBRANCH  27  28
ENDBRANCH  23  27
ENDBRANCH   2  23
TORSDOF 12
ENDMDL
MODEL 7
REMARK VINA RESULT:      -7.4      3.239      4.983
REMARK  Name = 
REMARK  15 active torsions:
REMARK  status: ('A' for Active; 'I' for Inactive)
REMARK    1  A    between atoms: C_1  and  C_2
REMARK    2  A    between atoms: C_2  and  C_3
REMARK    3  A    between atoms: C_3  and  O_4
REMARK    4  A    between atoms: O_4  and  C_5
REMARK    5  A    between atoms: C_8  and  C_9
REMARK    6  A    between atoms: C_9  and  C_10
REMARK    7  A    between atoms: C_17  and  C_18
REMARK    8  A    between atoms: C_18  and  N_19
REMARK    9  A    between atoms: C_20  and  C_22
REMARK   10  A    between atoms: C_22  and  N_23
REMARK   11  A    between atoms: C_22  and  C_24
REMARK   12  A    between atoms: C_24  and  C_25
REMARK   13  A    between atoms: C_26  and  C_27
REMARK   14  A    between atoms: C_29  and  O_30
REMARK   15  A    between atoms: C_32  and  C_33
REMARK                            x       y       z     vdW  Elec       q    Type
REMARK                         _______ _______ _______ _____ _____    ______ ____
ROOT
ATOM      1  N   UNL     1       2.057   7.207  17.911  0.00  0.00    +0.000 N 
ATOM      2  C   UNL     1       1.912   7.965  19.056  0.00  0.00    +0.000 C 
ATOM      3  O   UNL     1       2.082   7.503  20.184  0.00  0.00    +0.000 OA
ATOM      4  H   UNL     1       1.920   7.625  17.005  0.00  0.00    +0.000 HD
ENDROOT
BRANCH   1   5
ATOM      5  C   UNL     1       2.280   5.773  17.946  0.00  0.00    +0.000 C 
BRANCH   5  11
ATOM      6  C   UNL     1       4.330   4.731  19.105  0.00  0.00    +0.000 A 
ATOM      7  C   UNL     1       5.707   4.432  19.058  0.00  0.00    +0.000 A 
ATOM      8  C   UNL     1       6.501   4.808  17.984  0.00  0.00    +0.000 A 
ATOM      9  C   UNL     1       5.947   5.480  16.902  0.00  0.00    +0.000 A 
ATOM     10  C   UNL     1       4.570   5.752  16.913  0.00  0.00    +0.000 A 
ATOM     11  C   UNL     1       3.748   5.394  18.013  0.00  0.00    +0.000 A 
BRANCH   6  12
ATOM     12  O   UNL     1       3.543   4.418  20.201  0.00  0.00    +0.000 OA
BRANCH  12  13
ATOM     13  C   UNL     1       3.276   3.013  20.324  0.00  0.00    +0.000 C 
BRANCH  13  15
ATOM     14  C   UNL     1       0.834   3.446  20.265  0.00  0.00    +0.000 C 
ATOM     15  C   UNL     1       1.946   2.688  20.989  0.00  0.00    +0.000 C 
ENDBRANCH  13  15
ENDBRANCH  12  13
ENDBRANCH   6  12
BRANCH   9  16
ATOM     16  C   UNL     1       6.838   5.909  15.765  0.00  0.00    +0.000 C 
BRANCH  16  17
ATOM     17  C   UNL     1       6.694   5.067  14.519  0.00  0.00    +0.000 A 
ATOM     18  C   UNL     1       5.624   4.171  14.369  0.00  0.00    +0.000 A 
ATOM     19  C   UNL     1       5.473   3.439  13.188  0.00  0.00    +0.000 A 
ATOM     20  C   UNL     1       6.392   3.589  12.152  0.00  0.00    +0.000 A 
ATOM     21  C   UNL     1       7.478   4.449  12.306  0.00  0.00    +0.000 A 
ATOM     22  C   UNL     1       7.632   5.178  13.485  0.00  0.00    +0.000 A 
ENDBRANCH  16  17
ENDBRANCH   9  16
ENDBRANCH   5  11
ENDBRANCH   1   5
BRANCH   2  23
ATOM     23  C   UNL     1       1.684   9.481  18.845  0.00  0.00    +0.000 C 
BRANCH  23  24
ATOM     24  N   UNL     1       2.109   9.835  17.461  0.00  0.00    +0.000 NA
ATOM     25  H   UNL     1       1.296  10.171  16.942  0.00  0.00    +0.000 HD
ATOM     26  H   UNL     1       2.376   8.967  16.991  0.00  0.00    +0.000 HD
ENDBRANCH  23  24
BRANCH  23  27
ATOM     27  C   UNL     1       0.258  10.017  19.097  0.00  0.00    +0.000 C 
BRANCH  27  28
ATOM     28  C   UNL     1      -0.082  10.915  20.288  0.00  0.00    +0.000 A 
ATOM     29  C   UNL     1      -0.420  10.445  21.583  0.00  0.00    +0.000 A 
ATOM     30  C   UNL     1      -0.331   9.022  22.066  0.00  0.00    +0.000 C 
ATOM     31  C   UNL     1      -0.775  11.366  22.597  0.00  0.00    +0.000 A 
ATOM     32  C   UNL     1      -0.702  12.730  22.383  0.00  0.00    +0.000 A 
ATOM     33  C   UNL     1      -0.257  13.215  21.170  0.00  0.00    +0.000 A 
ATOM     34  C   UNL     1       0.071  12.330  20.127  0.00  0.00    +0.000 A 
ATOM     35  C   UNL     1       0.641  12.949  18.872  0.00  0.00    +0.000 C 
BRANCH  32  36
ATOM     36  O   UNL     1      -1.008  13.626  23.362  0.00  0.00    +0.000 OA
ATOM     37  H   UNL     1      -1.765  13.286  23.865  0.00  0.00    +0.000 HD
ENDBRANCH  32  36
ENDBRANCH  27  28
ENDBRANCH  23  27
ENDBRANCH   2  23
TORSDOF 12
ENDMDL
MODEL 8
REMARK VINA RESULT:      -7.4      0.968      1.818
REMARK  Name = 
REMARK  15 active torsions:
REMARK  status: ('A' for Active; 'I' for Inactive)
REMARK    1  A    between atoms: C_1  and  C_2
REMARK    2  A    between atoms: C_2  and  C_3
REMARK    3  A    between atoms: C_3  and  O_4
REMARK    4  A    between atoms: O_4  and  C_5
REMARK    5  A    between atoms: C_8  and  C_9
REMARK    6  A    between atoms: C_9  and  C_10
REMARK    7  A    between atoms: C_17  and  C_18
REMARK    8  A    between atoms: C_18  and  N_19
REMARK    9  A    between atoms: C_20  and  C_22
REMARK   10  A    between atoms: C_22  and  N_23
REMARK   11  A    between atoms: C_22  and  C_24
REMARK   12  A    between atoms: C_24  and  C_25
REMARK   13  A    between atoms: C_26  and  C_27
REMARK   14  A    between atoms: C_29  and  O_30
REMARK   15  A    between atoms: C_32  and  C_33
REMARK                            x       y       z     vdW  Elec       q    Type
REMARK                         _______ _______ _______ _____ _____    ______ ____
ROOT
ATOM      1  N   UNL     1       1.095  10.410  18.328  0.00  0.00    +0.000 N 
ATOM      2  C   UNL     1      -0.223  10.410  17.919  0.00  0.00    +0.000 C 
ATOM      3  O   UNL     1      -0.704   9.512  17.227  0.00  0.00    +0.000 OA
ATOM      4  H   UNL     1       1.448  11.158  18.902  0.00  0.00    +0.000 HD
ENDROOT
BRANCH   1   5
ATOM      5  C   UNL     1       2.060   9.431  17.860  0.00  0.00    +0.000 C 
BRANCH   5  11
ATOM      6  C   UNL     1       1.720   8.091  20.033  0.00  0.00    +0.000 A 
ATOM      7  C   UNL     1       1.755   6.843  20.686  0.00  0.00    +0.000 A 
ATOM      8  C   UNL     1       2.147   5.684  20.029  0.00  0.00    +0.000 A 
ATOM      9  C   UNL     1       2.500   5.723  18.686  0.00  0.00    +0.000 A 
ATOM     10  C   UNL     1       2.434   6.951  18.010  0.00  0.00    +0.000 A 
ATOM     11  C   UNL     1       2.056   8.149  18.671  0.00  0.00    +0.000 A 
BRANCH   6  12
ATOM     12  O   UNL     1       1.393   9.263  20.697  0.00  0.00    +0.000 OA
BRANCH  12  13
ATOM     13  C   UNL     1       0.216   9.145  21.509  0.00  0.00    +0.000 C 
BRANCH  13  15
ATOM     14  C   UNL     1      -1.006  10.383  23.277  0.00  0.00    +0.000 C 
ATOM     15  C   UNL     1      -0.431  10.476  21.865  0.00  0.00    +0.000 C 
ENDBRANCH  13  15
ENDBRANCH  12  13
ENDBRANCH   6  12
BRANCH   9  16
ATOM     16  C   UNL     1       2.957   4.458  18.006  0.00  0.00    +0.000 C 
BRANCH  16  17
ATOM     17  C   UNL     1       4.419   4.460  17.624  0.00  0.00    +0.000 A 
ATOM     18  C   UNL     1       4.826   4.162  16.314  0.00  0.00    +0.000 A 
ATOM     19  C   UNL     1       6.176   4.221  15.962  0.00  0.00    +0.000 A 
ATOM     20  C   UNL     1       7.132   4.569  16.914  0.00  0.00    +0.000 A 
ATOM     21  C   UNL     1       6.740   4.830  18.226  0.00  0.00    +0.000 A 
ATOM     22  C   UNL     1       5.393   4.769  18.581  0.00  0.00    +0.000 A 
ENDBRANCH  16  17
ENDBRANCH   9  16
ENDBRANCH   5  11
ENDBRANCH   1   5
BRANCH   2  23
ATOM     23  C   UNL     1      -1.122  11.521  18.514  0.00  0.00    +0.000 C 
BRANCH  23  24
ATOM     24  N   UNL     1      -1.329  12.569  17.474  0.00  0.00    +0.000 NA
ATOM     25  H   UNL     1      -2.312  12.844  17.474  0.00  0.00    +0.000 HD
ATOM     26  H   UNL     1      -1.182  12.129  16.563  0.00  0.00    +0.000 HD
ENDBRANCH  23  24
BRANCH  23  27
ATOM     27  C   UNL     1      -2.491  11.085  19.082  0.00  0.00    +0.000 C 
BRANCH  27  28
ATOM     28  C   UNL     1      -3.806  11.726  18.633  0.00  0.00    +0.000 A 
ATOM     29  C   UNL     1      -4.410  11.527  17.366  0.00  0.00    +0.000 A 
ATOM     30  C   UNL     1      -3.982  10.531  16.321  0.00  0.00    +0.000 C 
ATOM     31  C   UNL     1      -5.599  12.219  17.034  0.00  0.00    +0.000 A 
ATOM     32  C   UNL     1      -6.245  13.015  17.962  0.00  0.00    +0.000 A 
ATOM     33  C   UNL     1      -5.744  13.128  19.242  0.00  0.00    +0.000 A 
ATOM     34  C   UNL     1      -4.546  12.482  19.598  0.00  0.00    +0.000 A 
ATOM     35  C   UNL     1      -4.129  12.584  21.047  0.00  0.00    +0.000 C 
BRANCH  32  36
ATOM     36  O   UNL     1      -7.408  13.659  17.666  0.00  0.00    +0.000 OA
ATOM     37  H   UNL     1      -7.288  14.145  16.835  0.00  0.00    +0.000 HD
ENDBRANCH  32  36
ENDBRANCH  27  28
ENDBRANCH  23  27
ENDBRANCH   2  23
TORSDOF 12
ENDMDL
MODEL 9
REMARK VINA RESULT:      -7.4      3.942      7.038
REMARK  Name = 
REMARK  15 active torsions:
REMARK  status: ('A' for Active; 'I' for Inactive)
REMARK    1  A    between atoms: C_1  and  C_2
REMARK    2  A    between atoms: C_2  and  C_3
REMARK    3  A    between atoms: C_3  and  O_4
REMARK    4  A    between atoms: O_4  and  C_5
REMARK    5  A    between atoms: C_8  and  C_9
REMARK    6  A    between atoms: C_9  and  C_10
REMARK    7  A    between atoms: C_17  and  C_18
REMARK    8  A    between atoms: C_18  and  N_19
REMARK    9  A    between atoms: C_20  and  C_22
REMARK   10  A    between atoms: C_22  and  N_23
REMARK   11  A    between atoms: C_22  and  C_24
REMARK   12  A    between atoms: C_24  and  C_25
REMARK   13  A    between atoms: C_26  and  C_27
REMARK   14  A    between atoms: C_29  and  O_30
REMARK   15  A    between atoms: C_32  and  C_33
REMARK                            x       y       z     vdW  Elec       q    Type
REMARK                         _______ _______ _______ _____ _____    ______ ____
ROOT
ATOM      1  N   UNL     1       3.354   4.304  18.202  0.00  0.00    +0.000 N 
ATOM      2  C   UNL     1       2.101   4.147  18.761  0.00  0.00    +0.000 C 
ATOM      3  O   UNL     1       1.329   3.251  18.420  0.00  0.00    +0.000 OA
ATOM      4  H   UNL     1       3.961   5.043  18.516  0.00  0.00    +0.000 HD
ENDROOT
BRANCH   1   5
ATOM      5  C   UNL     1       3.809   3.517  17.070  0.00  0.00    +0.000 C 
BRANCH   5  11
ATOM      6  C   UNL     1       6.249   4.311  17.294  0.00  0.00    +0.000 A 
ATOM      7  C   UNL     1       7.428   4.745  16.656  0.00  0.00    +0.000 A 
ATOM      8  C   UNL     1       7.502   4.899  15.278  0.00  0.00    +0.000 A 
ATOM      9  C   UNL     1       6.404   4.604  14.480  0.00  0.00    +0.000 A 
ATOM     10  C   UNL     1       5.233   4.134  15.094  0.00  0.00    +0.000 A 
ATOM     11  C   UNL     1       5.134   3.991  16.502  0.00  0.00    +0.000 A 
BRANCH   6  12
ATOM     12  O   UNL     1       6.146   4.216  18.672  0.00  0.00    +0.000 OA
BRANCH  12  13
ATOM     13  C   UNL     1       6.183   5.491  19.332  0.00  0.00    +0.000 C 
BRANCH  13  15
ATOM     14  C   UNL     1       8.472   5.212  20.248  0.00  0.00    +0.000 C 
ATOM     15  C   UNL     1       7.571   6.113  19.405  0.00  0.00    +0.000 C 
ENDBRANCH  13  15
ENDBRANCH  12  13
ENDBRANCH   6  12
BRANCH   9  16
ATOM     16  C   UNL     1       6.498   4.815  12.990  0.00  0.00    +0.000 C 
BRANCH  16  17
ATOM     17  C   UNL     1       6.396   3.543  12.182  0.00  0.00    +0.000 A 
ATOM     18  C   UNL     1       7.546   2.881  11.723  0.00  0.00    +0.000 A 
ATOM     19  C   UNL     1       7.439   1.676  11.024  0.00  0.00    +0.000 A 
ATOM     20  C   UNL     1       6.184   1.126  10.770  0.00  0.00    +0.000 A 
ATOM     21  C   UNL     1       5.036   1.795  11.189  0.00  0.00    +0.000 A 
ATOM     22  C   UNL     1       5.140   2.999  11.885  0.00  0.00    +0.000 A 
ENDBRANCH  16  17
ENDBRANCH   9  16
ENDBRANCH   5  11
ENDBRANCH   1   5
BRANCH   2  23
ATOM     23  C   UNL     1       1.773   5.061  19.966  0.00  0.00    +0.000 C 
BRANCH  23  24
ATOM     24  N   UNL     1       1.932   4.268  21.218  0.00  0.00    +0.000 NA
ATOM     25  H   UNL     1       1.150   3.616  21.298  0.00  0.00    +0.000 HD
ATOM     26  H   UNL     1       1.816   4.910  22.005  0.00  0.00    +0.000 HD
ENDBRANCH  23  24
BRANCH  23  27
ATOM     27  C   UNL     1       2.575   6.376  20.087  0.00  0.00    +0.000 C 
BRANCH  27  28
ATOM     28  C   UNL     1       2.021   7.720  19.609  0.00  0.00    +0.000 A 
ATOM     29  C   UNL     1       1.222   8.589  20.395  0.00  0.00    +0.000 A 
ATOM     30  C   UNL     1       0.931   8.446  21.865  0.00  0.00    +0.000 C 
ATOM     31  C   UNL     1       0.713   9.783  19.831  0.00  0.00    +0.000 A 
ATOM     32  C   UNL     1       1.062  10.175  18.551  0.00  0.00    +0.000 A 
ATOM     33  C   UNL     1       1.937   9.408  17.810  0.00  0.00    +0.000 A 
ATOM     34  C   UNL     1       2.436   8.198  18.325  0.00  0.00    +0.000 A 
ATOM     35  C   UNL     1       3.462   7.478  17.481  0.00  0.00    +0.000 C 
BRANCH  32  36
ATOM     36  O   UNL     1       0.606  11.338  18.009  0.00  0.00    +0.000 OA
ATOM     37  H   UNL     1       1.361  11.935  17.880  0.00  0.00    +0.000 HD
ENDBRANCH  32  36
ENDBRANCH  27  28
ENDBRANCH  23  27
ENDBRANCH   2  23
TORSDOF 12
ENDMDL
