MODEL 1
REMARK VINA RESULT:      -8.5      0.000      0.000
REMARK  Name = 
REMARK  11 active torsions:
REMARK  status: ('A' for Active; 'I' for Inactive)
REMARK    1  A    between atoms: C_2  and  C_3
REMARK    2  A    between atoms: C_3  and  C_4
REMARK    3  A    between atoms: C_4  and  C_5
REMARK    4  A    between atoms: C_5  and  C_6
REMARK    5  A    between atoms: C_6  and  C_7
REMARK    6  A    between atoms: C_7  and  C_8
REMARK    7  A    between atoms: C_8  and  N_9
REMARK    8  A    between atoms: C_11  and  N_12
REMARK    9  A    between atoms: C_18  and  N_19
REMARK   10  A    between atoms: N_19  and  C_20
REMARK   11  A    between atoms: N_29  and  O_30
REMARK                            x       y       z     vdW  Elec       q    Type
REMARK                         _______ _______ _______ _____ _____    ______ ____
ROOT
ATOM      1  N   UNL     1       7.903   7.252  18.218  0.00  0.00    +0.000 N 
ATOM      2  C   UNL     1       7.525   6.148  18.931  0.00  0.00    +0.000 A 
ATOM      3  C   UNL     1       6.794   5.379  18.066  0.00  0.00    +0.000 A 
ATOM      4  C   UNL     1       6.805   6.095  16.846  0.00  0.00    +0.000 A 
ATOM      5  N   UNL     1       7.497   7.235  16.935  0.00  0.00    +0.000 NA
ENDROOT
BRANCH   3   6
ATOM      6  N   UNL     1       6.213   4.200  18.363  0.00  0.00    +0.000 N 
ATOM      7  C   UNL     1       5.003   4.000  19.023  0.00  0.00    +0.000 A 
ATOM      8  N   UNL     1       4.552   2.744  19.126  0.00  0.00    +0.000 NA
ATOM      9  C   UNL     1       3.336   2.593  19.691  0.00  0.00    +0.000 A 
ATOM     10  C   UNL     1       2.565   3.640  20.151  0.00  0.00    +0.000 A 
ATOM     11 CL   UNL     1       0.987   3.351  20.762  0.00  0.00    +0.000 Cl
ATOM     12  C   UNL     1       3.141   4.898  20.077  0.00  0.00    +0.000 A 
ATOM     13  N   UNL     1       4.351   5.061  19.524  0.00  0.00    +0.000 NA
ATOM     14  H   UNL     1       6.680   3.313  18.227  0.00  0.00    +0.000 HD
BRANCH  12  15
ATOM     15  N   UNL     1       2.461   6.044  20.540  0.00  0.00    +0.000 N 
ATOM     16  H   UNL     1       1.856   5.817  21.320  0.00  0.00    +0.000 HD
BRANCH  15  17
ATOM     17  C   UNL     1       2.044   7.172  19.800  0.00  0.00    +0.000 A 
ATOM     18  C   UNL     1       1.380   8.227  20.442  0.00  0.00    +0.000 A 
ATOM     19  C   UNL     1       1.111   9.426  19.771  0.00  0.00    +0.000 A 
ATOM     20  C   UNL     1       1.507   9.590  18.447  0.00  0.00    +0.000 A 
ATOM     21  C   UNL     1       2.118   8.533  17.777  0.00  0.00    +0.000 A 
ATOM     22  C   UNL     1       2.362   7.324  18.443  0.00  0.00    +0.000 A 
ENDBRANCH  15  17
ENDBRANCH  12  15
ENDBRANCH   3   6
BRANCH   1  23
ATOM     23  C   UNL     1       8.737   8.340  18.691  0.00  0.00    +0.000 C 
BRANCH  23  24
ATOM     24  C   UNL     1       8.419   9.681  18.030  0.00  0.00    +0.000 C 
BRANCH  24  25
ATOM     25  C   UNL     1       9.592  10.653  18.185  0.00  0.00    +0.000 C 
BRANCH  25  26
ATOM     26  C   UNL     1       9.136  12.112  18.090  0.00  0.00    +0.000 C 
BRANCH  26  27
ATOM     27  C   UNL     1      10.277  13.074  18.434  0.00  0.00    +0.000 C 
BRANCH  27  28
ATOM     28  C   UNL     1      10.656  13.966  17.247  0.00  0.00    +0.000 C 
BRANCH  28  30
ATOM     29  O   UNL     1      10.138  15.906  18.625  0.00  0.00    +0.000 OA
ATOM     30  C   UNL     1      10.461  15.448  17.537  0.00  0.00    +0.000 C 
ATOM     31  N   UNL     1      10.674  16.249  16.441  0.00  0.00    +0.000 N 
ATOM     32  H   UNL     1      10.937  15.913  15.519  0.00  0.00    +0.000 HD
BRANCH  31  33
ATOM     33  O   UNL     1      10.506  17.642  16.591  0.00  0.00    +0.000 OA
ATOM     34  H   UNL     1       9.875  17.701  17.340  0.00  0.00    +0.000 HD
ENDBRANCH  31  33
ENDBRANCH  28  30
ENDBRANCH  27  28
ENDBRANCH  26  27
ENDBRANCH  25  26
ENDBRANCH  24  25
ENDBRANCH  23  24
ENDBRANCH   1  23
TORSDOF 11
ENDMDL
MODEL 2
REMARK VINA RESULT:      -8.2      1.047      1.162
REMARK  Name = 
REMARK  11 active torsions:
REMARK  status: ('A' for Active; 'I' for Inactive)
REMARK    1  A    between atoms: C_2  and  C_3
REMARK    2  A    between atoms: C_3  and  C_4
REMARK    3  A    between atoms: C_4  and  C_5
REMARK    4  A    between atoms: C_5  and  C_6
REMARK    5  A    between atoms: C_6  and  C_7
REMARK    6  A    between atoms: C_7  and  C_8
REMARK    7  A    between atoms: C_8  and  N_9
REMARK    8  A    between atoms: C_11  and  N_12
REMARK    9  A    between atoms: C_18  and  N_19
REMARK   10  A    between atoms: N_19  and  C_20
REMARK   11  A    between atoms: N_29  and  O_30
REMARK                            x       y       z     vdW  Elec       q    Type
REMARK                         _______ _______ _______ _____ _____    ______ ____
ROOT
ATOM      1  N   UNL     1       6.884   6.986  17.351  0.00  0.00    +0.000 N 
ATOM      2  C   UNL     1       6.049   6.118  17.999  0.00  0.00    +0.000 A 
ATOM      3  C   UNL     1       6.232   4.904  17.392  0.00  0.00    +0.000 A 
ATOM      4  C   UNL     1       7.215   5.137  16.402  0.00  0.00    +0.000 A 
ATOM      5  N   UNL     1       7.626   6.409  16.388  0.00  0.00    +0.000 NA
ENDROOT
BRANCH   3   6
ATOM      6  N   UNL     1       5.590   3.762  17.712  0.00  0.00    +0.000 N 
ATOM      7  C   UNL     1       4.513   3.618  18.583  0.00  0.00    +0.000 A 
ATOM      8  N   UNL     1       3.951   2.408  18.681  0.00  0.00    +0.000 NA
ATOM      9  C   UNL     1       2.856   2.322  19.466  0.00  0.00    +0.000 A 
ATOM     10  C   UNL     1       2.310   3.390  20.146  0.00  0.00    +0.000 A 
ATOM     11 CL   UNL     1       0.856   3.197  21.038  0.00  0.00    +0.000 Cl
ATOM     12  C   UNL     1       3.000   4.587  20.052  0.00  0.00    +0.000 A 
ATOM     13  N   UNL     1       4.092   4.685  19.282  0.00  0.00    +0.000 NA
ATOM     14  H   UNL     1       5.918   2.852  17.420  0.00  0.00    +0.000 HD
BRANCH  12  15
ATOM     15  N   UNL     1       2.554   5.744  20.725  0.00  0.00    +0.000 N 
ATOM     16  H   UNL     1       2.185   5.514  21.639  0.00  0.00    +0.000 HD
BRANCH  15  17
ATOM     17  C   UNL     1       2.015   6.926  20.170  0.00  0.00    +0.000 A 
ATOM     18  C   UNL     1       1.226   7.776  20.958  0.00  0.00    +0.000 A 
ATOM     19  C   UNL     1       0.825   9.031  20.488  0.00  0.00    +0.000 A 
ATOM     20  C   UNL     1       1.210   9.459  19.221  0.00  0.00    +0.000 A 
ATOM     21  C   UNL     1       1.948   8.606  18.404  0.00  0.00    +0.000 A 
ATOM     22  C   UNL     1       2.325   7.339  18.866  0.00  0.00    +0.000 A 
ENDBRANCH  15  17
ENDBRANCH  12  15
ENDBRANCH   3   6
BRANCH   1  23
ATOM     23  C   UNL     1       7.083   8.387  17.666  0.00  0.00    +0.000 C 
BRANCH  23  24
ATOM     24  C   UNL     1       8.549   8.817  17.624  0.00  0.00    +0.000 C 
BRANCH  24  25
ATOM     25  C   UNL     1       8.826   9.901  18.669  0.00  0.00    +0.000 C 
BRANCH  25  26
ATOM     26  C   UNL     1       9.299  11.206  18.023  0.00  0.00    +0.000 C 
BRANCH  26  27
ATOM     27  C   UNL     1      10.706  11.584  18.497  0.00  0.00    +0.000 C 
BRANCH  27  28
ATOM     28  C   UNL     1      11.477  12.375  17.435  0.00  0.00    +0.000 C 
BRANCH  28  30
ATOM     29  O   UNL     1      10.606  14.481  18.292  0.00  0.00    +0.000 OA
ATOM     30  C   UNL     1      11.038  13.831  17.350  0.00  0.00    +0.000 C 
ATOM     31  N   UNL     1      11.161  14.363  16.089  0.00  0.00    +0.000 N 
ATOM     32  H   UNL     1      11.508  13.859  15.278  0.00  0.00    +0.000 HD
BRANCH  31  33
ATOM     33  O   UNL     1      10.767  15.703  15.890  0.00  0.00    +0.000 OA
ATOM     34  H   UNL     1      10.241  15.650  15.064  0.00  0.00    +0.000 HD
ENDBRANCH  31  33
ENDBRANCH  28  30
ENDBRANCH  27  28
ENDBRANCH  26  27
ENDBRANCH  25  26
ENDBRANCH  24  25
ENDBRANCH  23  24
ENDBRANCH   1  23
TORSDOF 11
ENDMDL
MODEL 3
REMARK VINA RESULT:      -8.2      0.594      1.080
REMARK  Name = 
REMARK  11 active torsions:
REMARK  status: ('A' for Active; 'I' for Inactive)
REMARK    1  A    between atoms: C_2  and  C_3
REMARK    2  A    between atoms: C_3  and  C_4
REMARK    3  A    between atoms: C_4  and  C_5
REMARK    4  A    between atoms: C_5  and  C_6
REMARK    5  A    between atoms: C_6  and  C_7
REMARK    6  A    between atoms: C_7  and  C_8
REMARK    7  A    between atoms: C_8  and  N_9
REMARK    8  A    between atoms: C_11  and  N_12
REMARK    9  A    between atoms: C_18  and  N_19
REMARK   10  A    between atoms: N_19  and  C_20
REMARK   11  A    between atoms: N_29  and  O_30
REMARK                            x       y       z     vdW  Elec       q    Type
REMARK                         _______ _______ _______ _____ _____    ______ ____
ROOT
ATOM      1  N   UNL     1       7.805   7.453  17.927  0.00  0.00    +0.000 N 
ATOM      2  C   UNL     1       7.749   6.266  18.604  0.00  0.00    +0.000 A 
ATOM      3  C   UNL     1       6.640   5.618  18.129  0.00  0.00    +0.000 A 
ATOM      4  C   UNL     1       6.104   6.488  17.150  0.00  0.00    +0.000 A 
ATOM      5  N   UNL     1       6.826   7.604  17.016  0.00  0.00    +0.000 NA
ENDROOT
BRANCH   3   6
ATOM      6  N   UNL     1       6.201   4.411  18.538  0.00  0.00    +0.000 N 
ATOM      7  C   UNL     1       5.019   4.132  19.219  0.00  0.00    +0.000 A 
ATOM      8  N   UNL     1       4.718   2.847  19.440  0.00  0.00    +0.000 NA
ATOM      9  C   UNL     1       3.525   2.607  20.024  0.00  0.00    +0.000 A 
ATOM     10  C   UNL     1       2.633   3.594  20.388  0.00  0.00    +0.000 A 
ATOM     11 CL   UNL     1       1.097   3.179  21.031  0.00  0.00    +0.000 Cl
ATOM     12  C   UNL     1       3.058   4.899  20.194  0.00  0.00    +0.000 A 
ATOM     13  N   UNL     1       4.243   5.151  19.622  0.00  0.00    +0.000 NA
ATOM     14  H   UNL     1       6.769   3.577  18.482  0.00  0.00    +0.000 HD
BRANCH  12  15
ATOM     15  N   UNL     1       2.244   5.994  20.553  0.00  0.00    +0.000 N 
ATOM     16  H   UNL     1       1.421   5.687  21.055  0.00  0.00    +0.000 HD
BRANCH  15  17
ATOM     17  C   UNL     1       2.075   7.218  19.868  0.00  0.00    +0.000 A 
ATOM     18  C   UNL     1       2.471   7.334  18.528  0.00  0.00    +0.000 A 
ATOM     19  C   UNL     1       2.159   8.473  17.778  0.00  0.00    +0.000 A 
ATOM     20  C   UNL     1       1.440   9.515  18.356  0.00  0.00    +0.000 A 
ATOM     21  C   UNL     1       1.086   9.441  19.701  0.00  0.00    +0.000 A 
ATOM     22  C   UNL     1       1.424   8.311  20.457  0.00  0.00    +0.000 A 
ENDBRANCH  15  17
ENDBRANCH  12  15
ENDBRANCH   3   6
BRANCH   1  23
ATOM     23  C   UNL     1       8.834   8.467  18.050  0.00  0.00    +0.000 C 
BRANCH  23  24
ATOM     24  C   UNL     1       8.278   9.867  18.311  0.00  0.00    +0.000 C 
BRANCH  24  25
ATOM     25  C   UNL     1       9.197  10.647  19.255  0.00  0.00    +0.000 C 
BRANCH  25  26
ATOM     26  C   UNL     1       9.084  12.158  19.036  0.00  0.00    +0.000 C 
BRANCH  26  27
ATOM     27  C   UNL     1       9.305  12.526  17.565  0.00  0.00    +0.000 C 
BRANCH  27  28
ATOM     28  C   UNL     1      10.709  13.085  17.316  0.00  0.00    +0.000 C 
BRANCH  28  30
ATOM     29  O   UNL     1      10.850  15.147  18.604  0.00  0.00    +0.000 OA
ATOM     30  C   UNL     1      10.787  14.593  17.515  0.00  0.00    +0.000 C 
ATOM     31  N   UNL     1      10.770  15.298  16.335  0.00  0.00    +0.000 N 
ATOM     32  H   UNL     1      10.712  14.882  15.411  0.00  0.00    +0.000 HD
BRANCH  31  33
ATOM     33  O   UNL     1      10.821  16.706  16.401  0.00  0.00    +0.000 OA
ATOM     34  H   UNL     1      10.761  16.967  15.456  0.00  0.00    +0.000 HD
ENDBRANCH  31  33
ENDBRANCH  28  30
ENDBRANCH  27  28
ENDBRANCH  26  27
ENDBRANCH  25  26
ENDBRANCH  24  25
ENDBRANCH  23  24
ENDBRANCH   1  23
TORSDOF 11
ENDMDL
MODEL 4
REMARK VINA RESULT:      -8.1      1.297      1.824
REMARK  Name = 
REMARK  11 active torsions:
REMARK  status: ('A' for Active; 'I' for Inactive)
REMARK    1  A    between atoms: C_2  and  C_3
REMARK    2  A    between atoms: C_3  and  C_4
REMARK    3  A    between atoms: C_4  and  C_5
REMARK    4  A    between atoms: C_5  and  C_6
REMARK    5  A    between atoms: C_6  and  C_7
REMARK    6  A    between atoms: C_7  and  C_8
REMARK    7  A    between atoms: C_8  and  N_9
REMARK    8  A    between atoms: C_11  and  N_12
REMARK    9  A    between atoms: C_18  and  N_19
REMARK   10  A    between atoms: N_19  and  C_20
REMARK   11  A    between atoms: N_29  and  O_30
REMARK                            x       y       z     vdW  Elec       q    Type
REMARK                         _______ _______ _______ _____ _____    ______ ____
ROOT
ATOM      1  N   UNL     1       7.758   7.004  17.949  0.00  0.00    +0.000 N 
ATOM      2  C   UNL     1       6.825   6.069  17.596  0.00  0.00    +0.000 A 
ATOM      3  C   UNL     1       6.860   5.118  18.582  0.00  0.00    +0.000 A 
ATOM      4  C   UNL     1       7.833   5.581  19.498  0.00  0.00    +0.000 A 
ATOM      5  N   UNL     1       8.372   6.744  19.119  0.00  0.00    +0.000 NA
ENDROOT
BRANCH   3   6
ATOM      6  N   UNL     1       6.104   4.003  18.623  0.00  0.00    +0.000 N 
ATOM      7  C   UNL     1       4.795   3.889  19.082  0.00  0.00    +0.000 A 
ATOM      8  N   UNL     1       4.186   2.706  18.937  0.00  0.00    +0.000 NA
ATOM      9  C   UNL     1       2.890   2.654  19.311  0.00  0.00    +0.000 A 
ATOM     10  C   UNL     1       2.190   3.729  19.816  0.00  0.00    +0.000 A 
ATOM     11 CL   UNL     1       0.515   3.585  20.166  0.00  0.00    +0.000 Cl
ATOM     12  C   UNL     1       2.917   4.893  20.005  0.00  0.00    +0.000 A 
ATOM     13  N   UNL     1       4.206   4.957  19.645  0.00  0.00    +0.000 NA
ATOM     14  H   UNL     1       6.476   3.085  18.419  0.00  0.00    +0.000 HD
BRANCH  12  15
ATOM     15  N   UNL     1       2.317   6.053  20.541  0.00  0.00    +0.000 N 
ATOM     16  H   UNL     1       1.634   5.815  21.249  0.00  0.00    +0.000 HD
BRANCH  15  17
ATOM     17  C   UNL     1       2.071   7.286  19.898  0.00  0.00    +0.000 A 
ATOM     18  C   UNL     1       2.414   7.455  18.549  0.00  0.00    +0.000 A 
ATOM     19  C   UNL     1       2.028   8.600  17.843  0.00  0.00    +0.000 A 
ATOM     20  C   UNL     1       1.285   9.593  18.475  0.00  0.00    +0.000 A 
ATOM     21  C   UNL     1       0.981   9.467  19.828  0.00  0.00    +0.000 A 
ATOM     22  C   UNL     1       1.394   8.333  20.540  0.00  0.00    +0.000 A 
ENDBRANCH  15  17
ENDBRANCH  12  15
ENDBRANCH   3   6
BRANCH   1  23
ATOM     23  C   UNL     1       8.058   8.232  17.240  0.00  0.00    +0.000 C 
BRANCH  23  24
ATOM     24  C   UNL     1       7.873   9.487  18.094  0.00  0.00    +0.000 C 
BRANCH  24  25
ATOM     25  C   UNL     1       9.200   9.910  18.729  0.00  0.00    +0.000 C 
BRANCH  25  26
ATOM     26  C   UNL     1       9.336  11.434  18.797  0.00  0.00    +0.000 C 
BRANCH  26  27
ATOM     27  C   UNL     1      10.169  11.864  20.009  0.00  0.00    +0.000 C 
BRANCH  27  28
ATOM     28  C   UNL     1      11.151  12.988  19.663  0.00  0.00    +0.000 C 
BRANCH  28  30
ATOM     29  O   UNL     1      12.124  12.289  17.543  0.00  0.00    +0.000 OA
ATOM     30  C   UNL     1      11.435  13.083  18.169  0.00  0.00    +0.000 C 
ATOM     31  N   UNL     1      10.846  14.171  17.572  0.00  0.00    +0.000 N 
ATOM     32  H   UNL     1      10.273  14.858  18.053  0.00  0.00    +0.000 HD
BRANCH  31  33
ATOM     33  O   UNL     1      11.057  14.368  16.191  0.00  0.00    +0.000 OA
ATOM     34  H   UNL     1      10.165  14.630  15.874  0.00  0.00    +0.000 HD
ENDBRANCH  31  33
ENDBRANCH  28  30
ENDBRANCH  27  28
ENDBRANCH  26  27
ENDBRANCH  25  26
ENDBRANCH  24  25
ENDBRANCH  23  24
ENDBRANCH   1  23
TORSDOF 11
ENDMDL
MODEL 5
REMARK VINA RESULT:      -8.1      1.299      1.763
REMARK  Name = 
REMARK  11 active torsions:
REMARK  status: ('A' for Active; 'I' for Inactive)
REMARK    1  A    between atoms: C_2  and  C_3
REMARK    2  A    between atoms: C_3  and  C_4
REMARK    3  A    between atoms: C_4  and  C_5
REMARK    4  A    between atoms: C_5  and  C_6
REMARK    5  A    between atoms: C_6  and  C_7
REMARK    6  A    between atoms: C_7  and  C_8
REMARK    7  A    between atoms: C_8  and  N_9
REMARK    8  A    between atoms: C_11  and  N_12
REMARK    9  A    between atoms: C_18  and  N_19
REMARK   10  A    between atoms: N_19  and  C_20
REMARK   11  A    between atoms: N_29  and  O_30
REMARK                            x       y       z     vdW  Elec       q    Type
REMARK                         _______ _______ _______ _____ _____    ______ ____
ROOT
ATOM      1  N   UNL     1       7.816   7.342  18.116  0.00  0.00    +0.000 N 
ATOM      2  C   UNL     1       6.865   6.471  17.660  0.00  0.00    +0.000 A 
ATOM      3  C   UNL     1       6.955   5.367  18.467  0.00  0.00    +0.000 A 
ATOM      4  C   UNL     1       7.977   5.678  19.394  0.00  0.00    +0.000 A 
ATOM      5  N   UNL     1       8.494   6.893  19.189  0.00  0.00    +0.000 NA
ENDROOT
BRANCH   3   6
ATOM      6  N   UNL     1       6.204   4.253  18.358  0.00  0.00    +0.000 N 
ATOM      7  C   UNL     1       4.896   4.074  18.802  0.00  0.00    +0.000 A 
ATOM      8  N   UNL     1       4.291   2.919  18.500  0.00  0.00    +0.000 NA
ATOM      9  C   UNL     1       2.996   2.811  18.867  0.00  0.00    +0.000 A 
ATOM     10  C   UNL     1       2.295   3.805  19.515  0.00  0.00    +0.000 A 
ATOM     11 CL   UNL     1       0.622   3.609  19.848  0.00  0.00    +0.000 Cl
ATOM     12  C   UNL     1       3.019   4.936  19.859  0.00  0.00    +0.000 A 
ATOM     13  N   UNL     1       4.306   5.053  19.506  0.00  0.00    +0.000 NA
ATOM     14  H   UNL     1       6.578   3.373  18.030  0.00  0.00    +0.000 HD
BRANCH  12  15
ATOM     15  N   UNL     1       2.417   6.010  20.548  0.00  0.00    +0.000 N 
ATOM     16  H   UNL     1       1.810   5.674  21.286  0.00  0.00    +0.000 HD
BRANCH  15  17
ATOM     17  C   UNL     1       2.059   7.281  20.046  0.00  0.00    +0.000 A 
ATOM     18  C   UNL     1       2.331   7.609  18.710  0.00  0.00    +0.000 A 
ATOM     19  C   UNL     1       1.836   8.788  18.141  0.00  0.00    +0.000 A 
ATOM     20  C   UNL     1       1.056   9.656  18.900  0.00  0.00    +0.000 A 
ATOM     21  C   UNL     1       0.822   9.373  20.243  0.00  0.00    +0.000 A 
ATOM     22  C   UNL     1       1.342   8.206  20.817  0.00  0.00    +0.000 A 
ENDBRANCH  15  17
ENDBRANCH  12  15
ENDBRANCH   3   6
BRANCH   1  23
ATOM     23  C   UNL     1       8.075   8.675  17.611  0.00  0.00    +0.000 C 
BRANCH  23  24
ATOM     24  C   UNL     1       8.762   9.588  18.628  0.00  0.00    +0.000 C 
BRANCH  24  25
ATOM     25  C   UNL     1       8.981  10.985  18.041  0.00  0.00    +0.000 C 
BRANCH  25  26
ATOM     26  C   UNL     1      10.468  11.291  17.844  0.00  0.00    +0.000 C 
BRANCH  26  27
ATOM     27  C   UNL     1      10.682  12.733  17.375  0.00  0.00    +0.000 C 
BRANCH  27  28
ATOM     28  C   UNL     1      11.955  13.347  17.966  0.00  0.00    +0.000 C 
BRANCH  28  30
ATOM     29  O   UNL     1      11.282  13.684  20.282  0.00  0.00    +0.000 OA
ATOM     30  C   UNL     1      11.689  14.156  19.229  0.00  0.00    +0.000 C 
ATOM     31  N   UNL     1      11.940  15.499  19.077  0.00  0.00    +0.000 N 
ATOM     32  H   UNL     1      12.271  15.934  18.221  0.00  0.00    +0.000 HD
BRANCH  31  33
ATOM     33  O   UNL     1      11.712  16.348  20.180  0.00  0.00    +0.000 OA
ATOM     34  H   UNL     1      12.014  17.219  19.846  0.00  0.00    +0.000 HD
ENDBRANCH  31  33
ENDBRANCH  28  30
ENDBRANCH  27  28
ENDBRANCH  26  27
ENDBRANCH  25  26
ENDBRANCH  24  25
ENDBRANCH  23  24
ENDBRANCH   1  23
TORSDOF 11
ENDMDL
MODEL 6
REMARK VINA RESULT:      -8.0      2.531      2.858
REMARK  Name = 
REMARK  11 active torsions:
REMARK  status: ('A' for Active; 'I' for Inactive)
REMARK    1  A    between atoms: C_2  and  C_3
REMARK    2  A    between atoms: C_3  and  C_4
REMARK    3  A    between atoms: C_4  and  C_5
REMARK    4  A    between atoms: C_5  and  C_6
REMARK    5  A    between atoms: C_6  and  C_7
REMARK    6  A    between atoms: C_7  and  C_8
REMARK    7  A    between atoms: C_8  and  N_9
REMARK    8  A    between atoms: C_11  and  N_12
REMARK    9  A    between atoms: C_18  and  N_19
REMARK   10  A    between atoms: N_19  and  C_20
REMARK   11  A    between atoms: N_29  and  O_30
REMARK                            x       y       z     vdW  Elec       q    Type
REMARK                         _______ _______ _______ _____ _____    ______ ____
ROOT
ATOM      1  N   UNL     1       7.753   7.260  18.054  0.00  0.00    +0.000 N 
ATOM      2  C   UNL     1       6.797   6.411  17.569  0.00  0.00    +0.000 A 
ATOM      3  C   UNL     1       6.894   5.272  18.324  0.00  0.00    +0.000 A 
ATOM      4  C   UNL     1       7.925   5.540  19.254  0.00  0.00    +0.000 A 
ATOM      5  N   UNL     1       8.441   6.764  19.099  0.00  0.00    +0.000 NA
ENDROOT
BRANCH   3   6
ATOM      6  N   UNL     1       6.141   4.164  18.172  0.00  0.00    +0.000 N 
ATOM      7  C   UNL     1       4.846   3.957  18.639  0.00  0.00    +0.000 A 
ATOM      8  N   UNL     1       4.234   2.819  18.289  0.00  0.00    +0.000 NA
ATOM      9  C   UNL     1       2.950   2.688  18.683  0.00  0.00    +0.000 A 
ATOM     10  C   UNL     1       2.265   3.642  19.406  0.00  0.00    +0.000 A 
ATOM     11 CL   UNL     1       0.602   3.423  19.771  0.00  0.00    +0.000 Cl
ATOM     12  C   UNL     1       2.997   4.753  19.793  0.00  0.00    +0.000 A 
ATOM     13  N   UNL     1       4.274   4.893  19.414  0.00  0.00    +0.000 NA
ATOM     14  H   UNL     1       6.507   3.305  17.785  0.00  0.00    +0.000 HD
BRANCH  12  15
ATOM     15  N   UNL     1       2.413   5.784  20.559  0.00  0.00    +0.000 N 
ATOM     16  H   UNL     1       1.807   5.406  21.276  0.00  0.00    +0.000 HD
BRANCH  15  17
ATOM     17  C   UNL     1       2.068   7.091  20.146  0.00  0.00    +0.000 A 
ATOM     18  C   UNL     1       2.338   7.508  18.835  0.00  0.00    +0.000 A 
ATOM     19  C   UNL     1       1.855   8.728  18.351  0.00  0.00    +0.000 A 
ATOM     20  C   UNL     1       1.087   9.551  19.171  0.00  0.00    +0.000 A 
ATOM     21  C   UNL     1       0.854   9.178  20.492  0.00  0.00    +0.000 A 
ATOM     22  C   UNL     1       1.363   7.968  20.983  0.00  0.00    +0.000 A 
ENDBRANCH  15  17
ENDBRANCH  12  15
ENDBRANCH   3   6
BRANCH   1  23
ATOM     23  C   UNL     1       8.008   8.615  17.607  0.00  0.00    +0.000 C 
BRANCH  23  24
ATOM     24  C   UNL     1       8.743   9.468  18.642  0.00  0.00    +0.000 C 
BRANCH  24  25
ATOM     25  C   UNL     1       9.038  10.863  18.084  0.00  0.00    +0.000 C 
BRANCH  25  26
ATOM     26  C   UNL     1      10.481  11.293  18.364  0.00  0.00    +0.000 C 
BRANCH  26  27
ATOM     27  C   UNL     1      10.613  11.924  19.754  0.00  0.00    +0.000 C 
BRANCH  27  28
ATOM     28  C   UNL     1       9.359  12.711  20.150  0.00  0.00    +0.000 C 
BRANCH  28  30
ATOM     29  O   UNL     1       8.467  11.404  22.000  0.00  0.00    +0.000 OA
ATOM     30  C   UNL     1       8.935  12.458  21.590  0.00  0.00    +0.000 C 
ATOM     31  N   UNL     1       9.115  13.546  22.410  0.00  0.00    +0.000 N 
ATOM     32  H   UNL     1       9.492  14.441  22.112  0.00  0.00    +0.000 HD
BRANCH  31  33
ATOM     33  O   UNL     1       8.739  13.429  23.764  0.00  0.00    +0.000 OA
ATOM     34  H   UNL     1       8.537  14.357  24.011  0.00  0.00    +0.000 HD
ENDBRANCH  31  33
ENDBRANCH  28  30
ENDBRANCH  27  28
ENDBRANCH  26  27
ENDBRANCH  25  26
ENDBRANCH  24  25
ENDBRANCH  23  24
ENDBRANCH   1  23
TORSDOF 11
ENDMDL
MODEL 7
REMARK VINA RESULT:      -7.9      1.232      1.709
REMARK  Name = 
REMARK  11 active torsions:
REMARK  status: ('A' for Active; 'I' for Inactive)
REMARK    1  A    between atoms: C_2  and  C_3
REMARK    2  A    between atoms: C_3  and  C_4
REMARK    3  A    between atoms: C_4  and  C_5
REMARK    4  A    between atoms: C_5  and  C_6
REMARK    5  A    between atoms: C_6  and  C_7
REMARK    6  A    between atoms: C_7  and  C_8
REMARK    7  A    between atoms: C_8  and  N_9
REMARK    8  A    between atoms: C_11  and  N_12
REMARK    9  A    between atoms: C_18  and  N_19
REMARK   10  A    between atoms: N_19  and  C_20
REMARK   11  A    between atoms: N_29  and  O_30
REMARK                            x       y       z     vdW  Elec       q    Type
REMARK                         _______ _______ _______ _____ _____    ______ ____
ROOT
ATOM      1  N   UNL     1       6.692   6.704  17.073  0.00  0.00    +0.000 N 
ATOM      2  C   UNL     1       6.734   5.894  18.174  0.00  0.00    +0.000 A 
ATOM      3  C   UNL     1       6.057   4.755  17.824  0.00  0.00    +0.000 A 
ATOM      4  C   UNL     1       5.663   4.966  16.482  0.00  0.00    +0.000 A 
ATOM      5  N   UNL     1       6.065   6.153  16.017  0.00  0.00    +0.000 NA
ENDROOT
BRANCH   3   6
ATOM      6  N   UNL     1       5.845   3.691  18.624  0.00  0.00    +0.000 N 
ATOM      7  C   UNL     1       4.770   3.487  19.485  0.00  0.00    +0.000 A 
ATOM      8  N   UNL     1       4.695   2.309  20.116  0.00  0.00    +0.000 NA
ATOM      9  C   UNL     1       3.596   2.108  20.874  0.00  0.00    +0.000 A 
ATOM     10  C   UNL     1       2.582   3.032  21.020  0.00  0.00    +0.000 A 
ATOM     11 CL   UNL     1       1.178   2.640  21.925  0.00  0.00    +0.000 Cl
ATOM     12  C   UNL     1       2.778   4.254  20.396  0.00  0.00    +0.000 A 
ATOM     13  N   UNL     1       3.868   4.468  19.646  0.00  0.00    +0.000 NA
ATOM     14  H   UNL     1       6.536   2.965  18.760  0.00  0.00    +0.000 HD
BRANCH  12  15
ATOM     15  N   UNL     1       1.824   5.288  20.495  0.00  0.00    +0.000 N 
ATOM     16  H   UNL     1       0.885   4.913  20.549  0.00  0.00    +0.000 HD
BRANCH  15  17
ATOM     17  C   UNL     1       1.890   6.593  19.959  0.00  0.00    +0.000 A 
ATOM     18  C   UNL     1       2.328   6.790  18.642  0.00  0.00    +0.000 A 
ATOM     19  C   UNL     1       2.241   8.046  18.032  0.00  0.00    +0.000 A 
ATOM     20  C   UNL     1       1.708   9.126  18.729  0.00  0.00    +0.000 A 
ATOM     21  C   UNL     1       1.318   8.962  20.055  0.00  0.00    +0.000 A 
ATOM     22  C   UNL     1       1.432   7.710  20.673  0.00  0.00    +0.000 A 
ENDBRANCH  15  17
ENDBRANCH  12  15
ENDBRANCH   3   6
BRANCH   1  23
ATOM     23  C   UNL     1       7.315   8.006  16.938  0.00  0.00    +0.000 C 
BRANCH  23  24
ATOM     24  C   UNL     1       8.391   8.278  17.990  0.00  0.00    +0.000 C 
BRANCH  24  25
ATOM     25  C   UNL     1       8.293   9.716  18.505  0.00  0.00    +0.000 C 
BRANCH  25  26
ATOM     26  C   UNL     1       9.676  10.342  18.705  0.00  0.00    +0.000 C 
BRANCH  26  27
ATOM     27  C   UNL     1       9.816  11.646  17.912  0.00  0.00    +0.000 C 
BRANCH  27  28
ATOM     28  C   UNL     1      11.282  12.050  17.724  0.00  0.00    +0.000 C 
BRANCH  28  30
ATOM     29  O   UNL     1      11.977  14.260  18.475  0.00  0.00    +0.000 OA
ATOM     30  C   UNL     1      11.468  13.557  17.611  0.00  0.00    +0.000 C 
ATOM     31  N   UNL     1      10.993  14.077  16.431  0.00  0.00    +0.000 N 
ATOM     32  H   UNL     1      10.559  13.534  15.691  0.00  0.00    +0.000 HD
BRANCH  31  33
ATOM     33  O   UNL     1      11.099  15.469  16.226  0.00  0.00    +0.000 OA
ATOM     34  H   UNL     1      10.193  15.712  15.939  0.00  0.00    +0.000 HD
ENDBRANCH  31  33
ENDBRANCH  28  30
ENDBRANCH  27  28
ENDBRANCH  26  27
ENDBRANCH  25  26
ENDBRANCH  24  25
ENDBRANCH  23  24
ENDBRANCH   1  23
TORSDOF 11
ENDMDL
MODEL 8
REMARK VINA RESULT:      -7.9      2.223      2.607
REMARK  Name = 
REMARK  11 active torsions:
REMARK  status: ('A' for Active; 'I' for Inactive)
REMARK    1  A    between atoms: C_2  and  C_3
REMARK    2  A    between atoms: C_3  and  C_4
REMARK    3  A    between atoms: C_4  and  C_5
REMARK    4  A    between atoms: C_5  and  C_6
REMARK    5  A    between atoms: C_6  and  C_7
REMARK    6  A    between atoms: C_7  and  C_8
REMARK    7  A    between atoms: C_8  and  N_9
REMARK    8  A    between atoms: C_11  and  N_12
REMARK    9  A    between atoms: C_18  and  N_19
REMARK   10  A    between atoms: N_19  and  C_20
REMARK   11  A    between atoms: N_29  and  O_30
REMARK                            x       y       z     vdW  Elec       q    Type
REMARK                         _______ _______ _______ _____ _____    ______ ____
ROOT
ATOM      1  N   UNL     1       7.375   6.948  17.342  0.00  0.00    +0.000 N 
ATOM      2  C   UNL     1       6.889   6.109  18.305  0.00  0.00    +0.000 A 
ATOM      3  C   UNL     1       6.617   4.928  17.668  0.00  0.00    +0.000 A 
ATOM      4  C   UNL     1       6.994   5.147  16.322  0.00  0.00    +0.000 A 
ATOM      5  N   UNL     1       7.473   6.380  16.125  0.00  0.00    +0.000 NA
ENDROOT
BRANCH   3   6
ATOM      6  N   UNL     1       6.105   3.823  18.246  0.00  0.00    +0.000 N 
ATOM      7  C   UNL     1       5.000   3.751  19.090  0.00  0.00    +0.000 A 
ATOM      8  N   UNL     1       4.591   2.536  19.475  0.00  0.00    +0.000 NA
ATOM      9  C   UNL     1       3.465   2.495  20.220  0.00  0.00    +0.000 A 
ATOM     10  C   UNL     1       2.744   3.612  20.587  0.00  0.00    +0.000 A 
ATOM     11 CL   UNL     1       1.270   3.445  21.450  0.00  0.00    +0.000 Cl
ATOM     12  C   UNL     1       3.281   4.833  20.213  0.00  0.00    +0.000 A 
ATOM     13  N   UNL     1       4.401   4.888  19.480  0.00  0.00    +0.000 NA
ATOM     14  H   UNL     1       6.565   2.924  18.207  0.00  0.00    +0.000 HD
BRANCH  12  15
ATOM     15  N   UNL     1       2.648   6.047  20.555  0.00  0.00    +0.000 N 
ATOM     16  H   UNL     1       2.063   5.934  21.373  0.00  0.00    +0.000 HD
BRANCH  15  17
ATOM     17  C   UNL     1       2.238   7.091  19.696  0.00  0.00    +0.000 A 
ATOM     18  C   UNL     1       1.485   8.161  20.200  0.00  0.00    +0.000 A 
ATOM     19  C   UNL     1       1.215   9.287  19.416  0.00  0.00    +0.000 A 
ATOM     20  C   UNL     1       1.699   9.364  18.113  0.00  0.00    +0.000 A 
ATOM     21  C   UNL     1       2.402   8.289  17.577  0.00  0.00    +0.000 A 
ATOM     22  C   UNL     1       2.648   7.150  18.356  0.00  0.00    +0.000 A 
ENDBRANCH  15  17
ENDBRANCH  12  15
ENDBRANCH   3   6
BRANCH   1  23
ATOM     23  C   UNL     1       7.848   8.304  17.539  0.00  0.00    +0.000 C 
BRANCH  23  24
ATOM     24  C   UNL     1       8.403   8.556  18.941  0.00  0.00    +0.000 C 
BRANCH  24  25
ATOM     25  C   UNL     1       9.443   9.679  18.919  0.00  0.00    +0.000 C 
BRANCH  25  26
ATOM     26  C   UNL     1       8.959  10.884  18.108  0.00  0.00    +0.000 C 
BRANCH  26  27
ATOM     27  C   UNL     1       9.075  12.181  18.917  0.00  0.00    +0.000 C 
BRANCH  27  28
ATOM     28  C   UNL     1      10.240  12.138  19.910  0.00  0.00    +0.000 C 
BRANCH  28  30
ATOM     29  O   UNL     1       9.993  13.676  21.782  0.00  0.00    +0.000 OA
ATOM     30  C   UNL     1       9.831  12.555  21.317  0.00  0.00    +0.000 C 
ATOM     31  N   UNL     1       9.261  11.537  22.043  0.00  0.00    +0.000 N 
ATOM     32  H   UNL     1       9.115  10.592  21.700  0.00  0.00    +0.000 HD
BRANCH  31  33
ATOM     33  O   UNL     1       8.859  11.807  23.367  0.00  0.00    +0.000 OA
ATOM     34  H   UNL     1       7.907  12.019  23.263  0.00  0.00    +0.000 HD
ENDBRANCH  31  33
ENDBRANCH  28  30
ENDBRANCH  27  28
ENDBRANCH  26  27
ENDBRANCH  25  26
ENDBRANCH  24  25
ENDBRANCH  23  24
ENDBRANCH   1  23
TORSDOF 11
ENDMDL
MODEL 9
REMARK VINA RESULT:      -7.8      1.749      1.975
REMARK  Name = 
REMARK  11 active torsions:
REMARK  status: ('A' for Active; 'I' for Inactive)
REMARK    1  A    between atoms: C_2  and  C_3
REMARK    2  A    between atoms: C_3  and  C_4
REMARK    3  A    between atoms: C_4  and  C_5
REMARK    4  A    between atoms: C_5  and  C_6
REMARK    5  A    between atoms: C_6  and  C_7
REMARK    6  A    between atoms: C_7  and  C_8
REMARK    7  A    between atoms: C_8  and  N_9
REMARK    8  A    between atoms: C_11  and  N_12
REMARK    9  A    between atoms: C_18  and  N_19
REMARK   10  A    between atoms: N_19  and  C_20
REMARK   11  A    between atoms: N_29  and  O_30
REMARK                            x       y       z     vdW  Elec       q    Type
REMARK                         _______ _______ _______ _____ _____    ______ ____
ROOT
ATOM      1  N   UNL     1       8.050   7.549  18.268  0.00  0.00    +0.000 N 
ATOM      2  C   UNL     1       7.744   6.414  18.966  0.00  0.00    +0.000 A 
ATOM      3  C   UNL     1       6.992   5.647  18.116  0.00  0.00    +0.000 A 
ATOM      4  C   UNL     1       6.917   6.398  16.920  0.00  0.00    +0.000 A 
ATOM      5  N   UNL     1       7.578   7.556  17.007  0.00  0.00    +0.000 NA
ENDROOT
BRANCH   3   6
ATOM      6  N   UNL     1       6.465   4.441  18.407  0.00  0.00    +0.000 N 
ATOM      7  C   UNL     1       5.251   4.184  19.039  0.00  0.00    +0.000 A 
ATOM      8  N   UNL     1       4.861   2.907  19.139  0.00  0.00    +0.000 NA
ATOM      9  C   UNL     1       3.640   2.698  19.677  0.00  0.00    +0.000 A 
ATOM     10  C   UNL     1       2.807   3.707  20.111  0.00  0.00    +0.000 A 
ATOM     11 CL   UNL     1       1.232   3.342  20.687  0.00  0.00    +0.000 Cl
ATOM     12  C   UNL     1       3.321   4.992  20.043  0.00  0.00    +0.000 A 
ATOM     13  N   UNL     1       4.534   5.213  19.518  0.00  0.00    +0.000 NA
ATOM     14  H   UNL     1       6.978   3.578  18.287  0.00  0.00    +0.000 HD
BRANCH  12  15
ATOM     15  N   UNL     1       2.573   6.104  20.483  0.00  0.00    +0.000 N 
ATOM     16  H   UNL     1       1.954   5.849  21.243  0.00  0.00    +0.000 HD
BRANCH  15  17
ATOM     17  C   UNL     1       2.129   7.213  19.729  0.00  0.00    +0.000 A 
ATOM     18  C   UNL     1       1.419   8.248  20.353  0.00  0.00    +0.000 A 
ATOM     19  C   UNL     1       1.118   9.432  19.671  0.00  0.00    +0.000 A 
ATOM     20  C   UNL     1       1.529   9.602  18.352  0.00  0.00    +0.000 A 
ATOM     21  C   UNL     1       2.188   8.564  17.699  0.00  0.00    +0.000 A 
ATOM     22  C   UNL     1       2.463   7.368  18.376  0.00  0.00    +0.000 A 
ENDBRANCH  15  17
ENDBRANCH  12  15
ENDBRANCH   3   6
BRANCH   1  23
ATOM     23  C   UNL     1       8.873   8.649  18.731  0.00  0.00    +0.000 C 
BRANCH  23  24
ATOM     24  C   UNL     1       8.528   9.986  18.072  0.00  0.00    +0.000 C 
BRANCH  24  25
ATOM     25  C   UNL     1       9.693  10.970  18.203  0.00  0.00    +0.000 C 
BRANCH  25  26
ATOM     26  C   UNL     1       9.362  12.327  17.575  0.00  0.00    +0.000 C 
BRANCH  26  27
ATOM     27  C   UNL     1       8.539  13.197  18.530  0.00  0.00    +0.000 C 
BRANCH  27  28
ATOM     28  C   UNL     1       7.456  13.992  17.795  0.00  0.00    +0.000 C 
BRANCH  28  30
ATOM     29  O   UNL     1       5.927  15.814  18.317  0.00  0.00    +0.000 OA
ATOM     30  C   UNL     1       6.718  14.964  18.706  0.00  0.00    +0.000 C 
ATOM     31  N   UNL     1       7.032  14.811  20.034  0.00  0.00    +0.000 N 
ATOM     32  H   UNL     1       7.686  14.125  20.400  0.00  0.00    +0.000 HD
BRANCH  31  33
ATOM     33  O   UNL     1       6.419  15.672  20.968  0.00  0.00    +0.000 OA
ATOM     34  H   UNL     1       6.959  15.532  21.775  0.00  0.00    +0.000 HD
ENDBRANCH  31  33
ENDBRANCH  28  30
ENDBRANCH  27  28
ENDBRANCH  26  27
ENDBRANCH  25  26
ENDBRANCH  24  25
ENDBRANCH  23  24
ENDBRANCH   1  23
TORSDOF 11
ENDMDL
