MODEL 1
REMARK VINA RESULT:      -7.7      0.000      0.000
REMARK  Name = 
REMARK  6 active torsions:
REMARK  status: ('A' for Active; 'I' for Inactive)
REMARK    1  A    between atoms: C_1  and  C_2
REMARK    2  A    between atoms: C_5  and  S_6
REMARK    3  A    between atoms: S_6  and  N_9
REMARK    4  A    between atoms: N_9  and  C_10
REMARK    5  A    between atoms: C_10  and  C_11
REMARK    6  A    between atoms: N_19  and  C_20
REMARK                            x       y       z     vdW  Elec       q    Type
REMARK                         _______ _______ _______ _____ _____    ______ ____
ROOT
ATOM      1  N   UNL     1       4.250   5.658  19.607  0.00  0.00    +0.000 NA
ATOM      2  H   UNL     1       4.644   6.110  20.436  0.00  0.00    +0.000 HD
ENDROOT
BRANCH   1   3
ATOM      3  S   UNL     1       2.558   5.601  19.685  0.00  0.00    +0.000 S 
ATOM      4  O   UNL     1       2.175   5.196  21.020  0.00  0.00    +0.000 OA
ATOM      5  O   UNL     1       2.107   4.877  18.516  0.00  0.00    +0.000 OA
BRANCH   3  10
ATOM      6  C   UNL     1       0.658  11.313  18.812  0.00  0.00    +0.000 C 
ATOM      7  C   UNL     1       1.167   9.918  19.035  0.00  0.00    +0.000 A 
ATOM      8  C   UNL     1       1.756   9.194  17.990  0.00  0.00    +0.000 A 
ATOM      9  C   UNL     1       2.209   7.889  18.199  0.00  0.00    +0.000 A 
ATOM     10  C   UNL     1       2.082   7.303  19.463  0.00  0.00    +0.000 A 
ATOM     11  C   UNL     1       1.481   8.007  20.508  0.00  0.00    +0.000 A 
ATOM     12  C   UNL     1       1.036   9.315  20.294  0.00  0.00    +0.000 A 
ENDBRANCH   3  10
ENDBRANCH   1   3
BRANCH   1  13
ATOM     13  C   UNL     1       4.893   4.356  19.361  0.00  0.00    +0.000 C 
BRANCH  13  14
ATOM     14  C   UNL     1       5.411   4.328  17.957  0.00  0.00    +0.000 A 
ATOM     15  N   UNL     1       4.805   3.732  16.940  0.00  0.00    +0.000 NA
ATOM     16  C   UNL     1       5.551   4.050  15.832  0.00  0.00    +0.000 A 
ATOM     17  C   UNL     1       5.362   3.751  14.478  0.00  0.00    +0.000 A 
ATOM     18  C   UNL     1       6.308   4.246  13.577  0.00  0.00    +0.000 A 
ATOM     19  C   UNL     1       7.377   4.994  14.059  0.00  0.00    +0.000 A 
ATOM     20  N   UNL     1       7.603   5.311  15.359  0.00  0.00    +0.000 NA
ATOM     21  C   UNL     1       6.657   4.815  16.179  0.00  0.00    +0.000 A 
ATOM     22  N   UNL     1       6.564   4.963  17.537  0.00  0.00    +0.000 N 
ATOM     23  C   UNL     1       7.499   5.697  18.354  0.00  0.00    +0.000 C 
ENDBRANCH  13  14
ENDBRANCH   1  13
TORSDOF 4
ENDMDL
MODEL 2
REMARK VINA RESULT:      -7.5      0.340      1.085
REMARK  Name = 
REMARK  6 active torsions:
REMARK  status: ('A' for Active; 'I' for Inactive)
REMARK    1  A    between atoms: C_1  and  C_2
REMARK    2  A    between atoms: C_5  and  S_6
REMARK    3  A    between atoms: S_6  and  N_9
REMARK    4  A    between atoms: N_9  and  C_10
REMARK    5  A    between atoms: C_10  and  C_11
REMARK    6  A    between atoms: N_19  and  C_20
REMARK                            x       y       z     vdW  Elec       q    Type
REMARK                         _______ _______ _______ _____ _____    ______ ____
ROOT
ATOM      1  N   UNL     1       4.331   5.806  19.208  0.00  0.00    +0.000 NA
ATOM      2  H   UNL     1       4.729   6.362  19.970  0.00  0.00    +0.000 HD
ENDROOT
BRANCH   1   3
ATOM      3  S   UNL     1       2.656   5.625  19.392  0.00  0.00    +0.000 S 
ATOM      4  O   UNL     1       2.389   5.174  20.740  0.00  0.00    +0.000 OA
ATOM      5  O   UNL     1       2.184   4.888  18.240  0.00  0.00    +0.000 OA
BRANCH   3  10
ATOM      6  C   UNL     1       0.845  11.416  18.965  0.00  0.00    +0.000 C 
ATOM      7  C   UNL     1       1.251   9.974  19.062  0.00  0.00    +0.000 A 
ATOM      8  C   UNL     1       1.121   9.272  20.267  0.00  0.00    +0.000 A 
ATOM      9  C   UNL     1       1.520   7.936  20.357  0.00  0.00    +0.000 A 
ATOM     10  C   UNL     1       2.046   7.291  19.233  0.00  0.00    +0.000 A 
ATOM     11  C   UNL     1       2.198   7.984  18.030  0.00  0.00    +0.000 A 
ATOM     12  C   UNL     1       1.790   9.319  17.946  0.00  0.00    +0.000 A 
ENDBRANCH   3  10
ENDBRANCH   1   3
BRANCH   1  13
ATOM     13  C   UNL     1       5.066   4.541  19.039  0.00  0.00    +0.000 C 
BRANCH  13  14
ATOM     14  C   UNL     1       5.583   4.464  17.636  0.00  0.00    +0.000 A 
ATOM     15  N   UNL     1       5.032   3.749  16.667  0.00  0.00    +0.000 NA
ATOM     16  C   UNL     1       5.745   4.056  15.534  0.00  0.00    +0.000 A 
ATOM     17  C   UNL     1       5.582   3.651  14.205  0.00  0.00    +0.000 A 
ATOM     18  C   UNL     1       6.480   4.165  13.266  0.00  0.00    +0.000 A 
ATOM     19  C   UNL     1       7.479   5.036  13.689  0.00  0.00    +0.000 A 
ATOM     20  N   UNL     1       7.676   5.459  14.963  0.00  0.00    +0.000 NA
ATOM     21  C   UNL     1       6.779   4.938  15.821  0.00  0.00    +0.000 A 
ATOM     22  N   UNL     1       6.675   5.169  17.167  0.00  0.00    +0.000 N 
ATOM     23  C   UNL     1       7.542   6.036  17.925  0.00  0.00    +0.000 C 
ENDBRANCH  13  14
ENDBRANCH   1  13
TORSDOF 4
ENDMDL
MODEL 3
REMARK VINA RESULT:      -7.4      1.686      2.113
REMARK  Name = 
REMARK  6 active torsions:
REMARK  status: ('A' for Active; 'I' for Inactive)
REMARK    1  A    between atoms: C_1  and  C_2
REMARK    2  A    between atoms: C_5  and  S_6
REMARK    3  A    between atoms: S_6  and  N_9
REMARK    4  A    between atoms: N_9  and  C_10
REMARK    5  A    between atoms: C_10  and  C_11
REMARK    6  A    between atoms: N_19  and  C_20
REMARK                            x       y       z     vdW  Elec       q    Type
REMARK                         _______ _______ _______ _____ _____    ______ ____
ROOT
ATOM      1  N   UNL     1       4.396   3.094  18.321  0.00  0.00    +0.000 NA
ATOM      2  H   UNL     1       4.710   2.380  17.659  0.00  0.00    +0.000 HD
ENDROOT
BRANCH   1   3
ATOM      3  S   UNL     1       2.706   3.224  18.326  0.00  0.00    +0.000 S 
ATOM      4  O   UNL     1       2.178   2.301  19.307  0.00  0.00    +0.000 OA
ATOM      5  O   UNL     1       2.277   3.188  16.945  0.00  0.00    +0.000 OA
BRANCH   3  10
ATOM      6  C   UNL     1       1.455   8.858  20.248  0.00  0.00    +0.000 C 
ATOM      7  C   UNL     1       1.806   7.475  19.780  0.00  0.00    +0.000 A 
ATOM      8  C   UNL     1       2.160   7.238  18.446  0.00  0.00    +0.000 A 
ATOM      9  C   UNL     1       2.465   5.946  18.012  0.00  0.00    +0.000 A 
ATOM     10  C   UNL     1       2.427   4.881  18.918  0.00  0.00    +0.000 A 
ATOM     11  C   UNL     1       2.059   5.101  20.247  0.00  0.00    +0.000 A 
ATOM     12  C   UNL     1       1.761   6.398  20.676  0.00  0.00    +0.000 A 
ENDBRANCH   3  10
ENDBRANCH   1   3
BRANCH   1  13
ATOM     13  C   UNL     1       5.104   4.366  18.100  0.00  0.00    +0.000 C 
BRANCH  13  14
ATOM     14  C   UNL     1       5.718   4.348  16.735  0.00  0.00    +0.000 A 
ATOM     15  N   UNL     1       5.306   3.587  15.732  0.00  0.00    +0.000 NA
ATOM     16  C   UNL     1       6.058   3.970  14.648  0.00  0.00    +0.000 A 
ATOM     17  C   UNL     1       6.025   3.557  13.312  0.00  0.00    +0.000 A 
ATOM     18  C   UNL     1       6.927   4.164  12.434  0.00  0.00    +0.000 A 
ATOM     19  C   UNL     1       7.804   5.128  12.921  0.00  0.00    +0.000 A 
ATOM     20  N   UNL     1       7.874   5.561  14.205  0.00  0.00    +0.000 NA
ATOM     21  C   UNL     1       6.979   4.949  15.002  0.00  0.00    +0.000 A 
ATOM     22  N   UNL     1       6.763   5.161  16.338  0.00  0.00    +0.000 N 
ATOM     23  C   UNL     1       7.487   6.106  17.151  0.00  0.00    +0.000 C 
ENDBRANCH  13  14
ENDBRANCH   1  13
TORSDOF 4
ENDMDL
MODEL 4
REMARK VINA RESULT:      -7.4      3.070      6.661
REMARK  Name = 
REMARK  6 active torsions:
REMARK  status: ('A' for Active; 'I' for Inactive)
REMARK    1  A    between atoms: C_1  and  C_2
REMARK    2  A    between atoms: C_5  and  S_6
REMARK    3  A    between atoms: S_6  and  N_9
REMARK    4  A    between atoms: N_9  and  C_10
REMARK    5  A    between atoms: C_10  and  C_11
REMARK    6  A    between atoms: N_19  and  C_20
REMARK                            x       y       z     vdW  Elec       q    Type
REMARK                         _______ _______ _______ _____ _____    ______ ____
ROOT
ATOM      1  N   UNL     1       5.853   6.358  17.736  0.00  0.00    +0.000 NA
ATOM      2  H   UNL     1       5.027   6.227  17.146  0.00  0.00    +0.000 HD
ENDROOT
BRANCH   1   3
ATOM      3  S   UNL     1       7.267   5.906  16.920  0.00  0.00    +0.000 S 
ATOM      4  O   UNL     1       7.933   4.879  17.691  0.00  0.00    +0.000 OA
ATOM      5  O   UNL     1       7.945   7.128  16.543  0.00  0.00    +0.000 OA
BRANCH   3  10
ATOM      6  C   UNL     1       5.320   3.109  11.881  0.00  0.00    +0.000 C 
ATOM      7  C   UNL     1       5.787   3.837  13.108  0.00  0.00    +0.000 A 
ATOM      8  C   UNL     1       7.048   4.446  13.145  0.00  0.00    +0.000 A 
ATOM      9  C   UNL     1       7.485   5.104  14.298  0.00  0.00    +0.000 A 
ATOM     10  C   UNL     1       6.653   5.164  15.421  0.00  0.00    +0.000 A 
ATOM     11  C   UNL     1       5.400   4.547  15.404  0.00  0.00    +0.000 A 
ATOM     12  C   UNL     1       4.967   3.896  14.244  0.00  0.00    +0.000 A 
ENDBRANCH   3  10
ENDBRANCH   1   3
BRANCH   1  13
ATOM     13  C   UNL     1       5.673   5.712  19.047  0.00  0.00    +0.000 C 
BRANCH  13  14
ATOM     14  C   UNL     1       4.488   4.799  18.979  0.00  0.00    +0.000 A 
ATOM     15  N   UNL     1       4.549   3.499  18.730  0.00  0.00    +0.000 NA
ATOM     16  C   UNL     1       3.264   3.037  18.878  0.00  0.00    +0.000 A 
ATOM     17  C   UNL     1       2.735   1.745  18.796  0.00  0.00    +0.000 A 
ATOM     18  C   UNL     1       1.364   1.600  19.019  0.00  0.00    +0.000 A 
ATOM     19  C   UNL     1       0.600   2.729  19.303  0.00  0.00    +0.000 A 
ATOM     20  N   UNL     1       1.066   4.000  19.394  0.00  0.00    +0.000 NA
ATOM     21  C   UNL     1       2.392   4.077  19.177  0.00  0.00    +0.000 A 
ATOM     22  N   UNL     1       3.184   5.193  19.215  0.00  0.00    +0.000 N 
ATOM     23  C   UNL     1       2.717   6.528  19.498  0.00  0.00    +0.000 C 
ENDBRANCH  13  14
ENDBRANCH   1  13
TORSDOF 4
ENDMDL
MODEL 5
REMARK VINA RESULT:      -7.4      2.822      6.603
REMARK  Name = 
REMARK  6 active torsions:
REMARK  status: ('A' for Active; 'I' for Inactive)
REMARK    1  A    between atoms: C_1  and  C_2
REMARK    2  A    between atoms: C_5  and  S_6
REMARK    3  A    between atoms: S_6  and  N_9
REMARK    4  A    between atoms: N_9  and  C_10
REMARK    5  A    between atoms: C_10  and  C_11
REMARK    6  A    between atoms: N_19  and  C_20
REMARK                            x       y       z     vdW  Elec       q    Type
REMARK                         _______ _______ _______ _____ _____    ______ ____
ROOT
ATOM      1  N   UNL     1       6.887   5.274  18.177  0.00  0.00    +0.000 NA
ATOM      2  H   UNL     1       7.860   5.252  18.494  0.00  0.00    +0.000 HD
ENDROOT
BRANCH   1   3
ATOM      3  S   UNL     1       6.684   6.358  16.892  0.00  0.00    +0.000 S 
ATOM      4  O   UNL     1       7.914   7.102  16.722  0.00  0.00    +0.000 OA
ATOM      5  O   UNL     1       5.418   7.027  17.100  0.00  0.00    +0.000 OA
BRANCH   3  10
ATOM      6  C   UNL     1       5.816   2.919  11.951  0.00  0.00    +0.000 C 
ATOM      7  C   UNL     1       6.049   3.734  13.190  0.00  0.00    +0.000 A 
ATOM      8  C   UNL     1       5.131   3.708  14.248  0.00  0.00    +0.000 A 
ATOM      9  C   UNL     1       5.343   4.485  15.390  0.00  0.00    +0.000 A 
ATOM     10  C   UNL     1       6.485   5.288  15.482  0.00  0.00    +0.000 A 
ATOM     11  C   UNL     1       7.399   5.336  14.428  0.00  0.00    +0.000 A 
ATOM     12  C   UNL     1       7.184   4.551  13.291  0.00  0.00    +0.000 A 
ENDBRANCH   3  10
ENDBRANCH   1   3
BRANCH   1  13
ATOM     13  C   UNL     1       5.970   5.492  19.309  0.00  0.00    +0.000 C 
BRANCH  13  14
ATOM     14  C   UNL     1       4.749   4.648  19.113  0.00  0.00    +0.000 A 
ATOM     15  N   UNL     1       4.763   3.355  18.826  0.00  0.00    +0.000 NA
ATOM     16  C   UNL     1       3.448   2.959  18.853  0.00  0.00    +0.000 A 
ATOM     17  C   UNL     1       2.861   1.700  18.683  0.00  0.00    +0.000 A 
ATOM     18  C   UNL     1       1.470   1.624  18.789  0.00  0.00    +0.000 A 
ATOM     19  C   UNL     1       0.746   2.784  19.049  0.00  0.00    +0.000 A 
ATOM     20  N   UNL     1       1.268   4.024  19.221  0.00  0.00    +0.000 NA
ATOM     21  C   UNL     1       2.609   4.035  19.116  0.00  0.00    +0.000 A 
ATOM     22  N   UNL     1       3.452   5.105  19.257  0.00  0.00    +0.000 N 
ATOM     23  C   UNL     1       3.033   6.454  19.546  0.00  0.00    +0.000 C 
ENDBRANCH  13  14
ENDBRANCH   1  13
TORSDOF 4
ENDMDL
MODEL 6
REMARK VINA RESULT:      -7.3      2.534      7.636
REMARK  Name = 
REMARK  6 active torsions:
REMARK  status: ('A' for Active; 'I' for Inactive)
REMARK    1  A    between atoms: C_1  and  C_2
REMARK    2  A    between atoms: C_5  and  S_6
REMARK    3  A    between atoms: S_6  and  N_9
REMARK    4  A    between atoms: N_9  and  C_10
REMARK    5  A    between atoms: C_10  and  C_11
REMARK    6  A    between atoms: N_19  and  C_20
REMARK                            x       y       z     vdW  Elec       q    Type
REMARK                         _______ _______ _______ _____ _____    ______ ____
ROOT
ATOM      1  N   UNL     1       2.670   5.772  20.594  0.00  0.00    +0.000 NA
ATOM      2  H   UNL     1       3.542   5.886  21.119  0.00  0.00    +0.000 HD
ENDROOT
BRANCH   1   3
ATOM      3  S   UNL     1       2.581   4.240  19.876  0.00  0.00    +0.000 S 
ATOM      4  O   UNL     1       1.335   4.147  19.147  0.00  0.00    +0.000 OA
ATOM      5  O   UNL     1       2.936   3.276  20.896  0.00  0.00    +0.000 OA
BRANCH   3  10
ATOM      6  C   UNL     1       7.066   4.628  15.784  0.00  0.00    +0.000 C 
ATOM      7  C   UNL     1       5.963   4.489  16.795  0.00  0.00    +0.000 A 
ATOM      8  C   UNL     1       4.650   4.221  16.391  0.00  0.00    +0.000 A 
ATOM      9  C   UNL     1       3.625   4.114  17.335  0.00  0.00    +0.000 A 
ATOM     10  C   UNL     1       3.914   4.266  18.695  0.00  0.00    +0.000 A 
ATOM     11  C   UNL     1       5.217   4.550  19.110  0.00  0.00    +0.000 A 
ATOM     12  C   UNL     1       6.239   4.649  18.160  0.00  0.00    +0.000 A 
ENDBRANCH   3  10
ENDBRANCH   1   3
BRANCH   1  13
ATOM     13  C   UNL     1       2.466   6.894  19.663  0.00  0.00    +0.000 C 
BRANCH  13  14
ATOM     14  C   UNL     1       1.581   7.911  20.314  0.00  0.00    +0.000 A 
ATOM     15  N   UNL     1       1.129   7.833  21.557  0.00  0.00    +0.000 NA
ATOM     16  C   UNL     1       0.464   9.013  21.781  0.00  0.00    +0.000 A 
ATOM     17  C   UNL     1      -0.165   9.514  22.926  0.00  0.00    +0.000 A 
ATOM     18  C   UNL     1      -0.744  10.782  22.834  0.00  0.00    +0.000 A 
ATOM     19  C   UNL     1      -0.675  11.473  21.628  0.00  0.00    +0.000 A 
ATOM     20  N   UNL     1      -0.077  11.031  20.493  0.00  0.00    +0.000 NA
ATOM     21  C   UNL     1       0.469   9.811  20.643  0.00  0.00    +0.000 A 
ATOM     22  N   UNL     1       1.165   9.084  19.714  0.00  0.00    +0.000 N 
ATOM     23  C   UNL     1       1.436   9.513  18.364  0.00  0.00    +0.000 C 
ENDBRANCH  13  14
ENDBRANCH   1  13
TORSDOF 4
ENDMDL
MODEL 7
REMARK VINA RESULT:      -7.3      1.053      1.304
REMARK  Name = 
REMARK  6 active torsions:
REMARK  status: ('A' for Active; 'I' for Inactive)
REMARK    1  A    between atoms: C_1  and  C_2
REMARK    2  A    between atoms: C_5  and  S_6
REMARK    3  A    between atoms: S_6  and  N_9
REMARK    4  A    between atoms: N_9  and  C_10
REMARK    5  A    between atoms: C_10  and  C_11
REMARK    6  A    between atoms: N_19  and  C_20
REMARK                            x       y       z     vdW  Elec       q    Type
REMARK                         _______ _______ _______ _____ _____    ______ ____
ROOT
ATOM      1  N   UNL     1       3.848   3.432  19.494  0.00  0.00    +0.000 NA
ATOM      2  H   UNL     1       3.740   2.896  18.628  0.00  0.00    +0.000 HD
ENDROOT
BRANCH   1   3
ATOM      3  S   UNL     1       2.351   3.986  20.062  0.00  0.00    +0.000 S 
ATOM      4  O   UNL     1       2.388   4.005  21.508  0.00  0.00    +0.000 OA
ATOM      5  O   UNL     1       1.330   3.256  19.341  0.00  0.00    +0.000 OA
BRANCH   3  10
ATOM      6  C   UNL     1       1.856   9.699  18.034  0.00  0.00    +0.000 C 
ATOM      7  C   UNL     1       2.021   8.293  18.534  0.00  0.00    +0.000 A 
ATOM      8  C   UNL     1       2.246   7.237  17.643  0.00  0.00    +0.000 A 
ATOM      9  C   UNL     1       2.378   5.928  18.114  0.00  0.00    +0.000 A 
ATOM     10  C   UNL     1       2.295   5.671  19.486  0.00  0.00    +0.000 A 
ATOM     11  C   UNL     1       2.054   6.713  20.385  0.00  0.00    +0.000 A 
ATOM     12  C   UNL     1       1.929   8.021  19.907  0.00  0.00    +0.000 A 
ENDBRANCH   3  10
ENDBRANCH   1   3
BRANCH   1  13
ATOM     13  C   UNL     1       4.868   4.482  19.340  0.00  0.00    +0.000 C 
BRANCH  13  14
ATOM     14  C   UNL     1       5.418   4.424  17.949  0.00  0.00    +0.000 A 
ATOM     15  N   UNL     1       4.880   3.736  16.952  0.00  0.00    +0.000 NA
ATOM     16  C   UNL     1       5.626   4.054  15.844  0.00  0.00    +0.000 A 
ATOM     17  C   UNL     1       5.489   3.677  14.504  0.00  0.00    +0.000 A 
ATOM     18  C   UNL     1       6.417   4.195  13.597  0.00  0.00    +0.000 A 
ATOM     19  C   UNL     1       7.419   5.042  14.061  0.00  0.00    +0.000 A 
ATOM     20  N   UNL     1       7.591   5.437  15.347  0.00  0.00    +0.000 NA
ATOM     21  C   UNL     1       6.666   4.914  16.173  0.00  0.00    +0.000 A 
ATOM     22  N   UNL     1       6.532   5.121  17.520  0.00  0.00    +0.000 N 
ATOM     23  C   UNL     1       7.393   5.959  18.316  0.00  0.00    +0.000 C 
ENDBRANCH  13  14
ENDBRANCH   1  13
TORSDOF 4
ENDMDL
MODEL 8
REMARK VINA RESULT:      -7.3      1.060      1.631
REMARK  Name = 
REMARK  6 active torsions:
REMARK  status: ('A' for Active; 'I' for Inactive)
REMARK    1  A    between atoms: C_1  and  C_2
REMARK    2  A    between atoms: C_5  and  S_6
REMARK    3  A    between atoms: S_6  and  N_9
REMARK    4  A    between atoms: N_9  and  C_10
REMARK    5  A    between atoms: C_10  and  C_11
REMARK    6  A    between atoms: N_19  and  C_20
REMARK                            x       y       z     vdW  Elec       q    Type
REMARK                         _______ _______ _______ _____ _____    ______ ____
ROOT
ATOM      1  N   UNL     1       3.728   5.257  17.652  0.00  0.00    +0.000 NA
ATOM      2  H   UNL     1       4.021   6.189  17.346  0.00  0.00    +0.000 HD
ENDROOT
BRANCH   1   3
ATOM      3  S   UNL     1       2.803   5.340  19.069  0.00  0.00    +0.000 S 
ATOM      4  O   UNL     1       3.690   5.207  20.204  0.00  0.00    +0.000 OA
ATOM      5  O   UNL     1       1.672   4.456  18.885  0.00  0.00    +0.000 OA
BRANCH   3  10
ATOM      6  C   UNL     1       0.932  11.128  19.108  0.00  0.00    +0.000 C 
ATOM      7  C   UNL     1       1.353   9.686  19.092  0.00  0.00    +0.000 A 
ATOM      8  C   UNL     1       1.287   8.907  20.253  0.00  0.00    +0.000 A 
ATOM      9  C   UNL     1       1.699   7.572  20.236  0.00  0.00    +0.000 A 
ATOM     10  C   UNL     1       2.174   7.006  19.049  0.00  0.00    +0.000 A 
ATOM     11  C   UNL     1       2.262   7.777  17.887  0.00  0.00    +0.000 A 
ATOM     12  C   UNL     1       1.841   9.111  17.910  0.00  0.00    +0.000 A 
ENDBRANCH   3  10
ENDBRANCH   1   3
BRANCH   1  13
ATOM     13  C   UNL     1       4.879   4.342  17.728  0.00  0.00    +0.000 C 
BRANCH  13  14
ATOM     14  C   UNL     1       5.579   4.331  16.404  0.00  0.00    +0.000 A 
ATOM     15  N   UNL     1       5.227   3.581  15.370  0.00  0.00    +0.000 NA
ATOM     16  C   UNL     1       6.050   3.967  14.341  0.00  0.00    +0.000 A 
ATOM     17  C   UNL     1       6.099   3.566  13.002  0.00  0.00    +0.000 A 
ATOM     18  C   UNL     1       7.059   4.173  12.188  0.00  0.00    +0.000 A 
ATOM     19  C   UNL     1       7.909   5.128  12.739  0.00  0.00    +0.000 A 
ATOM     20  N   UNL     1       7.899   5.550  14.028  0.00  0.00    +0.000 NA
ATOM     21  C   UNL     1       6.951   4.937  14.761  0.00  0.00    +0.000 A 
ATOM     22  N   UNL     1       6.652   5.140  16.082  0.00  0.00    +0.000 N 
ATOM     23  C   UNL     1       7.328   6.074  16.948  0.00  0.00    +0.000 C 
ENDBRANCH  13  14
ENDBRANCH   1  13
TORSDOF 4
ENDMDL
MODEL 9
REMARK VINA RESULT:      -7.2      2.145      3.469
REMARK  Name = 
REMARK  6 active torsions:
REMARK  status: ('A' for Active; 'I' for Inactive)
REMARK    1  A    between atoms: C_1  and  C_2
REMARK    2  A    between atoms: C_5  and  S_6
REMARK    3  A    between atoms: S_6  and  N_9
REMARK    4  A    between atoms: N_9  and  C_10
REMARK    5  A    between atoms: C_10  and  C_11
REMARK    6  A    between atoms: N_19  and  C_20
REMARK                            x       y       z     vdW  Elec       q    Type
REMARK                         _______ _______ _______ _____ _____    ______ ____
ROOT
ATOM      1  N   UNL     1       3.535   3.587  16.742  0.00  0.00    +0.000 NA
ATOM      2  H   UNL     1       3.359   4.575  16.541  0.00  0.00    +0.000 HD
ENDROOT
BRANCH   1   3
ATOM      3  S   UNL     1       2.795   3.114  18.190  0.00  0.00    +0.000 S 
ATOM      4  O   UNL     1       3.757   2.370  18.975  0.00  0.00    +0.000 OA
ATOM      5  O   UNL     1       1.508   2.553  17.842  0.00  0.00    +0.000 OA
BRANCH   3  10
ATOM      6  C   UNL     1       1.462   8.414  20.861  0.00  0.00    +0.000 C 
ATOM      7  C   UNL     1       1.832   7.110  20.215  0.00  0.00    +0.000 A 
ATOM      8  C   UNL     1       2.392   7.078  18.932  0.00  0.00    +0.000 A 
ATOM      9  C   UNL     1       2.715   5.859  18.329  0.00  0.00    +0.000 A 
ATOM     10  C   UNL     1       2.486   4.662  19.015  0.00  0.00    +0.000 A 
ATOM     11  C   UNL     1       1.912   4.678  20.288  0.00  0.00    +0.000 A 
ATOM     12  C   UNL     1       1.598   5.902  20.888  0.00  0.00    +0.000 A 
ENDBRANCH   3  10
ENDBRANCH   1   3
BRANCH   1  13
ATOM     13  C   UNL     1       4.974   3.282  16.664  0.00  0.00    +0.000 C 
BRANCH  13  14
ATOM     14  C   UNL     1       5.748   4.462  17.165  0.00  0.00    +0.000 A 
ATOM     15  N   UNL     1       6.440   4.487  18.294  0.00  0.00    +0.000 NA
ATOM     16  C   UNL     1       7.080   5.702  18.305  0.00  0.00    +0.000 A 
ATOM     17  C   UNL     1       7.988   6.256  19.213  0.00  0.00    +0.000 A 
ATOM     18  C   UNL     1       8.482   7.531  18.924  0.00  0.00    +0.000 A 
ATOM     19  C   UNL     1       8.052   8.180  17.771  0.00  0.00    +0.000 A 
ATOM     20  N   UNL     1       7.176   7.685  16.861  0.00  0.00    +0.000 NA
ATOM     21  C   UNL     1       6.740   6.453  17.187  0.00  0.00    +0.000 A 
ATOM     22  N   UNL     1       5.875   5.658  16.484  0.00  0.00    +0.000 N 
ATOM     23  C   UNL     1       5.254   6.017  15.233  0.00  0.00    +0.000 C 
ENDBRANCH  13  14
ENDBRANCH   1  13
TORSDOF 4
ENDMDL
