MODEL 1
REMARK VINA RESULT:      -9.0      0.000      0.000
REMARK  Name = 
REMARK  11 active torsions:
REMARK  status: ('A' for Active; 'I' for Inactive)
REMARK    1  A    between atoms: C_1  and  C_2
REMARK    2  A    between atoms: C_2  and  C_3
REMARK    3  A    between atoms: C_2  and  C_4
REMARK    4  A    between atoms: C_2  and  N_5
REMARK    5  A    between atoms: C_9  and  C_10
REMARK    6  A    between atoms: C_10  and  N_11
REMARK    7  A    between atoms: C_10  and  C_26
REMARK    8  A    between atoms: N_11  and  C_12
REMARK    9  A    between atoms: C_12  and  C_13
REMARK   10  A    between atoms: C_13  and  N_14
REMARK   11  A    between atoms: N_14  and  C_15
REMARK                            x       y       z     vdW  Elec       q    Type
REMARK                         _______ _______ _______ _____ _____    ______ ____
ROOT
ATOM      1  N   UNL     1       3.548   6.254  18.860  0.00  0.00    +0.000 NA
ATOM      2  H   UNL     1       4.441   6.678  19.099  0.00  0.00    +0.000 HD
ENDROOT
BRANCH   1   3
ATOM      3  C   UNL     1       3.790   4.955  18.191  0.00  0.00    +0.000 C 
BRANCH   3   4
ATOM      4  C   UNL     1       4.833   5.045  17.050  0.00  0.00    +0.000 A 
ATOM      5  C   UNL     1       5.961   5.880  17.148  0.00  0.00    +0.000 A 
ATOM      6  C   UNL     1       6.986   5.834  16.194  0.00  0.00    +0.000 A 
ATOM      7  C   UNL     1       6.908   4.952  15.121  0.00  0.00    +0.000 A 
ATOM      8  C   UNL     1       5.791   4.136  14.983  0.00  0.00    +0.000 A 
ATOM      9  C   UNL     1       4.770   4.178  15.938  0.00  0.00    +0.000 A 
ENDBRANCH   3   4
BRANCH   3  14
ATOM     10  N   UNL     1       3.092   3.193  20.002  0.00  0.00    +0.000 N 
ATOM     11  N   UNL     1       3.769   2.287  20.752  0.00  0.00    +0.000 NA
ATOM     12  N   UNL     1       5.034   2.367  20.393  0.00  0.00    +0.000 NA
ATOM     13  N   UNL     1       5.204   3.328  19.451  0.00  0.00    +0.000 NA
ATOM     14  C   UNL     1       4.010   3.842  19.187  0.00  0.00    +0.000 A 
BRANCH  10  16
ATOM     15  C   UNL     1       1.319   2.559  21.587  0.00  0.00    +0.000 C 
ATOM     16  C   UNL     1       1.662   3.360  20.314  0.00  0.00    +0.000 C 
ATOM     17  C   UNL     1       0.784   2.785  19.163  0.00  0.00    +0.000 C 
ATOM     18  C   UNL     1       1.209   4.819  20.496  0.00  0.00    +0.000 C 
ENDBRANCH  10  16
ENDBRANCH   3  14
ENDBRANCH   1   3
BRANCH   1  19
ATOM     19  C   UNL     1       2.766   7.217  18.061  0.00  0.00    +0.000 C 
BRANCH  19  20
ATOM     20  C   UNL     1       1.947   8.125  19.002  0.00  0.00    +0.000 C 
BRANCH  20  21
ATOM     21  N   UNL     1       1.425   9.304  18.303  0.00  0.00    +0.000 N 
ATOM     22  H   UNL     1       1.087   9.060  17.376  0.00  0.00    +0.000 HD
BRANCH  21  23
ATOM     23  C   UNL     1       0.509  10.134  18.996  0.00  0.00    +0.000 A 
ATOM     24  C   UNL     1       0.899  10.818  20.153  0.00  0.00    +0.000 A 
ATOM     25  C   UNL     1       0.009  11.670  20.774  0.00  0.00    +0.000 A 
ATOM     26  N   UNL     1      -1.234  11.920  20.318  0.00  0.00    +0.000 NA
ATOM     27  C   UNL     1      -1.608  11.325  19.183  0.00  0.00    +0.000 A 
ATOM     28  C   UNL     1      -2.874  11.633  18.714  0.00  0.00    +0.000 A 
ATOM     29  C   UNL     1      -3.366  11.074  17.541  0.00  0.00    +0.000 A 
ATOM     30 CL   UNL     1      -4.944  11.486  16.993  0.00  0.00    +0.000 Cl
ATOM     31  C   UNL     1      -2.590  10.186  16.814  0.00  0.00    +0.000 A 
ATOM     32  C   UNL     1      -1.308   9.865  17.266  0.00  0.00    +0.000 A 
ATOM     33  C   UNL     1      -0.783  10.421  18.462  0.00  0.00    +0.000 A 
ENDBRANCH  21  23
ENDBRANCH  20  21
ENDBRANCH  19  20
ENDBRANCH   1  19
TORSDOF 8
ENDMDL
MODEL 2
REMARK VINA RESULT:      -8.8      1.523      3.884
REMARK  Name = 
REMARK  11 active torsions:
REMARK  status: ('A' for Active; 'I' for Inactive)
REMARK    1  A    between atoms: C_1  and  C_2
REMARK    2  A    between atoms: C_2  and  C_3
REMARK    3  A    between atoms: C_2  and  C_4
REMARK    4  A    between atoms: C_2  and  N_5
REMARK    5  A    between atoms: C_9  and  C_10
REMARK    6  A    between atoms: C_10  and  N_11
REMARK    7  A    between atoms: C_10  and  C_26
REMARK    8  A    between atoms: N_11  and  C_12
REMARK    9  A    between atoms: C_12  and  C_13
REMARK   10  A    between atoms: C_13  and  N_14
REMARK   11  A    between atoms: N_14  and  C_15
REMARK                            x       y       z     vdW  Elec       q    Type
REMARK                         _______ _______ _______ _____ _____    ______ ____
ROOT
ATOM      1  N   UNL     1       3.585   6.712  18.228  0.00  0.00    +0.000 NA
ATOM      2  H   UNL     1       3.289   6.150  17.434  0.00  0.00    +0.000 HD
ENDROOT
BRANCH   1   3
ATOM      3  C   UNL     1       4.187   5.828  19.252  0.00  0.00    +0.000 C 
BRANCH   3   4
ATOM      4  C   UNL     1       3.269   4.647  19.650  0.00  0.00    +0.000 A 
ATOM      5  C   UNL     1       3.742   3.322  19.675  0.00  0.00    +0.000 A 
ATOM      6  C   UNL     1       2.963   2.280  20.194  0.00  0.00    +0.000 A 
ATOM      7  C   UNL     1       1.694   2.538  20.702  0.00  0.00    +0.000 A 
ATOM      8  C   UNL     1       1.189   3.833  20.664  0.00  0.00    +0.000 A 
ATOM      9  C   UNL     1       1.969   4.875  20.150  0.00  0.00    +0.000 A 
ENDBRANCH   3   4
BRANCH   3  14
ATOM     10  N   UNL     1       6.172   5.165  17.673  0.00  0.00    +0.000 N 
ATOM     11  N   UNL     1       7.478   4.859  17.871  0.00  0.00    +0.000 NA
ATOM     12  N   UNL     1       7.705   4.982  19.162  0.00  0.00    +0.000 NA
ATOM     13  N   UNL     1       6.567   5.329  19.816  0.00  0.00    +0.000 NA
ATOM     14  C   UNL     1       5.611   5.459  18.908  0.00  0.00    +0.000 A 
BRANCH  10  16
ATOM     15  C   UNL     1       4.531   3.933  16.313  0.00  0.00    +0.000 C 
ATOM     16  C   UNL     1       5.660   4.986  16.302  0.00  0.00    +0.000 C 
ATOM     17  C   UNL     1       6.782   4.442  15.369  0.00  0.00    +0.000 C 
ATOM     18  C   UNL     1       5.147   6.272  15.634  0.00  0.00    +0.000 C 
ENDBRANCH  10  16
ENDBRANCH   3  14
ENDBRANCH   1   3
BRANCH   1  19
ATOM     19  C   UNL     1       2.432   7.502  18.705  0.00  0.00    +0.000 C 
BRANCH  19  20
ATOM     20  C   UNL     1       2.411   8.868  17.988  0.00  0.00    +0.000 C 
BRANCH  20  21
ATOM     21  N   UNL     1       1.057   9.237  17.560  0.00  0.00    +0.000 N 
ATOM     22  H   UNL     1       0.521   8.416  17.294  0.00  0.00    +0.000 HD
BRANCH  21  23
ATOM     23  C   UNL     1       0.311  10.105  18.396  0.00  0.00    +0.000 A 
ATOM     24  C   UNL     1       0.931  10.797  19.442  0.00  0.00    +0.000 A 
ATOM     25  C   UNL     1       0.197  11.685  20.202  0.00  0.00    +0.000 A 
ATOM     26  N   UNL     1      -1.102  11.963  19.985  0.00  0.00    +0.000 NA
ATOM     27  C   UNL     1      -1.701  11.360  18.955  0.00  0.00    +0.000 A 
ATOM     28  C   UNL     1      -3.025  11.697  18.729  0.00  0.00    +0.000 A 
ATOM     29  C   UNL     1      -3.746  11.133  17.683  0.00  0.00    +0.000 A 
ATOM     30 CL   UNL     1      -5.388  11.581  17.436  0.00  0.00    +0.000 Cl
ATOM     31  C   UNL     1      -3.145  10.210  16.842  0.00  0.00    +0.000 A 
ATOM     32  C   UNL     1      -1.808   9.860  17.049  0.00  0.00    +0.000 A 
ATOM     33  C   UNL     1      -1.052  10.420  18.111  0.00  0.00    +0.000 A 
ENDBRANCH  21  23
ENDBRANCH  20  21
ENDBRANCH  19  20
ENDBRANCH   1  19
TORSDOF 8
ENDMDL
MODEL 3
REMARK VINA RESULT:      -8.7      1.687      3.780
REMARK  Name = 
REMARK  11 active torsions:
REMARK  status: ('A' for Active; 'I' for Inactive)
REMARK    1  A    between atoms: C_1  and  C_2
REMARK    2  A    between atoms: C_2  and  C_3
REMARK    3  A    between atoms: C_2  and  C_4
REMARK    4  A    between atoms: C_2  and  N_5
REMARK    5  A    between atoms: C_9  and  C_10
REMARK    6  A    between atoms: C_10  and  N_11
REMARK    7  A    between atoms: C_10  and  C_26
REMARK    8  A    between atoms: N_11  and  C_12
REMARK    9  A    between atoms: C_12  and  C_13
REMARK   10  A    between atoms: C_13  and  N_14
REMARK   11  A    between atoms: N_14  and  C_15
REMARK                            x       y       z     vdW  Elec       q    Type
REMARK                         _______ _______ _______ _____ _____    ______ ____
ROOT
ATOM      1  N   UNL     1       3.650   6.849  18.189  0.00  0.00    +0.000 NA
ATOM      2  H   UNL     1       3.264   6.489  17.321  0.00  0.00    +0.000 HD
ENDROOT
BRANCH   1   3
ATOM      3  C   UNL     1       4.185   5.722  18.988  0.00  0.00    +0.000 C 
BRANCH   3   4
ATOM      4  C   UNL     1       3.283   4.465  18.942  0.00  0.00    +0.000 A 
ATOM      5  C   UNL     1       2.026   4.482  18.310  0.00  0.00    +0.000 A 
ATOM      6  C   UNL     1       1.288   3.306  18.123  0.00  0.00    +0.000 A 
ATOM      7  C   UNL     1       1.790   2.085  18.562  0.00  0.00    +0.000 A 
ATOM      8  C   UNL     1       3.016   2.042  19.216  0.00  0.00    +0.000 A 
ATOM      9  C   UNL     1       3.755   3.215  19.399  0.00  0.00    +0.000 A 
ENDBRANCH   3   4
BRANCH   3  14
ATOM     10  N   UNL     1       6.294   5.261  17.500  0.00  0.00    +0.000 N 
ATOM     11  N   UNL     1       7.610   5.064  17.759  0.00  0.00    +0.000 NA
ATOM     12  N   UNL     1       7.763   5.180  19.061  0.00  0.00    +0.000 NA
ATOM     13  N   UNL     1       6.569   5.416  19.663  0.00  0.00    +0.000 NA
ATOM     14  C   UNL     1       5.650   5.482  18.709  0.00  0.00    +0.000 A 
BRANCH  10  16
ATOM     15  C   UNL     1       7.099   4.746  15.232  0.00  0.00    +0.000 C 
ATOM     16  C   UNL     1       5.866   5.066  16.103  0.00  0.00    +0.000 C 
ATOM     17  C   UNL     1       5.237   6.375  15.539  0.00  0.00    +0.000 C 
ATOM     18  C   UNL     1       4.805   3.972  15.902  0.00  0.00    +0.000 C 
ENDBRANCH  10  16
ENDBRANCH   3  14
ENDBRANCH   1   3
BRANCH   1  19
ATOM     19  C   UNL     1       2.614   7.645  18.875  0.00  0.00    +0.000 C 
BRANCH  19  20
ATOM     20  C   UNL     1       1.591   8.161  17.841  0.00  0.00    +0.000 C 
BRANCH  20  21
ATOM     21  N   UNL     1       1.586   9.627  17.766  0.00  0.00    +0.000 N 
ATOM     22  H   UNL     1       1.514   9.943  16.803  0.00  0.00    +0.000 HD
BRANCH  21  23
ATOM     23  C   UNL     1       0.701  10.330  18.621  0.00  0.00    +0.000 A 
ATOM     24  C   UNL     1       1.184  11.027  19.734  0.00  0.00    +0.000 A 
ATOM     25  C   UNL     1       0.311  11.756  20.514  0.00  0.00    +0.000 A 
ATOM     26  N   UNL     1      -1.006  11.874  20.258  0.00  0.00    +0.000 NA
ATOM     27  C   UNL     1      -1.481  11.267  19.168  0.00  0.00    +0.000 A 
ATOM     28  C   UNL     1      -2.830  11.440  18.905  0.00  0.00    +0.000 A 
ATOM     29  C   UNL     1      -3.430  10.856  17.796  0.00  0.00    +0.000 A 
ATOM     30 CL   UNL     1      -5.109  11.098  17.505  0.00  0.00    +0.000 Cl
ATOM     31  C   UNL     1      -2.681  10.079  16.926  0.00  0.00    +0.000 A 
ATOM     32  C   UNL     1      -1.318   9.897  17.170  0.00  0.00    +0.000 A 
ATOM     33  C   UNL     1      -0.681  10.480  18.296  0.00  0.00    +0.000 A 
ENDBRANCH  21  23
ENDBRANCH  20  21
ENDBRANCH  19  20
ENDBRANCH   1  19
TORSDOF 8
ENDMDL
MODEL 4
REMARK VINA RESULT:      -8.7      1.515      3.872
REMARK  Name = 
REMARK  11 active torsions:
REMARK  status: ('A' for Active; 'I' for Inactive)
REMARK    1  A    between atoms: C_1  and  C_2
REMARK    2  A    between atoms: C_2  and  C_3
REMARK    3  A    between atoms: C_2  and  C_4
REMARK    4  A    between atoms: C_2  and  N_5
REMARK    5  A    between atoms: C_9  and  C_10
REMARK    6  A    between atoms: C_10  and  N_11
REMARK    7  A    between atoms: C_10  and  C_26
REMARK    8  A    between atoms: N_11  and  C_12
REMARK    9  A    between atoms: C_12  and  C_13
REMARK   10  A    between atoms: C_13  and  N_14
REMARK   11  A    between atoms: N_14  and  C_15
REMARK                            x       y       z     vdW  Elec       q    Type
REMARK                         _______ _______ _______ _____ _____    ______ ____
ROOT
ATOM      1  N   UNL     1       3.316   6.472  17.766  0.00  0.00    +0.000 NA
ATOM      2  H   UNL     1       2.393   6.108  17.546  0.00  0.00    +0.000 HD
ENDROOT
BRANCH   1   3
ATOM      3  C   UNL     1       3.854   5.756  18.945  0.00  0.00    +0.000 C 
BRANCH   3   4
ATOM      4  C   UNL     1       2.918   4.631  19.450  0.00  0.00    +0.000 A 
ATOM      5  C   UNL     1       2.889   4.247  20.803  0.00  0.00    +0.000 A 
ATOM      6  C   UNL     1       1.927   3.351  21.286  0.00  0.00    +0.000 A 
ATOM      7  C   UNL     1       0.970   2.818  20.428  0.00  0.00    +0.000 A 
ATOM      8  C   UNL     1       0.993   3.156  19.079  0.00  0.00    +0.000 A 
ATOM      9  C   UNL     1       1.950   4.055  18.598  0.00  0.00    +0.000 A 
ENDBRANCH   3   4
BRANCH   3  14
ATOM     10  N   UNL     1       5.956   4.950  17.603  0.00  0.00    +0.000 N 
ATOM     11  N   UNL     1       7.242   4.674  17.933  0.00  0.00    +0.000 NA
ATOM     12  N   UNL     1       7.367   4.929  19.219  0.00  0.00    +0.000 NA
ATOM     13  N   UNL     1       6.181   5.333  19.743  0.00  0.00    +0.000 NA
ATOM     14  C   UNL     1       5.300   5.364  18.753  0.00  0.00    +0.000 A 
BRANCH  10  16
ATOM     15  C   UNL     1       6.718   3.916  15.503  0.00  0.00    +0.000 C 
ATOM     16  C   UNL     1       5.554   4.629  16.222  0.00  0.00    +0.000 C 
ATOM     17  C   UNL     1       5.256   5.934  15.425  0.00  0.00    +0.000 C 
ATOM     18  C   UNL     1       4.284   3.770  16.105  0.00  0.00    +0.000 C 
ENDBRANCH  10  16
ENDBRANCH   3  14
ENDBRANCH   1   3
BRANCH   1  19
ATOM     19  C   UNL     1       3.221   7.936  17.931  0.00  0.00    +0.000 C 
BRANCH  19  20
ATOM     20  C   UNL     1       1.807   8.310  18.422  0.00  0.00    +0.000 C 
BRANCH  20  21
ATOM     21  N   UNL     1       1.284   9.491  17.726  0.00  0.00    +0.000 N 
ATOM     22  H   UNL     1       0.850   9.233  16.843  0.00  0.00    +0.000 HD
BRANCH  21  23
ATOM     23  C   UNL     1       0.480  10.393  18.465  0.00  0.00    +0.000 A 
ATOM     24  C   UNL     1       1.055  11.270  19.391  0.00  0.00    +0.000 A 
ATOM     25  C   UNL     1       0.260  12.183  20.053  0.00  0.00    +0.000 A 
ATOM     26  N   UNL     1      -1.064  12.315  19.844  0.00  0.00    +0.000 NA
ATOM     27  C   UNL     1      -1.627  11.530  18.922  0.00  0.00    +0.000 A 
ATOM     28  C   UNL     1      -2.980  11.717  18.697  0.00  0.00    +0.000 A 
ATOM     29  C   UNL     1      -3.668  10.957  17.758  0.00  0.00    +0.000 A 
ATOM     30 CL   UNL     1      -5.350  11.223  17.508  0.00  0.00    +0.000 Cl
ATOM     31  C   UNL     1      -3.003   9.987  17.025  0.00  0.00    +0.000 A 
ATOM     32  C   UNL     1      -1.636   9.787  17.232  0.00  0.00    +0.000 A 
ATOM     33  C   UNL     1      -0.912  10.547  18.186  0.00  0.00    +0.000 A 
ENDBRANCH  21  23
ENDBRANCH  20  21
ENDBRANCH  19  20
ENDBRANCH   1  19
TORSDOF 8
ENDMDL
MODEL 5
REMARK VINA RESULT:      -8.5      2.964      4.855
REMARK  Name = 
REMARK  11 active torsions:
REMARK  status: ('A' for Active; 'I' for Inactive)
REMARK    1  A    between atoms: C_1  and  C_2
REMARK    2  A    between atoms: C_2  and  C_3
REMARK    3  A    between atoms: C_2  and  C_4
REMARK    4  A    between atoms: C_2  and  N_5
REMARK    5  A    between atoms: C_9  and  C_10
REMARK    6  A    between atoms: C_10  and  N_11
REMARK    7  A    between atoms: C_10  and  C_26
REMARK    8  A    between atoms: N_11  and  C_12
REMARK    9  A    between atoms: C_12  and  C_13
REMARK   10  A    between atoms: C_13  and  N_14
REMARK   11  A    between atoms: N_14  and  C_15
REMARK                            x       y       z     vdW  Elec       q    Type
REMARK                         _______ _______ _______ _____ _____    ______ ____
ROOT
ATOM      1  N   UNL     1       3.198   8.397  17.424  0.00  0.00    +0.000 NA
ATOM      2  H   UNL     1       3.257   8.464  16.411  0.00  0.00    +0.000 HD
ENDROOT
BRANCH   1   3
ATOM      3  C   UNL     1       3.883   7.161  17.869  0.00  0.00    +0.000 C 
BRANCH   3   4
ATOM      4  C   UNL     1       2.911   6.101  18.441  0.00  0.00    +0.000 A 
ATOM      5  C   UNL     1       2.492   4.996  17.677  0.00  0.00    +0.000 A 
ATOM      6  C   UNL     1       1.751   3.954  18.248  0.00  0.00    +0.000 A 
ATOM      7  C   UNL     1       1.412   3.991  19.597  0.00  0.00    +0.000 A 
ATOM      8  C   UNL     1       1.787   5.084  20.370  0.00  0.00    +0.000 A 
ATOM      9  C   UNL     1       2.532   6.123  19.801  0.00  0.00    +0.000 A 
ENDBRANCH   3   4
BRANCH   3  14
ATOM     10  N   UNL     1       6.074   6.005  17.009  0.00  0.00    +0.000 N 
ATOM     11  N   UNL     1       6.607   5.782  15.783  0.00  0.00    +0.000 NA
ATOM     12  N   UNL     1       5.749   6.255  14.903  0.00  0.00    +0.000 NA
ATOM     13  N   UNL     1       4.682   6.814  15.530  0.00  0.00    +0.000 NA
ATOM     14  C   UNL     1       4.861   6.657  16.834  0.00  0.00    +0.000 A 
BRANCH  10  16
ATOM     15  C   UNL     1       7.847   6.842  18.498  0.00  0.00    +0.000 C 
ATOM     16  C   UNL     1       6.920   5.654  18.164  0.00  0.00    +0.000 C 
ATOM     17  C   UNL     1       7.837   4.444  17.817  0.00  0.00    +0.000 C 
ATOM     18  C   UNL     1       6.146   5.244  19.427  0.00  0.00    +0.000 C 
ENDBRANCH  10  16
ENDBRANCH   3  14
ENDBRANCH   1   3
BRANCH   1  19
ATOM     19  C   UNL     1       1.780   8.487  17.824  0.00  0.00    +0.000 C 
BRANCH  19  20
ATOM     20  C   UNL     1       1.473   9.914  18.322  0.00  0.00    +0.000 C 
BRANCH  20  21
ATOM     21  N   UNL     1       0.147  10.001  18.942  0.00  0.00    +0.000 N 
ATOM     22  H   UNL     1      -0.496   9.332  18.527  0.00  0.00    +0.000 HD
BRANCH  21  23
ATOM     23  C   UNL     1       0.076   9.991  20.358  0.00  0.00    +0.000 A 
ATOM     24  C   UNL     1       0.951   9.202  21.112  0.00  0.00    +0.000 A 
ATOM     25  C   UNL     1       0.904   9.257  22.490  0.00  0.00    +0.000 A 
ATOM     26  N   UNL     1       0.073  10.061  23.180  0.00  0.00    +0.000 NA
ATOM     27  C   UNL     1      -0.731  10.868  22.484  0.00  0.00    +0.000 A 
ATOM     28  C   UNL     1      -1.543  11.714  23.219  0.00  0.00    +0.000 A 
ATOM     29  C   UNL     1      -2.417  12.598  22.596  0.00  0.00    +0.000 A 
ATOM     30 CL   UNL     1      -3.408  13.634  23.548  0.00  0.00    +0.000 Cl
ATOM     31  C   UNL     1      -2.493  12.644  21.214  0.00  0.00    +0.000 A 
ATOM     32  C   UNL     1      -1.678  11.803  20.453  0.00  0.00    +0.000 A 
ATOM     33  C   UNL     1      -0.779  10.890  21.063  0.00  0.00    +0.000 A 
ENDBRANCH  21  23
ENDBRANCH  20  21
ENDBRANCH  19  20
ENDBRANCH   1  19
TORSDOF 8
ENDMDL
MODEL 6
REMARK VINA RESULT:      -8.5      2.861      4.779
REMARK  Name = 
REMARK  11 active torsions:
REMARK  status: ('A' for Active; 'I' for Inactive)
REMARK    1  A    between atoms: C_1  and  C_2
REMARK    2  A    between atoms: C_2  and  C_3
REMARK    3  A    between atoms: C_2  and  C_4
REMARK    4  A    between atoms: C_2  and  N_5
REMARK    5  A    between atoms: C_9  and  C_10
REMARK    6  A    between atoms: C_10  and  N_11
REMARK    7  A    between atoms: C_10  and  C_26
REMARK    8  A    between atoms: N_11  and  C_12
REMARK    9  A    between atoms: C_12  and  C_13
REMARK   10  A    between atoms: C_13  and  N_14
REMARK   11  A    between atoms: N_14  and  C_15
REMARK                            x       y       z     vdW  Elec       q    Type
REMARK                         _______ _______ _______ _____ _____    ______ ____
ROOT
ATOM      1  N   UNL     1       3.587   6.839  18.007  0.00  0.00    +0.000 NA
ATOM      2  H   UNL     1       3.271   6.406  17.144  0.00  0.00    +0.000 HD
ENDROOT
BRANCH   1   3
ATOM      3  C   UNL     1       4.066   5.787  18.933  0.00  0.00    +0.000 C 
BRANCH   3   4
ATOM      4  C   UNL     1       3.118   4.565  19.005  0.00  0.00    +0.000 A 
ATOM      5  C   UNL     1       1.963   4.480  18.206  0.00  0.00    +0.000 A 
ATOM      6  C   UNL     1       1.200   3.307  18.149  0.00  0.00    +0.000 A 
ATOM      7  C   UNL     1       1.575   2.189  18.888  0.00  0.00    +0.000 A 
ATOM      8  C   UNL     1       2.695   2.254  19.710  0.00  0.00    +0.000 A 
ATOM      9  C   UNL     1       3.460   3.424  19.763  0.00  0.00    +0.000 A 
ENDBRANCH   3   4
BRANCH   3  14
ATOM     10  N   UNL     1       6.201   5.202  17.527  0.00  0.00    +0.000 N 
ATOM     11  N   UNL     1       7.494   4.935  17.836  0.00  0.00    +0.000 NA
ATOM     12  N   UNL     1       7.603   5.051  19.143  0.00  0.00    +0.000 NA
ATOM     13  N   UNL     1       6.403   5.356  19.699  0.00  0.00    +0.000 NA
ATOM     14  C   UNL     1       5.525   5.465  18.711  0.00  0.00    +0.000 A 
BRANCH  10  16
ATOM     15  C   UNL     1       4.802   3.863  16.008  0.00  0.00    +0.000 C 
ATOM     16  C   UNL     1       5.815   5.022  16.116  0.00  0.00    +0.000 C 
ATOM     17  C   UNL     1       7.055   4.625  15.261  0.00  0.00    +0.000 C 
ATOM     18  C   UNL     1       5.228   6.274  15.445  0.00  0.00    +0.000 C 
ENDBRANCH  10  16
ENDBRANCH   3  14
ENDBRANCH   1   3
BRANCH   1  19
ATOM     19  C   UNL     1       2.495   7.674  18.545  0.00  0.00    +0.000 C 
BRANCH  19  20
ATOM     20  C   UNL     1       2.384   8.973  17.719  0.00  0.00    +0.000 C 
BRANCH  20  21
ATOM     21  N   UNL     1       1.086   9.630  17.911  0.00  0.00    +0.000 N 
ATOM     22  H   UNL     1       0.321   8.973  17.786  0.00  0.00    +0.000 HD
BRANCH  21  23
ATOM     23  C   UNL     1       0.912  10.427  19.070  0.00  0.00    +0.000 A 
ATOM     24  C   UNL     1       0.236   9.927  20.188  0.00  0.00    +0.000 A 
ATOM     25  C   UNL     1       0.135  10.699  21.327  0.00  0.00    +0.000 A 
ATOM     26  N   UNL     1       0.681  11.924  21.453  0.00  0.00    +0.000 NA
ATOM     27  C   UNL     1       1.382  12.400  20.422  0.00  0.00    +0.000 A 
ATOM     28  C   UNL     1       1.968  13.642  20.595  0.00  0.00    +0.000 A 
ATOM     29  C   UNL     1       2.722  14.232  19.588  0.00  0.00    +0.000 A 
ATOM     30 CL   UNL     1       3.435  15.777  19.847  0.00  0.00    +0.000 Cl
ATOM     31  C   UNL     1       2.899  13.581  18.378  0.00  0.00    +0.000 A 
ATOM     32  C   UNL     1       2.321  12.324  18.184  0.00  0.00    +0.000 A 
ATOM     33  C   UNL     1       1.545  11.701  19.195  0.00  0.00    +0.000 A 
ENDBRANCH  21  23
ENDBRANCH  20  21
ENDBRANCH  19  20
ENDBRANCH   1  19
TORSDOF 8
ENDMDL
MODEL 7
REMARK VINA RESULT:      -8.4      1.569      2.159
REMARK  Name = 
REMARK  11 active torsions:
REMARK  status: ('A' for Active; 'I' for Inactive)
REMARK    1  A    between atoms: C_1  and  C_2
REMARK    2  A    between atoms: C_2  and  C_3
REMARK    3  A    between atoms: C_2  and  C_4
REMARK    4  A    between atoms: C_2  and  N_5
REMARK    5  A    between atoms: C_9  and  C_10
REMARK    6  A    between atoms: C_10  and  N_11
REMARK    7  A    between atoms: C_10  and  C_26
REMARK    8  A    between atoms: N_11  and  C_12
REMARK    9  A    between atoms: C_12  and  C_13
REMARK   10  A    between atoms: C_13  and  N_14
REMARK   11  A    between atoms: N_14  and  C_15
REMARK                            x       y       z     vdW  Elec       q    Type
REMARK                         _______ _______ _______ _____ _____    ______ ____
ROOT
ATOM      1  N   UNL     1       3.439   7.766  17.838  0.00  0.00    +0.000 NA
ATOM      2  H   UNL     1       4.174   8.051  17.195  0.00  0.00    +0.000 HD
ENDROOT
BRANCH   1   3
ATOM      3  C   UNL     1       3.392   6.286  17.896  0.00  0.00    +0.000 C 
BRANCH   3   4
ATOM      4  C   UNL     1       4.776   5.627  17.677  0.00  0.00    +0.000 A 
ATOM      5  C   UNL     1       5.241   5.299  16.391  0.00  0.00    +0.000 A 
ATOM      6  C   UNL     1       6.555   4.860  16.180  0.00  0.00    +0.000 A 
ATOM      7  C   UNL     1       7.435   4.740  17.251  0.00  0.00    +0.000 A 
ATOM      8  C   UNL     1       6.994   5.030  18.538  0.00  0.00    +0.000 A 
ATOM      9  C   UNL     1       5.683   5.473  18.747  0.00  0.00    +0.000 A 
ENDBRANCH   3   4
BRANCH   3  14
ATOM     10  N   UNL     1       2.193   4.512  19.408  0.00  0.00    +0.000 N 
ATOM     11  N   UNL     1       1.506   4.573  20.576  0.00  0.00    +0.000 NA
ATOM     12  N   UNL     1       1.533   5.830  20.967  0.00  0.00    +0.000 NA
ATOM     13  N   UNL     1       2.194   6.598  20.064  0.00  0.00    +0.000 NA
ATOM     14  C   UNL     1       2.620   5.796  19.098  0.00  0.00    +0.000 A 
BRANCH  10  16
ATOM     15  C   UNL     1       0.956   2.400  19.149  0.00  0.00    +0.000 C 
ATOM     16  C   UNL     1       2.200   3.208  18.721  0.00  0.00    +0.000 C 
ATOM     17  C   UNL     1       3.450   2.379  19.141  0.00  0.00    +0.000 C 
ATOM     18  C   UNL     1       2.248   3.290  17.187  0.00  0.00    +0.000 C 
ENDBRANCH  10  16
ENDBRANCH   3  14
ENDBRANCH   1   3
BRANCH   1  19
ATOM     19  C   UNL     1       2.173   8.401  17.423  0.00  0.00    +0.000 C 
BRANCH  19  20
ATOM     20  C   UNL     1       1.925   9.663  18.276  0.00  0.00    +0.000 C 
BRANCH  20  21
ATOM     21  N   UNL     1       1.050   9.384  19.420  0.00  0.00    +0.000 N 
ATOM     22  H   UNL     1       1.582   9.020  20.206  0.00  0.00    +0.000 HD
BRANCH  21  23
ATOM     23  C   UNL     1       0.140  10.393  19.820  0.00  0.00    +0.000 A 
ATOM     24  C   UNL     1       0.461  11.275  20.858  0.00  0.00    +0.000 A 
ATOM     25  C   UNL     1      -0.415  12.289  21.187  0.00  0.00    +0.000 A 
ATOM     26  N   UNL     1      -1.576  12.516  20.543  0.00  0.00    +0.000 NA
ATOM     27  C   UNL     1      -1.877  11.725  19.511  0.00  0.00    +0.000 A 
ATOM     28  C   UNL     1      -3.055  12.008  18.840  0.00  0.00    +0.000 A 
ATOM     29  C   UNL     1      -3.466  11.251  17.749  0.00  0.00    +0.000 A 
ATOM     30 CL   UNL     1      -4.936  11.638  16.944  0.00  0.00    +0.000 Cl
ATOM     31  C   UNL     1      -2.695  10.186  17.311  0.00  0.00    +0.000 A 
ATOM     32  C   UNL     1      -1.499   9.887  17.970  0.00  0.00    +0.000 A 
ATOM     33  C   UNL     1      -1.059  10.643  19.087  0.00  0.00    +0.000 A 
ENDBRANCH  21  23
ENDBRANCH  20  21
ENDBRANCH  19  20
ENDBRANCH   1  19
TORSDOF 8
ENDMDL
MODEL 8
REMARK VINA RESULT:      -8.4      2.221      4.028
REMARK  Name = 
REMARK  11 active torsions:
REMARK  status: ('A' for Active; 'I' for Inactive)
REMARK    1  A    between atoms: C_1  and  C_2
REMARK    2  A    between atoms: C_2  and  C_3
REMARK    3  A    between atoms: C_2  and  C_4
REMARK    4  A    between atoms: C_2  and  N_5
REMARK    5  A    between atoms: C_9  and  C_10
REMARK    6  A    between atoms: C_10  and  N_11
REMARK    7  A    between atoms: C_10  and  C_26
REMARK    8  A    between atoms: N_11  and  C_12
REMARK    9  A    between atoms: C_12  and  C_13
REMARK   10  A    between atoms: C_13  and  N_14
REMARK   11  A    between atoms: N_14  and  C_15
REMARK                            x       y       z     vdW  Elec       q    Type
REMARK                         _______ _______ _______ _____ _____    ______ ____
ROOT
ATOM      1  N   UNL     1       3.141   7.054  16.998  0.00  0.00    +0.000 NA
ATOM      2  H   UNL     1       2.185   6.727  16.886  0.00  0.00    +0.000 HD
ENDROOT
BRANCH   1   3
ATOM      3  C   UNL     1       3.998   5.918  17.411  0.00  0.00    +0.000 C 
BRANCH   3   4
ATOM      4  C   UNL     1       3.205   4.605  17.616  0.00  0.00    +0.000 A 
ATOM      5  C   UNL     1       3.825   3.346  17.511  0.00  0.00    +0.000 A 
ATOM      6  C   UNL     1       3.150   2.169  17.860  0.00  0.00    +0.000 A 
ATOM      7  C   UNL     1       1.839   2.223  18.325  0.00  0.00    +0.000 A 
ATOM      8  C   UNL     1       1.192   3.451  18.412  0.00  0.00    +0.000 A 
ATOM      9  C   UNL     1       1.868   4.626  18.068  0.00  0.00    +0.000 A 
ENDBRANCH   3   4
BRANCH   3  14
ATOM     10  N   UNL     1       6.561   5.652  16.930  0.00  0.00    +0.000 N 
ATOM     11  N   UNL     1       7.315   5.633  15.803  0.00  0.00    +0.000 NA
ATOM     12  N   UNL     1       6.485   5.749  14.788  0.00  0.00    +0.000 NA
ATOM     13  N   UNL     1       5.207   5.876  15.228  0.00  0.00    +0.000 NA
ATOM     14  C   UNL     1       5.234   5.805  16.551  0.00  0.00    +0.000 A 
BRANCH  10  16
ATOM     15  C   UNL     1       8.294   4.471  18.218  0.00  0.00    +0.000 C 
ATOM     16  C   UNL     1       7.295   5.647  18.207  0.00  0.00    +0.000 C 
ATOM     17  C   UNL     1       6.314   5.423  19.397  0.00  0.00    +0.000 C 
ATOM     18  C   UNL     1       8.044   6.952  18.523  0.00  0.00    +0.000 C 
ENDBRANCH  10  16
ENDBRANCH   3  14
ENDBRANCH   1   3
BRANCH   1  19
ATOM     19  C   UNL     1       3.146   8.195  17.934  0.00  0.00    +0.000 C 
BRANCH  19  20
ATOM     20  C   UNL     1       1.694   8.575  18.291  0.00  0.00    +0.000 C 
BRANCH  20  21
ATOM     21  N   UNL     1       1.342   9.910  17.793  0.00  0.00    +0.000 N 
ATOM     22  H   UNL     1       1.051   9.872  16.820  0.00  0.00    +0.000 HD
BRANCH  21  23
ATOM     23  C   UNL     1       0.465  10.700  18.576  0.00  0.00    +0.000 A 
ATOM     24  C   UNL     1       0.964  11.575  19.547  0.00  0.00    +0.000 A 
ATOM     25  C   UNL     1       0.094  12.380  20.253  0.00  0.00    +0.000 A 
ATOM     26  N   UNL     1      -1.238  12.405  20.048  0.00  0.00    +0.000 NA
ATOM     27  C   UNL     1      -1.732  11.623  19.087  0.00  0.00    +0.000 A 
ATOM     28  C   UNL     1      -3.097  11.701  18.870  0.00  0.00    +0.000 A 
ATOM     29  C   UNL     1      -3.719  10.932  17.892  0.00  0.00    +0.000 A 
ATOM     30 CL   UNL     1      -5.418  11.062  17.654  0.00  0.00    +0.000 Cl
ATOM     31  C   UNL     1      -2.974  10.063  17.112  0.00  0.00    +0.000 A 
ATOM     32  C   UNL     1      -1.594   9.973  17.311  0.00  0.00    +0.000 A 
ATOM     33  C   UNL     1      -0.936  10.744  18.303  0.00  0.00    +0.000 A 
ENDBRANCH  21  23
ENDBRANCH  20  21
ENDBRANCH  19  20
ENDBRANCH   1  19
TORSDOF 8
ENDMDL
MODEL 9
REMARK VINA RESULT:      -8.4      2.816      4.888
REMARK  Name = 
REMARK  11 active torsions:
REMARK  status: ('A' for Active; 'I' for Inactive)
REMARK    1  A    between atoms: C_1  and  C_2
REMARK    2  A    between atoms: C_2  and  C_3
REMARK    3  A    between atoms: C_2  and  C_4
REMARK    4  A    between atoms: C_2  and  N_5
REMARK    5  A    between atoms: C_9  and  C_10
REMARK    6  A    between atoms: C_10  and  N_11
REMARK    7  A    between atoms: C_10  and  C_26
REMARK    8  A    between atoms: N_11  and  C_12
REMARK    9  A    between atoms: C_12  and  C_13
REMARK   10  A    between atoms: C_13  and  N_14
REMARK   11  A    between atoms: N_14  and  C_15
REMARK                            x       y       z     vdW  Elec       q    Type
REMARK                         _______ _______ _______ _____ _____    ______ ____
ROOT
ATOM      1  N   UNL     1       3.529   6.788  17.857  0.00  0.00    +0.000 NA
ATOM      2  H   UNL     1       3.334   6.234  17.027  0.00  0.00    +0.000 HD
ENDROOT
BRANCH   1   3
ATOM      3  C   UNL     1       4.001   5.893  18.939  0.00  0.00    +0.000 C 
BRANCH   3   4
ATOM      4  C   UNL     1       3.015   4.739  19.244  0.00  0.00    +0.000 A 
ATOM      5  C   UNL     1       2.604   4.447  20.558  0.00  0.00    +0.000 A 
ATOM      6  C   UNL     1       1.589   3.518  20.815  0.00  0.00    +0.000 A 
ATOM      7  C   UNL     1       0.958   2.859  19.764  0.00  0.00    +0.000 A 
ATOM      8  C   UNL     1       1.362   3.106  18.457  0.00  0.00    +0.000 A 
ATOM      9  C   UNL     1       2.374   4.037  18.200  0.00  0.00    +0.000 A 
ENDBRANCH   3   4
BRANCH   3  14
ATOM     10  N   UNL     1       6.117   5.170  17.570  0.00  0.00    +0.000 N 
ATOM     11  N   UNL     1       7.387   4.829  17.900  0.00  0.00    +0.000 NA
ATOM     12  N   UNL     1       7.485   4.950  19.208  0.00  0.00    +0.000 NA
ATOM     13  N   UNL     1       6.296   5.330  19.743  0.00  0.00    +0.000 NA
ATOM     14  C   UNL     1       5.441   5.483  18.741  0.00  0.00    +0.000 A 
BRANCH  10  16
ATOM     15  C   UNL     1       6.991   4.607  15.339  0.00  0.00    +0.000 C 
ATOM     16  C   UNL     1       5.742   5.001  16.155  0.00  0.00    +0.000 C 
ATOM     17  C   UNL     1       5.218   6.345  15.567  0.00  0.00    +0.000 C 
ATOM     18  C   UNL     1       4.627   3.972  15.903  0.00  0.00    +0.000 C 
ENDBRANCH  10  16
ENDBRANCH   3  14
ENDBRANCH   1   3
BRANCH   1  19
ATOM     19  C   UNL     1       2.326   7.574  18.196  0.00  0.00    +0.000 C 
BRANCH  19  20
ATOM     20  C   UNL     1       2.522   9.037  17.746  0.00  0.00    +0.000 C 
BRANCH  20  21
ATOM     21  N   UNL     1       1.275   9.805  17.834  0.00  0.00    +0.000 N 
ATOM     22  H   UNL     1       0.472   9.224  17.610  0.00  0.00    +0.000 HD
BRANCH  21  23
ATOM     23  C   UNL     1       1.056  10.581  18.999  0.00  0.00    +0.000 A 
ATOM     24  C   UNL     1       0.379  10.044  20.100  0.00  0.00    +0.000 A 
ATOM     25  C   UNL     1       0.234  10.798  21.246  0.00  0.00    +0.000 A 
ATOM     26  N   UNL     1       0.736  12.039  21.397  0.00  0.00    +0.000 NA
ATOM     27  C   UNL     1       1.437  12.551  20.383  0.00  0.00    +0.000 A 
ATOM     28  C   UNL     1       1.978  13.810  20.581  0.00  0.00    +0.000 A 
ATOM     29  C   UNL     1       2.728  14.438  19.593  0.00  0.00    +0.000 A 
ATOM     30 CL   UNL     1       3.384  16.002  19.882  0.00  0.00    +0.000 Cl
ATOM     31  C   UNL     1       2.946  13.808  18.379  0.00  0.00    +0.000 A 
ATOM     32  C   UNL     1       2.414  12.535  18.160  0.00  0.00    +0.000 A 
ATOM     33  C   UNL     1       1.643  11.873  19.151  0.00  0.00    +0.000 A 
ENDBRANCH  21  23
ENDBRANCH  20  21
ENDBRANCH  19  20
ENDBRANCH   1  19
TORSDOF 8
ENDMDL
