MODEL 1
REMARK VINA RESULT:      -8.1      0.000      0.000
REMARK  Name = 
REMARK  10 active torsions:
REMARK  status: ('A' for Active; 'I' for Inactive)
REMARK    1  A    between atoms: C_1  and  C_2
REMARK    2  A    between atoms: C_5  and  O_6
REMARK    3  A    between atoms: O_6  and  C_7
REMARK    4  A    between atoms: C_7  and  C_8
REMARK    5  A    between atoms: C_11  and  S_12
REMARK    6  A    between atoms: S_12  and  C_13
REMARK    7  A    between atoms: C_13  and  C_14
REMARK    8  A    between atoms: C_15  and  C_16
REMARK    9  A    between atoms: N_22  and  C_23
REMARK   10  A    between atoms: C_23  and  C_24
REMARK                            x       y       z     vdW  Elec       q    Type
REMARK                         _______ _______ _______ _____ _____    ______ ____
ROOT
ATOM      1  C   UNL     1       7.483   6.694  18.279  0.00  0.00    +0.000 A 
ATOM      2  N   UNL     1       7.867   6.195  19.441  0.00  0.00    +0.000 NA
ATOM      3  N   UNL     1       7.045   5.139  19.755  0.00  0.00    +0.000 NA
ATOM      4  C   UNL     1       6.172   5.012  18.786  0.00  0.00    +0.000 A 
ATOM      5  N   UNL     1       6.402   5.966  17.827  0.00  0.00    +0.000 N 
ENDROOT
BRANCH   1   6
ATOM      6  C   UNL     1       8.192   7.774  17.526  0.00  0.00    +0.000 C 
BRANCH   6   7
ATOM      7  O   UNL     1       7.501   9.016  17.720  0.00  0.00    +0.000 OA
BRANCH   7  12
ATOM      8  C   UNL     1      10.814  13.175  19.774  0.00  0.00    +0.000 C 
ATOM      9  C   UNL     1       9.967  12.077  19.201  0.00  0.00    +0.000 A 
ATOM     10  C   UNL     1      10.016  10.774  19.706  0.00  0.00    +0.000 A 
ATOM     11  C   UNL     1       9.193   9.771  19.171  0.00  0.00    +0.000 A 
ATOM     12  C   UNL     1       8.299  10.058  18.137  0.00  0.00    +0.000 A 
ATOM     13  C   UNL     1       8.288  11.348  17.601  0.00  0.00    +0.000 A 
ATOM     14  C   UNL     1       9.110  12.349  18.133  0.00  0.00    +0.000 A 
ENDBRANCH   7  12
ENDBRANCH   6   7
ENDBRANCH   1   6
BRANCH   4  15
ATOM     15  S   UNL     1       4.912   3.828  18.686  0.00  0.00    +0.000 S 
BRANCH  15  16
ATOM     16  C   UNL     1       3.645   4.497  19.798  0.00  0.00    +0.000 C 
BRANCH  16  17
ATOM     17  C   UNL     1       3.249   5.888  19.389  0.00  0.00    +0.000 C 
ATOM     18  C   UNL     1       2.184   6.549  19.877  0.00  0.00    +0.000 C 
BRANCH  18  19
ATOM     19  C   UNL     1       1.816   7.925  19.505  0.00  0.00    +0.000 A 
ATOM     20  C   UNL     1       1.180   8.738  20.454  0.00  0.00    +0.000 A 
ATOM     21  C   UNL     1       0.841  10.061  20.149  0.00  0.00    +0.000 A 
ATOM     22  C   UNL     1       1.147  10.587  18.896  0.00  0.00    +0.000 A 
ATOM     23  C   UNL     1       1.794   9.796  17.949  0.00  0.00    +0.000 A 
ATOM     24  C   UNL     1       2.132   8.474  18.255  0.00  0.00    +0.000 A 
ENDBRANCH  18  19
ENDBRANCH  16  17
ENDBRANCH  15  16
ENDBRANCH   4  15
BRANCH   5  25
ATOM     25  C   UNL     1       5.605   6.234  16.645  0.00  0.00    +0.000 C 
BRANCH  25  26
ATOM     26  C   UNL     1       5.983   5.362  15.503  0.00  0.00    +0.000 A 
ATOM     27  C   UNL     1       5.358   4.321  14.841  0.00  0.00    +0.000 A 
ATOM     28  C   UNL     1       6.206   3.962  13.764  0.00  0.00    +0.000 A 
ATOM     29  C   UNL     1       7.294   4.797  13.839  0.00  0.00    +0.000 A 
ATOM     30  O   UNL     1       7.168   5.647  14.889  0.00  0.00    +0.000 OA
ENDBRANCH  25  26
ENDBRANCH   5  25
TORSDOF 9
ENDMDL
MODEL 2
REMARK VINA RESULT:      -7.9      0.633      1.125
REMARK  Name = 
REMARK  10 active torsions:
REMARK  status: ('A' for Active; 'I' for Inactive)
REMARK    1  A    between atoms: C_1  and  C_2
REMARK    2  A    between atoms: C_5  and  O_6
REMARK    3  A    between atoms: O_6  and  C_7
REMARK    4  A    between atoms: C_7  and  C_8
REMARK    5  A    between atoms: C_11  and  S_12
REMARK    6  A    between atoms: S_12  and  C_13
REMARK    7  A    between atoms: C_13  and  C_14
REMARK    8  A    between atoms: C_15  and  C_16
REMARK    9  A    between atoms: N_22  and  C_23
REMARK   10  A    between atoms: C_23  and  C_24
REMARK                            x       y       z     vdW  Elec       q    Type
REMARK                         _______ _______ _______ _____ _____    ______ ____
ROOT
ATOM      1  C   UNL     1       7.256   6.653  18.436  0.00  0.00    +0.000 A 
ATOM      2  N   UNL     1       7.581   6.083  19.584  0.00  0.00    +0.000 NA
ATOM      3  N   UNL     1       6.800   4.965  19.753  0.00  0.00    +0.000 NA
ATOM      4  C   UNL     1       6.009   4.870  18.712  0.00  0.00    +0.000 A 
ATOM      5  N   UNL     1       6.255   5.908  17.848  0.00  0.00    +0.000 N 
ENDROOT
BRANCH   1   6
ATOM      6  C   UNL     1       7.955   7.824  17.823  0.00  0.00    +0.000 C 
BRANCH   6   7
ATOM      7  O   UNL     1       8.851   8.395  18.786  0.00  0.00    +0.000 OA
BRANCH   7  12
ATOM      8  C   UNL     1       9.161  14.063  18.254  0.00  0.00    +0.000 C 
ATOM      9  C   UNL     1       9.054  12.576  18.425  0.00  0.00    +0.000 A 
ATOM     10  C   UNL     1       8.293  11.791  17.553  0.00  0.00    +0.000 A 
ATOM     11  C   UNL     1       8.231  10.399  17.718  0.00  0.00    +0.000 A 
ATOM     12  C   UNL     1       8.939   9.769  18.744  0.00  0.00    +0.000 A 
ATOM     13  C   UNL     1       9.657  10.561  19.644  0.00  0.00    +0.000 A 
ATOM     14  C   UNL     1       9.718  11.950  19.482  0.00  0.00    +0.000 A 
ENDBRANCH   7  12
ENDBRANCH   6   7
ENDBRANCH   1   6
BRANCH   4  15
ATOM     15  S   UNL     1       4.831   3.635  18.425  0.00  0.00    +0.000 S 
BRANCH  15  16
ATOM     16  C   UNL     1       3.561   3.998  19.668  0.00  0.00    +0.000 C 
BRANCH  16  17
ATOM     17  C   UNL     1       3.231   5.464  19.690  0.00  0.00    +0.000 C 
ATOM     18  C   UNL     1       2.395   6.067  18.825  0.00  0.00    +0.000 C 
BRANCH  18  19
ATOM     19  C   UNL     1       2.043   7.495  18.867  0.00  0.00    +0.000 A 
ATOM     20  C   UNL     1       1.523   8.031  20.055  0.00  0.00    +0.000 A 
ATOM     21  C   UNL     1       1.203   9.390  20.145  0.00  0.00    +0.000 A 
ATOM     22  C   UNL     1       1.413  10.229  19.054  0.00  0.00    +0.000 A 
ATOM     23  C   UNL     1       1.945   9.714  17.874  0.00  0.00    +0.000 A 
ATOM     24  C   UNL     1       2.263   8.356  17.784  0.00  0.00    +0.000 A 
ENDBRANCH  18  19
ENDBRANCH  16  17
ENDBRANCH  15  16
ENDBRANCH   4  15
BRANCH   5  25
ATOM     25  C   UNL     1       5.534   6.226  16.630  0.00  0.00    +0.000 C 
BRANCH  25  26
ATOM     26  C   UNL     1       5.979   5.399  15.480  0.00  0.00    +0.000 A 
ATOM     27  C   UNL     1       5.381   4.410  14.719  0.00  0.00    +0.000 A 
ATOM     28  C   UNL     1       6.304   4.078  13.696  0.00  0.00    +0.000 A 
ATOM     29  C   UNL     1       7.405   4.874  13.899  0.00  0.00    +0.000 A 
ATOM     30  O   UNL     1       7.218   5.676  14.977  0.00  0.00    +0.000 OA
ENDBRANCH  25  26
ENDBRANCH   5  25
TORSDOF 9
ENDMDL
MODEL 3
REMARK VINA RESULT:      -7.7      1.627      6.696
REMARK  Name = 
REMARK  10 active torsions:
REMARK  status: ('A' for Active; 'I' for Inactive)
REMARK    1  A    between atoms: C_1  and  C_2
REMARK    2  A    between atoms: C_5  and  O_6
REMARK    3  A    between atoms: O_6  and  C_7
REMARK    4  A    between atoms: C_7  and  C_8
REMARK    5  A    between atoms: C_11  and  S_12
REMARK    6  A    between atoms: S_12  and  C_13
REMARK    7  A    between atoms: C_13  and  C_14
REMARK    8  A    between atoms: C_15  and  C_16
REMARK    9  A    between atoms: N_22  and  C_23
REMARK   10  A    between atoms: C_23  and  C_24
REMARK                            x       y       z     vdW  Elec       q    Type
REMARK                         _______ _______ _______ _____ _____    ______ ____
ROOT
ATOM      1  C   UNL     1       3.889   5.674  18.576  0.00  0.00    +0.000 A 
ATOM      2  N   UNL     1       4.294   5.206  19.744  0.00  0.00    +0.000 NA
ATOM      3  N   UNL     1       5.666   5.268  19.787  0.00  0.00    +0.000 NA
ATOM      4  C   UNL     1       6.079   5.767  18.647  0.00  0.00    +0.000 A 
ATOM      5  N   UNL     1       5.000   6.043  17.845  0.00  0.00    +0.000 N 
ENDROOT
BRANCH   1   6
ATOM      6  C   UNL     1       2.465   5.891  18.178  0.00  0.00    +0.000 C 
BRANCH   6   7
ATOM      7  O   UNL     1       2.284   7.263  17.799  0.00  0.00    +0.000 OA
BRANCH   7  12
ATOM      8  C   UNL     1       0.051  10.298  22.077  0.00  0.00    +0.000 C 
ATOM      9  C   UNL     1       0.672   9.522  20.953  0.00  0.00    +0.000 A 
ATOM     10  C   UNL     1       1.220   8.251  21.154  0.00  0.00    +0.000 A 
ATOM     11  C   UNL     1       1.770   7.535  20.080  0.00  0.00    +0.000 A 
ATOM     12  C   UNL     1       1.767   8.068  18.789  0.00  0.00    +0.000 A 
ATOM     13  C   UNL     1       1.265   9.359  18.600  0.00  0.00    +0.000 A 
ATOM     14  C   UNL     1       0.718  10.075  19.672  0.00  0.00    +0.000 A 
ENDBRANCH   7  12
ENDBRANCH   6   7
ENDBRANCH   1   6
BRANCH   4  15
ATOM     15  S   UNL     1       7.722   6.061  18.188  0.00  0.00    +0.000 S 
BRANCH  15  16
ATOM     16  C   UNL     1       7.665   7.765  17.571  0.00  0.00    +0.000 C 
BRANCH  16  17
ATOM     17  C   UNL     1       8.566   8.660  18.375  0.00  0.00    +0.000 C 
ATOM     18  C   UNL     1       8.803   9.954  18.089  0.00  0.00    +0.000 C 
BRANCH  18  19
ATOM     19  C   UNL     1       9.655  10.841  18.897  0.00  0.00    +0.000 A 
ATOM     20  C   UNL     1      10.695  11.541  18.267  0.00  0.00    +0.000 A 
ATOM     21  C   UNL     1      11.510  12.416  18.995  0.00  0.00    +0.000 A 
ATOM     22  C   UNL     1      11.283  12.611  20.354  0.00  0.00    +0.000 A 
ATOM     23  C   UNL     1      10.242  11.935  20.989  0.00  0.00    +0.000 A 
ATOM     24  C   UNL     1       9.430  11.060  20.263  0.00  0.00    +0.000 A 
ENDBRANCH  18  19
ENDBRANCH  16  17
ENDBRANCH  15  16
ENDBRANCH   4  15
BRANCH   5  25
ATOM     25  C   UNL     1       5.023   6.511  16.473  0.00  0.00    +0.000 C 
BRANCH  25  26
ATOM     26  C   UNL     1       5.542   5.482  15.535  0.00  0.00    +0.000 A 
ATOM     27  C   UNL     1       5.097   4.236  15.133  0.00  0.00    +0.000 A 
ATOM     28  C   UNL     1       5.997   3.791  14.134  0.00  0.00    +0.000 A 
ATOM     29  C   UNL     1       6.937   4.784  13.994  0.00  0.00    +0.000 A 
ATOM     30  O   UNL     1       6.670   5.811  14.838  0.00  0.00    +0.000 OA
ENDBRANCH  25  26
ENDBRANCH   5  25
TORSDOF 9
ENDMDL
MODEL 4
REMARK VINA RESULT:      -7.6      2.262      8.040
REMARK  Name = 
REMARK  10 active torsions:
REMARK  status: ('A' for Active; 'I' for Inactive)
REMARK    1  A    between atoms: C_1  and  C_2
REMARK    2  A    between atoms: C_5  and  O_6
REMARK    3  A    between atoms: O_6  and  C_7
REMARK    4  A    between atoms: C_7  and  C_8
REMARK    5  A    between atoms: C_11  and  S_12
REMARK    6  A    between atoms: S_12  and  C_13
REMARK    7  A    between atoms: C_13  and  C_14
REMARK    8  A    between atoms: C_15  and  C_16
REMARK    9  A    between atoms: N_22  and  C_23
REMARK   10  A    between atoms: C_23  and  C_24
REMARK                            x       y       z     vdW  Elec       q    Type
REMARK                         _______ _______ _______ _____ _____    ______ ____
ROOT
ATOM      1  C   UNL     1       5.734   4.947  16.100  0.00  0.00    +0.000 A 
ATOM      2  N   UNL     1       6.668   5.264  15.220  0.00  0.00    +0.000 NA
ATOM      3  N   UNL     1       7.597   6.065  15.839  0.00  0.00    +0.000 NA
ATOM      4  C   UNL     1       7.215   6.230  17.083  0.00  0.00    +0.000 A 
ATOM      5  N   UNL     1       6.046   5.546  17.303  0.00  0.00    +0.000 N 
ENDROOT
BRANCH   1   6
ATOM      6  C   UNL     1       4.609   3.992  15.860  0.00  0.00    +0.000 C 
BRANCH   6   7
ATOM      7  O   UNL     1       4.737   2.878  16.754  0.00  0.00    +0.000 OA
BRANCH   7  12
ATOM      8  C   UNL     1       0.772   3.077  20.846  0.00  0.00    +0.000 C 
ATOM      9  C   UNL     1       1.808   2.985  19.765  0.00  0.00    +0.000 A 
ATOM     10  C   UNL     1       1.559   3.448  18.469  0.00  0.00    +0.000 A 
ATOM     11  C   UNL     1       2.554   3.375  17.482  0.00  0.00    +0.000 A 
ATOM     12  C   UNL     1       3.817   2.856  17.779  0.00  0.00    +0.000 A 
ATOM     13  C   UNL     1       4.047   2.349  19.060  0.00  0.00    +0.000 A 
ATOM     14  C   UNL     1       3.053   2.418  20.045  0.00  0.00    +0.000 A 
ENDBRANCH   7  12
ENDBRANCH   6   7
ENDBRANCH   1   6
BRANCH   4  15
ATOM     15  S   UNL     1       8.036   7.151  18.297  0.00  0.00    +0.000 S 
BRANCH  15  16
ATOM     16  C   UNL     1       8.025   8.827  17.603  0.00  0.00    +0.000 C 
BRANCH  16  17
ATOM     17  C   UNL     1       8.599   9.817  18.577  0.00  0.00    +0.000 C 
ATOM     18  C   UNL     1       9.162  10.988  18.226  0.00  0.00    +0.000 C 
BRANCH  18  19
ATOM     19  C   UNL     1       9.692  11.975  19.181  0.00  0.00    +0.000 A 
ATOM     20  C   UNL     1      10.392  13.087  18.690  0.00  0.00    +0.000 A 
ATOM     21  C   UNL     1      10.886  14.063  19.563  0.00  0.00    +0.000 A 
ATOM     22  C   UNL     1      10.672  13.944  20.934  0.00  0.00    +0.000 A 
ATOM     23  C   UNL     1       9.963  12.853  21.434  0.00  0.00    +0.000 A 
ATOM     24  C   UNL     1       9.471  11.878  20.562  0.00  0.00    +0.000 A 
ENDBRANCH  18  19
ENDBRANCH  16  17
ENDBRANCH  15  16
ENDBRANCH   4  15
BRANCH   5  25
ATOM     25  C   UNL     1       5.242   5.546  18.510  0.00  0.00    +0.000 C 
BRANCH  25  26
ATOM     26  C   UNL     1       4.103   6.495  18.427  0.00  0.00    +0.000 A 
ATOM     27  C   UNL     1       3.673   7.401  17.475  0.00  0.00    +0.000 A 
ATOM     28  C   UNL     1       2.454   7.940  17.954  0.00  0.00    +0.000 A 
ATOM     29  C   UNL     1       2.219   7.340  19.167  0.00  0.00    +0.000 A 
ATOM     30  O   UNL     1       3.212   6.464  19.462  0.00  0.00    +0.000 OA
ENDBRANCH  25  26
ENDBRANCH   5  25
TORSDOF 9
ENDMDL
MODEL 5
REMARK VINA RESULT:      -7.6      0.897      1.360
REMARK  Name = 
REMARK  10 active torsions:
REMARK  status: ('A' for Active; 'I' for Inactive)
REMARK    1  A    between atoms: C_1  and  C_2
REMARK    2  A    between atoms: C_5  and  O_6
REMARK    3  A    between atoms: O_6  and  C_7
REMARK    4  A    between atoms: C_7  and  C_8
REMARK    5  A    between atoms: C_11  and  S_12
REMARK    6  A    between atoms: S_12  and  C_13
REMARK    7  A    between atoms: C_13  and  C_14
REMARK    8  A    between atoms: C_15  and  C_16
REMARK    9  A    between atoms: N_22  and  C_23
REMARK   10  A    between atoms: C_23  and  C_24
REMARK                            x       y       z     vdW  Elec       q    Type
REMARK                         _______ _______ _______ _____ _____    ______ ____
ROOT
ATOM      1  C   UNL     1       7.085   6.567  18.313  0.00  0.00    +0.000 A 
ATOM      2  N   UNL     1       7.397   5.990  19.461  0.00  0.00    +0.000 NA
ATOM      3  N   UNL     1       6.580   4.899  19.637  0.00  0.00    +0.000 NA
ATOM      4  C   UNL     1       5.781   4.828  18.600  0.00  0.00    +0.000 A 
ATOM      5  N   UNL     1       6.056   5.854  17.732  0.00  0.00    +0.000 N 
ENDROOT
BRANCH   1   6
ATOM      6  C   UNL     1       7.820   7.713  17.694  0.00  0.00    +0.000 C 
BRANCH   6   7
ATOM      7  O   UNL     1       8.726   8.268  18.657  0.00  0.00    +0.000 OA
BRANCH   7  12
ATOM      8  C   UNL     1       9.188  13.947  18.858  0.00  0.00    +0.000 C 
ATOM      9  C   UNL     1       9.096  12.451  18.777  0.00  0.00    +0.000 A 
ATOM     10  C   UNL     1       9.647  11.628  19.765  0.00  0.00    +0.000 A 
ATOM     11  C   UNL     1       9.523  10.233  19.680  0.00  0.00    +0.000 A 
ATOM     12  C   UNL     1       8.834   9.640  18.618  0.00  0.00    +0.000 A 
ATOM     13  C   UNL     1       8.329  10.463  17.607  0.00  0.00    +0.000 A 
ATOM     14  C   UNL     1       8.455  11.855  17.690  0.00  0.00    +0.000 A 
ENDBRANCH   7  12
ENDBRANCH   6   7
ENDBRANCH   1   6
BRANCH   4  15
ATOM     15  S   UNL     1       4.561   3.631  18.322  0.00  0.00    +0.000 S 
BRANCH  15  16
ATOM     16  C   UNL     1       3.461   3.845  19.748  0.00  0.00    +0.000 C 
BRANCH  16  17
ATOM     17  C   UNL     1       3.016   5.275  19.877  0.00  0.00    +0.000 C 
ATOM     18  C   UNL     1       2.586   6.032  18.852  0.00  0.00    +0.000 C 
BRANCH  18  19
ATOM     19  C   UNL     1       2.116   7.420  18.983  0.00  0.00    +0.000 A 
ATOM     20  C   UNL     1       2.078   8.235  17.842  0.00  0.00    +0.000 A 
ATOM     21  C   UNL     1       1.610   9.552  17.920  0.00  0.00    +0.000 A 
ATOM     22  C   UNL     1       1.162  10.061  19.136  0.00  0.00    +0.000 A 
ATOM     23  C   UNL     1       1.178   9.257  20.274  0.00  0.00    +0.000 A 
ATOM     24  C   UNL     1       1.647   7.943  20.196  0.00  0.00    +0.000 A 
ENDBRANCH  18  19
ENDBRANCH  16  17
ENDBRANCH  15  16
ENDBRANCH   4  15
BRANCH   5  25
ATOM     25  C   UNL     1       5.340   6.194  16.517  0.00  0.00    +0.000 C 
BRANCH  25  26
ATOM     26  C   UNL     1       5.840   5.440  15.339  0.00  0.00    +0.000 A 
ATOM     27  C   UNL     1       7.064   5.353  14.702  0.00  0.00    +0.000 A 
ATOM     28  C   UNL     1       6.920   4.378  13.685  0.00  0.00    +0.000 A 
ATOM     29  C   UNL     1       5.621   3.936  13.758  0.00  0.00    +0.000 A 
ATOM     30  O   UNL     1       4.959   4.574  14.756  0.00  0.00    +0.000 OA
ENDBRANCH  25  26
ENDBRANCH   5  25
TORSDOF 9
ENDMDL
MODEL 6
REMARK VINA RESULT:      -7.6      1.589      6.578
REMARK  Name = 
REMARK  10 active torsions:
REMARK  status: ('A' for Active; 'I' for Inactive)
REMARK    1  A    between atoms: C_1  and  C_2
REMARK    2  A    between atoms: C_5  and  O_6
REMARK    3  A    between atoms: O_6  and  C_7
REMARK    4  A    between atoms: C_7  and  C_8
REMARK    5  A    between atoms: C_11  and  S_12
REMARK    6  A    between atoms: S_12  and  C_13
REMARK    7  A    between atoms: C_13  and  C_14
REMARK    8  A    between atoms: C_15  and  C_16
REMARK    9  A    between atoms: N_22  and  C_23
REMARK   10  A    between atoms: C_23  and  C_24
REMARK                            x       y       z     vdW  Elec       q    Type
REMARK                         _______ _______ _______ _____ _____    ______ ____
ROOT
ATOM      1  C   UNL     1       4.745   4.571  18.368  0.00  0.00    +0.000 A 
ATOM      2  N   UNL     1       5.252   4.153  19.515  0.00  0.00    +0.000 NA
ATOM      3  N   UNL     1       6.455   4.785  19.718  0.00  0.00    +0.000 NA
ATOM      4  C   UNL     1       6.668   5.575  18.693  0.00  0.00    +0.000 A 
ATOM      5  N   UNL     1       5.621   5.481  17.811  0.00  0.00    +0.000 N 
ENDROOT
BRANCH   1   6
ATOM      6  C   UNL     1       3.392   4.218  17.839  0.00  0.00    +0.000 C 
BRANCH   6   7
ATOM      7  O   UNL     1       2.699   5.420  17.474  0.00  0.00    +0.000 OA
BRANCH   7  12
ATOM      8  C   UNL     1       1.244   8.913  21.738  0.00  0.00    +0.000 C 
ATOM      9  C   UNL     1       1.588   7.983  20.612  0.00  0.00    +0.000 A 
ATOM     10  C   UNL     1       1.893   8.462  19.333  0.00  0.00    +0.000 A 
ATOM     11  C   UNL     1       2.238   7.574  18.303  0.00  0.00    +0.000 A 
ATOM     12  C   UNL     1       2.300   6.198  18.538  0.00  0.00    +0.000 A 
ATOM     13  C   UNL     1       1.947   5.719  19.802  0.00  0.00    +0.000 A 
ATOM     14  C   UNL     1       1.600   6.604  20.830  0.00  0.00    +0.000 A 
ENDBRANCH   7  12
ENDBRANCH   6   7
ENDBRANCH   1   6
BRANCH   4  15
ATOM     15  S   UNL     1       8.039   6.604  18.456  0.00  0.00    +0.000 S 
BRANCH  15  16
ATOM     16  C   UNL     1       7.361   7.945  17.439  0.00  0.00    +0.000 C 
BRANCH  16  17
ATOM     17  C   UNL     1       7.932   9.273  17.847  0.00  0.00    +0.000 C 
ATOM     18  C   UNL     1       8.930   9.431  18.736  0.00  0.00    +0.000 C 
BRANCH  18  19
ATOM     19  C   UNL     1       9.514  10.729  19.109  0.00  0.00    +0.000 A 
ATOM     20  C   UNL     1       9.753  11.680  18.106  0.00  0.00    +0.000 A 
ATOM     21  C   UNL     1      10.279  12.936  18.424  0.00  0.00    +0.000 A 
ATOM     22  C   UNL     1      10.559  13.260  19.749  0.00  0.00    +0.000 A 
ATOM     23  C   UNL     1      10.311  12.331  20.758  0.00  0.00    +0.000 A 
ATOM     24  C   UNL     1       9.786  11.076  20.440  0.00  0.00    +0.000 A 
ENDBRANCH  18  19
ENDBRANCH  16  17
ENDBRANCH  15  16
ENDBRANCH   4  15
BRANCH   5  25
ATOM     25  C   UNL     1       5.509   6.113  16.510  0.00  0.00    +0.000 C 
BRANCH  25  26
ATOM     26  C   UNL     1       5.910   5.202  15.406  0.00  0.00    +0.000 A 
ATOM     27  C   UNL     1       5.452   3.978  14.956  0.00  0.00    +0.000 A 
ATOM     28  C   UNL     1       6.198   3.673  13.791  0.00  0.00    +0.000 A 
ATOM     29  C   UNL     1       7.067   4.721  13.607  0.00  0.00    +0.000 A 
ATOM     30  O   UNL     1       6.900   5.651  14.580  0.00  0.00    +0.000 OA
ENDBRANCH  25  26
ENDBRANCH   5  25
TORSDOF 9
ENDMDL
MODEL 7
REMARK VINA RESULT:      -7.6      4.647      8.073
REMARK  Name = 
REMARK  10 active torsions:
REMARK  status: ('A' for Active; 'I' for Inactive)
REMARK    1  A    between atoms: C_1  and  C_2
REMARK    2  A    between atoms: C_5  and  O_6
REMARK    3  A    between atoms: O_6  and  C_7
REMARK    4  A    between atoms: C_7  and  C_8
REMARK    5  A    between atoms: C_11  and  S_12
REMARK    6  A    between atoms: S_12  and  C_13
REMARK    7  A    between atoms: C_13  and  C_14
REMARK    8  A    between atoms: C_15  and  C_16
REMARK    9  A    between atoms: N_22  and  C_23
REMARK   10  A    between atoms: C_23  and  C_24
REMARK                            x       y       z     vdW  Elec       q    Type
REMARK                         _______ _______ _______ _____ _____    ______ ____
ROOT
ATOM      1  C   UNL     1       2.405   7.726  18.826  0.00  0.00    +0.000 A 
ATOM      2  N   UNL     1       3.027   7.986  17.689  0.00  0.00    +0.000 NA
ATOM      3  N   UNL     1       3.973   7.013  17.476  0.00  0.00    +0.000 NA
ATOM      4  C   UNL     1       3.918   6.177  18.484  0.00  0.00    +0.000 A 
ATOM      5  N   UNL     1       2.946   6.577  19.366  0.00  0.00    +0.000 N 
ENDROOT
BRANCH   1   6
ATOM      6  C   UNL     1       1.226   8.476  19.358  0.00  0.00    +0.000 C 
BRANCH   6   7
ATOM      7  O   UNL     1       1.423   8.737  20.755  0.00  0.00    +0.000 OA
BRANCH   7  12
ATOM      8  C   UNL     1      -2.319  12.281  23.190  0.00  0.00    +0.000 C 
ATOM      9  C   UNL     1      -1.305  11.375  22.557  0.00  0.00    +0.000 A 
ATOM     10  C   UNL     1      -0.830  10.234  23.213  0.00  0.00    +0.000 A 
ATOM     11  C   UNL     1       0.099   9.388  22.588  0.00  0.00    +0.000 A 
ATOM     12  C   UNL     1       0.554   9.657  21.295  0.00  0.00    +0.000 A 
ATOM     13  C   UNL     1       0.117  10.824  20.662  0.00  0.00    +0.000 A 
ATOM     14  C   UNL     1      -0.808  11.671  21.286  0.00  0.00    +0.000 A 
ENDBRANCH   7  12
ENDBRANCH   6   7
ENDBRANCH   1   6
BRANCH   4  15
ATOM     15  S   UNL     1       4.895   4.764  18.703  0.00  0.00    +0.000 S 
BRANCH  15  16
ATOM     16  C   UNL     1       4.116   3.563  17.589  0.00  0.00    +0.000 C 
BRANCH  16  17
ATOM     17  C   UNL     1       4.643   3.706  16.189  0.00  0.00    +0.000 C 
ATOM     18  C   UNL     1       5.872   4.159  15.883  0.00  0.00    +0.000 C 
BRANCH  18  19
ATOM     19  C   UNL     1       6.402   4.264  14.514  0.00  0.00    +0.000 A 
ATOM     20  C   UNL     1       5.841   3.468  13.505  0.00  0.00    +0.000 A 
ATOM     21  C   UNL     1       6.297   3.560  12.185  0.00  0.00    +0.000 A 
ATOM     22  C   UNL     1       7.308   4.459  11.859  0.00  0.00    +0.000 A 
ATOM     23  C   UNL     1       7.863   5.269  12.848  0.00  0.00    +0.000 A 
ATOM     24  C   UNL     1       7.409   5.176  14.166  0.00  0.00    +0.000 A 
ENDBRANCH  18  19
ENDBRANCH  16  17
ENDBRANCH  15  16
ENDBRANCH   4  15
BRANCH   5  25
ATOM     25  C   UNL     1       2.630   5.988  20.653  0.00  0.00    +0.000 C 
BRANCH  25  26
ATOM     26  C   UNL     1       1.932   4.684  20.520  0.00  0.00    +0.000 A 
ATOM     27  C   UNL     1       1.164   4.102  19.528  0.00  0.00    +0.000 A 
ATOM     28  C   UNL     1       0.863   2.790  19.970  0.00  0.00    +0.000 A 
ATOM     29  C   UNL     1       1.456   2.655  21.203  0.00  0.00    +0.000 A 
ATOM     30  O   UNL     1       2.104   3.797  21.544  0.00  0.00    +0.000 OA
ENDBRANCH  25  26
ENDBRANCH   5  25
TORSDOF 9
ENDMDL
MODEL 8
REMARK VINA RESULT:      -7.5      2.152      7.820
REMARK  Name = 
REMARK  10 active torsions:
REMARK  status: ('A' for Active; 'I' for Inactive)
REMARK    1  A    between atoms: C_1  and  C_2
REMARK    2  A    between atoms: C_5  and  O_6
REMARK    3  A    between atoms: O_6  and  C_7
REMARK    4  A    between atoms: C_7  and  C_8
REMARK    5  A    between atoms: C_11  and  S_12
REMARK    6  A    between atoms: S_12  and  C_13
REMARK    7  A    between atoms: C_13  and  C_14
REMARK    8  A    between atoms: C_15  and  C_16
REMARK    9  A    between atoms: N_22  and  C_23
REMARK   10  A    between atoms: C_23  and  C_24
REMARK                            x       y       z     vdW  Elec       q    Type
REMARK                         _______ _______ _______ _____ _____    ______ ____
ROOT
ATOM      1  C   UNL     1       6.005   4.621  16.557  0.00  0.00    +0.000 A 
ATOM      2  N   UNL     1       7.080   3.898  16.819  0.00  0.00    +0.000 NA
ATOM      3  N   UNL     1       7.927   4.642  17.605  0.00  0.00    +0.000 NA
ATOM      4  C   UNL     1       7.361   5.808  17.807  0.00  0.00    +0.000 A 
ATOM      5  N   UNL     1       6.146   5.849  17.170  0.00  0.00    +0.000 N 
ENDROOT
BRANCH   1   6
ATOM      6  C   UNL     1       4.790   4.135  15.835  0.00  0.00    +0.000 C 
BRANCH   6   7
ATOM      7  O   UNL     1       4.388   2.872  16.384  0.00  0.00    +0.000 OA
BRANCH   7  12
ATOM      8  C   UNL     1       1.049   2.960  21.004  0.00  0.00    +0.000 C 
ATOM      9  C   UNL     1       1.932   2.977  19.791  0.00  0.00    +0.000 A 
ATOM     10  C   UNL     1       3.259   2.536  19.845  0.00  0.00    +0.000 A 
ATOM     11  C   UNL     1       4.057   2.536  18.690  0.00  0.00    +0.000 A 
ATOM     12  C   UNL     1       3.538   2.961  17.464  0.00  0.00    +0.000 A 
ATOM     13  C   UNL     1       2.229   3.448  17.424  0.00  0.00    +0.000 A 
ATOM     14  C   UNL     1       1.433   3.450  18.576  0.00  0.00    +0.000 A 
ENDBRANCH   7  12
ENDBRANCH   6   7
ENDBRANCH   1   6
BRANCH   4  15
ATOM     15  S   UNL     1       8.007   7.116  18.739  0.00  0.00    +0.000 S 
BRANCH  15  16
ATOM     16  C   UNL     1       8.031   8.482  17.545  0.00  0.00    +0.000 C 
BRANCH  16  17
ATOM     17  C   UNL     1       8.373   9.781  18.219  0.00  0.00    +0.000 C 
ATOM     18  C   UNL     1       9.453   9.971  18.999  0.00  0.00    +0.000 C 
BRANCH  18  19
ATOM     19  C   UNL     1       9.807  11.253  19.630  0.00  0.00    +0.000 A 
ATOM     20  C   UNL     1       9.272  11.561  20.889  0.00  0.00    +0.000 A 
ATOM     21  C   UNL     1       9.608  12.756  21.535  0.00  0.00    +0.000 A 
ATOM     22  C   UNL     1      10.494  13.647  20.935  0.00  0.00    +0.000 A 
ATOM     23  C   UNL     1      11.047  13.346  19.691  0.00  0.00    +0.000 A 
ATOM     24  C   UNL     1      10.709  12.153  19.046  0.00  0.00    +0.000 A 
ENDBRANCH  18  19
ENDBRANCH  16  17
ENDBRANCH  15  16
ENDBRANCH   4  15
BRANCH   5  25
ATOM     25  C   UNL     1       5.250   6.984  17.062  0.00  0.00    +0.000 C 
BRANCH  25  26
ATOM     26  C   UNL     1       4.119   6.902  18.022  0.00  0.00    +0.000 A 
ATOM     27  C   UNL     1       3.862   6.131  19.140  0.00  0.00    +0.000 A 
ATOM     28  C   UNL     1       2.639   6.601  19.680  0.00  0.00    +0.000 A 
ATOM     29  C   UNL     1       2.223   7.620  18.857  0.00  0.00    +0.000 A 
ATOM     30  O   UNL     1       3.112   7.809  17.850  0.00  0.00    +0.000 OA
ENDBRANCH  25  26
ENDBRANCH   5  25
TORSDOF 9
ENDMDL
MODEL 9
REMARK VINA RESULT:      -7.5      2.350      8.176
REMARK  Name = 
REMARK  10 active torsions:
REMARK  status: ('A' for Active; 'I' for Inactive)
REMARK    1  A    between atoms: C_1  and  C_2
REMARK    2  A    between atoms: C_5  and  O_6
REMARK    3  A    between atoms: O_6  and  C_7
REMARK    4  A    between atoms: C_7  and  C_8
REMARK    5  A    between atoms: C_11  and  S_12
REMARK    6  A    between atoms: S_12  and  C_13
REMARK    7  A    between atoms: C_13  and  C_14
REMARK    8  A    between atoms: C_15  and  C_16
REMARK    9  A    between atoms: N_22  and  C_23
REMARK   10  A    between atoms: C_23  and  C_24
REMARK                            x       y       z     vdW  Elec       q    Type
REMARK                         _______ _______ _______ _____ _____    ______ ____
ROOT
ATOM      1  C   UNL     1       6.117   4.563  16.255  0.00  0.00    +0.000 A 
ATOM      2  N   UNL     1       6.863   5.153  15.337  0.00  0.00    +0.000 NA
ATOM      3  N   UNL     1       7.604   6.138  15.943  0.00  0.00    +0.000 NA
ATOM      4  C   UNL     1       7.297   6.140  17.218  0.00  0.00    +0.000 A 
ATOM      5  N   UNL     1       6.365   5.165  17.471  0.00  0.00    +0.000 N 
ENDROOT
BRANCH   1   6
ATOM      6  C   UNL     1       5.259   3.360  16.029  0.00  0.00    +0.000 C 
BRANCH   6   7
ATOM      7  O   UNL     1       3.881   3.757  16.027  0.00  0.00    +0.000 OA
BRANCH   7  12
ATOM      8  C   UNL     1       0.751   2.390  20.591  0.00  0.00    +0.000 C 
ATOM      9  C   UNL     1       1.564   2.715  19.373  0.00  0.00    +0.000 A 
ATOM     10  C   UNL     1       1.114   3.627  18.412  0.00  0.00    +0.000 A 
ATOM     11  C   UNL     1       1.906   3.934  17.295  0.00  0.00    +0.000 A 
ATOM     12  C   UNL     1       3.163   3.349  17.129  0.00  0.00    +0.000 A 
ATOM     13  C   UNL     1       3.588   2.400  18.063  0.00  0.00    +0.000 A 
ATOM     14  C   UNL     1       2.798   2.092  19.177  0.00  0.00    +0.000 A 
ENDBRANCH   7  12
ENDBRANCH   6   7
ENDBRANCH   1   6
BRANCH   4  15
ATOM     15  S   UNL     1       7.954   7.185  18.432  0.00  0.00    +0.000 S 
BRANCH  15  16
ATOM     16  C   UNL     1       7.889   8.813  17.635  0.00  0.00    +0.000 C 
BRANCH  16  17
ATOM     17  C   UNL     1       8.808   9.785  18.320  0.00  0.00    +0.000 C 
ATOM     18  C   UNL     1       8.924  11.084  17.987  0.00  0.00    +0.000 C 
BRANCH  18  19
ATOM     19  C   UNL     1       9.797  12.045  18.681  0.00  0.00    +0.000 A 
ATOM     20  C   UNL     1       9.264  13.279  19.081  0.00  0.00    +0.000 A 
ATOM     21  C   UNL     1      10.052  14.208  19.769  0.00  0.00    +0.000 A 
ATOM     22  C   UNL     1      11.376  13.907  20.076  0.00  0.00    +0.000 A 
ATOM     23  C   UNL     1      11.914  12.677  19.700  0.00  0.00    +0.000 A 
ATOM     24  C   UNL     1      11.126  11.750  19.011  0.00  0.00    +0.000 A 
ENDBRANCH  18  19
ENDBRANCH  16  17
ENDBRANCH  15  16
ENDBRANCH   4  15
BRANCH   5  25
ATOM     25  C   UNL     1       5.691   4.899  18.727  0.00  0.00    +0.000 C 
BRANCH  25  26
ATOM     26  C   UNL     1       4.493   5.757  18.916  0.00  0.00    +0.000 A 
ATOM     27  C   UNL     1       3.921   6.783  18.187  0.00  0.00    +0.000 A 
ATOM     28  C   UNL     1       2.721   7.131  18.855  0.00  0.00    +0.000 A 
ATOM     29  C   UNL     1       2.638   6.305  19.950  0.00  0.00    +0.000 A 
ATOM     30  O   UNL     1       3.707   5.470  19.995  0.00  0.00    +0.000 OA
ENDBRANCH  25  26
ENDBRANCH   5  25
TORSDOF 9
ENDMDL
