MODEL 1
REMARK VINA RESULT:      -7.6      0.000      0.000
REMARK  Name = 
REMARK  10 active torsions:
REMARK  status: ('A' for Active; 'I' for Inactive)
REMARK    1  A    between atoms: C_1  and  C_2
REMARK    2  A    between atoms: N_8  and  C_9
REMARK    3  A    between atoms: C_10  and  C_11
REMARK    4  A    between atoms: C_17  and  O_18
REMARK    5  A    between atoms: O_18  and  C_19
REMARK    6  A    between atoms: C_19  and  C_20
REMARK    7  A    between atoms: C_20  and  C_21
REMARK    8  A    between atoms: C_21  and  N_22
REMARK    9  A    between atoms: N_25  and  C_26
REMARK   10  A    between atoms: C_29  and  C_30
REMARK                            x       y       z     vdW  Elec       q    Type
REMARK                         _______ _______ _______ _____ _____    ______ ____
ROOT
ATOM      1  C   UNL     1      -0.047  11.349  21.224  0.00  0.00    +0.000 A 
ATOM      2  C   UNL     1      -0.744  11.345  22.452  0.00  0.00    +0.000 A 
ATOM      3  C   UNL     1      -0.697  10.197  23.209  0.00  0.00    +0.000 A 
ATOM      4  N   UNL     1      -0.047   9.060  22.846  0.00  0.00    +0.000 NA
ATOM      5  C   UNL     1       0.570   9.026  21.650  0.00  0.00    +0.000 A 
ATOM      6  C   UNL     1       1.165   7.836  21.223  0.00  0.00    +0.000 A 
ATOM      7  C   UNL     1       1.675   7.686  19.927  0.00  0.00    +0.000 A 
ATOM      8  C   UNL     1       1.731   8.793  19.080  0.00  0.00    +0.000 A 
ATOM      9  C   UNL     1       2.195   8.705  17.652  0.00  0.00    +0.000 C 
ATOM     10  C   UNL     1       1.273  10.026  19.558  0.00  0.00    +0.000 A 
ATOM     11  C   UNL     1       0.609  10.152  20.800  0.00  0.00    +0.000 A 
ENDROOT
BRANCH   1  19
ATOM     12  C   UNL     1       4.890  18.260  20.926  0.00  0.00    +0.000 C 
ATOM     13  C   UNL     1       4.203  16.927  21.004  0.00  0.00    +0.000 A 
ATOM     14  C   UNL     1       4.863  15.812  21.527  0.00  0.00    +0.000 A 
ATOM     15  C   UNL     1       4.235  14.564  21.585  0.00  0.00    +0.000 A 
ATOM     16  C   UNL     1       2.911  14.435  21.127  0.00  0.00    +0.000 A 
ATOM     17  N   UNL     1       2.182  13.266  21.081  0.00  0.00    +0.000 NA
ATOM     18  C   UNL     1       0.982  13.488  20.598  0.00  0.00    +0.000 A 
ATOM     19  N   UNL     1       0.049  12.524  20.431  0.00  0.00    +0.000 N 
ATOM     20  S   UNL     1       0.641  15.126  20.219  0.00  0.00    +0.000 S 
ATOM     21  C   UNL     1       2.250  15.560  20.642  0.00  0.00    +0.000 A 
ATOM     22  C   UNL     1       2.882  16.808  20.550  0.00  0.00    +0.000 A 
ATOM     23  H   UNL     1      -0.557  12.582  19.625  0.00  0.00    +0.000 HD
ENDBRANCH   1  19
BRANCH   2  24
ATOM     24  C   UNL     1      -1.531  12.441  22.925  0.00  0.00    +0.000 C 
ATOM     25  N   UNL     1      -2.170  13.332  23.353  0.00  0.00    +0.000 NA
ENDBRANCH   2  24
BRANCH   7  26
ATOM     26  O   UNL     1       2.158   6.516  19.411  0.00  0.00    +0.000 OA
BRANCH  26  27
ATOM     27  C   UNL     1       2.240   5.403  20.302  0.00  0.00    +0.000 C 
BRANCH  27  28
ATOM     28  C   UNL     1       3.009   4.298  19.592  0.00  0.00    +0.000 C 
BRANCH  28  29
ATOM     29  C   UNL     1       3.449   4.741  18.192  0.00  0.00    +0.000 C 
BRANCH  29  30
ATOM     30  N   UNL     1       4.905   4.709  18.047  0.00  0.00    +0.000 NA
ATOM     31  C   UNL     1       5.572   5.489  19.113  0.00  0.00    +0.000 C 
ATOM     32  C   UNL     1       7.113   5.415  18.974  0.00  0.00    +0.000 C 
ATOM     33  N   UNL     1       7.642   5.803  17.645  0.00  0.00    +0.000 NA
ATOM     34  C   UNL     1       7.550   7.250  17.452  0.00  0.00    +0.000 C 
ATOM     35  C   UNL     1       6.876   5.111  16.592  0.00  0.00    +0.000 C 
ATOM     36  C   UNL     1       5.353   5.245  16.746  0.00  0.00    +0.000 C 
ENDBRANCH  29  30
ENDBRANCH  28  29
ENDBRANCH  27  28
ENDBRANCH  26  27
ENDBRANCH   7  26
TORSDOF 7
ENDMDL
MODEL 2
REMARK VINA RESULT:      -7.4      2.813      5.832
REMARK  Name = 
REMARK  10 active torsions:
REMARK  status: ('A' for Active; 'I' for Inactive)
REMARK    1  A    between atoms: C_1  and  C_2
REMARK    2  A    between atoms: N_8  and  C_9
REMARK    3  A    between atoms: C_10  and  C_11
REMARK    4  A    between atoms: C_17  and  O_18
REMARK    5  A    between atoms: O_18  and  C_19
REMARK    6  A    between atoms: C_19  and  C_20
REMARK    7  A    between atoms: C_20  and  C_21
REMARK    8  A    between atoms: C_21  and  N_22
REMARK    9  A    between atoms: N_25  and  C_26
REMARK   10  A    between atoms: C_29  and  C_30
REMARK                            x       y       z     vdW  Elec       q    Type
REMARK                         _______ _______ _______ _____ _____    ______ ____
ROOT
ATOM      1  C   UNL     1       0.202  13.077  20.930  0.00  0.00    +0.000 A 
ATOM      2  C   UNL     1       0.477  14.260  20.209  0.00  0.00    +0.000 A 
ATOM      3  C   UNL     1       0.958  14.130  18.927  0.00  0.00    +0.000 A 
ATOM      4  N   UNL     1       1.211  12.943  18.316  0.00  0.00    +0.000 NA
ATOM      5  C   UNL     1       1.014  11.806  19.011  0.00  0.00    +0.000 A 
ATOM      6  C   UNL     1       1.355  10.582  18.428  0.00  0.00    +0.000 A 
ATOM      7  C   UNL     1       1.332   9.385  19.155  0.00  0.00    +0.000 A 
ATOM      8  C   UNL     1       0.814   9.378  20.450  0.00  0.00    +0.000 A 
ATOM      9  C   UNL     1       0.819   8.154  21.324  0.00  0.00    +0.000 C 
ATOM     10  C   UNL     1       0.331  10.578  20.985  0.00  0.00    +0.000 A 
ATOM     11  C   UNL     1       0.499  11.817  20.325  0.00  0.00    +0.000 A 
ENDROOT
BRANCH   1  19
ATOM     12  C   UNL     1      -7.654  13.721  24.105  0.00  0.00    +0.000 C 
ATOM     13  C   UNL     1      -6.351  13.463  23.405  0.00  0.00    +0.000 A 
ATOM     14  C   UNL     1      -6.324  12.859  22.145  0.00  0.00    +0.000 A 
ATOM     15  C   UNL     1      -5.113  12.599  21.497  0.00  0.00    +0.000 A 
ATOM     16  C   UNL     1      -3.905  12.969  22.115  0.00  0.00    +0.000 A 
ATOM     17  N   UNL     1      -2.639  12.739  21.619  0.00  0.00    +0.000 NA
ATOM     18  C   UNL     1      -1.728  13.207  22.440  0.00  0.00    +0.000 A 
ATOM     19  N   UNL     1      -0.398  13.117  22.217  0.00  0.00    +0.000 N 
ATOM     20  S   UNL     1      -2.341  13.998  23.833  0.00  0.00    +0.000 S 
ATOM     21  C   UNL     1      -3.945  13.604  23.353  0.00  0.00    +0.000 A 
ATOM     22  C   UNL     1      -5.152  13.840  24.026  0.00  0.00    +0.000 A 
ATOM     23  H   UNL     1       0.209  12.959  23.009  0.00  0.00    +0.000 HD
ENDBRANCH   1  19
BRANCH   2  24
ATOM     24  C   UNL     1       0.331  15.576  20.751  0.00  0.00    +0.000 C 
ATOM     25  N   UNL     1       0.172  16.651  21.202  0.00  0.00    +0.000 NA
ENDBRANCH   2  24
BRANCH   7  26
ATOM     26  O   UNL     1       1.766   8.178  18.680  0.00  0.00    +0.000 OA
BRANCH  26  27
ATOM     27  C   UNL     1       2.898   8.197  17.811  0.00  0.00    +0.000 C 
BRANCH  27  28
ATOM     28  C   UNL     1       3.578   6.839  17.907  0.00  0.00    +0.000 C 
BRANCH  28  29
ATOM     29  C   UNL     1       3.277   6.164  19.251  0.00  0.00    +0.000 C 
BRANCH  29  30
ATOM     30  N   UNL     1       2.597   4.881  19.071  0.00  0.00    +0.000 NA
ATOM     31  C   UNL     1       2.933   3.934  20.157  0.00  0.00    +0.000 C 
ATOM     32  C   UNL     1       2.177   2.593  19.980  0.00  0.00    +0.000 C 
ATOM     33  N   UNL     1       2.353   1.944  18.659  0.00  0.00    +0.000 NA
ATOM     34  C   UNL     1       3.692   1.371  18.536  0.00  0.00    +0.000 C 
ATOM     35  C   UNL     1       2.138   2.940  17.593  0.00  0.00    +0.000 C 
ATOM     36  C   UNL     1       2.939   4.237  17.787  0.00  0.00    +0.000 C 
ENDBRANCH  29  30
ENDBRANCH  28  29
ENDBRANCH  27  28
ENDBRANCH  26  27
ENDBRANCH   7  26
TORSDOF 7
ENDMDL
MODEL 3
REMARK VINA RESULT:      -7.4      0.730      1.154
REMARK  Name = 
REMARK  10 active torsions:
REMARK  status: ('A' for Active; 'I' for Inactive)
REMARK    1  A    between atoms: C_1  and  C_2
REMARK    2  A    between atoms: N_8  and  C_9
REMARK    3  A    between atoms: C_10  and  C_11
REMARK    4  A    between atoms: C_17  and  O_18
REMARK    5  A    between atoms: O_18  and  C_19
REMARK    6  A    between atoms: C_19  and  C_20
REMARK    7  A    between atoms: C_20  and  C_21
REMARK    8  A    between atoms: C_21  and  N_22
REMARK    9  A    between atoms: N_25  and  C_26
REMARK   10  A    between atoms: C_29  and  C_30
REMARK                            x       y       z     vdW  Elec       q    Type
REMARK                         _______ _______ _______ _____ _____    ______ ____
ROOT
ATOM      1  C   UNL     1      -0.053  11.453  21.211  0.00  0.00    +0.000 A 
ATOM      2  C   UNL     1      -0.793  11.521  22.412  0.00  0.00    +0.000 A 
ATOM      3  C   UNL     1      -0.813  10.403  23.214  0.00  0.00    +0.000 A 
ATOM      4  N   UNL     1      -0.190   9.232  22.919  0.00  0.00    +0.000 NA
ATOM      5  C   UNL     1       0.468   9.130  21.749  0.00  0.00    +0.000 A 
ATOM      6  C   UNL     1       1.036   7.905  21.390  0.00  0.00    +0.000 A 
ATOM      7  C   UNL     1       1.586   7.687  20.120  0.00  0.00    +0.000 A 
ATOM      8  C   UNL     1       1.710   8.757  19.234  0.00  0.00    +0.000 A 
ATOM      9  C   UNL     1       2.222   8.597  17.829  0.00  0.00    +0.000 C 
ATOM     10  C   UNL     1       1.278  10.023  19.647  0.00  0.00    +0.000 A 
ATOM     11  C   UNL     1       0.576  10.219  20.858  0.00  0.00    +0.000 A 
ENDROOT
BRANCH   1  19
ATOM     12  C   UNL     1       5.136  18.171  20.818  0.00  0.00    +0.000 C 
ATOM     13  C   UNL     1       4.400  16.867  20.923  0.00  0.00    +0.000 A 
ATOM     14  C   UNL     1       5.002  15.752  21.512  0.00  0.00    +0.000 A 
ATOM     15  C   UNL     1       4.328  14.529  21.595  0.00  0.00    +0.000 A 
ATOM     16  C   UNL     1       3.016  14.428  21.097  0.00  0.00    +0.000 A 
ATOM     17  N   UNL     1       2.247  13.284  21.071  0.00  0.00    +0.000 NA
ATOM     18  C   UNL     1       1.072  13.528  20.539  0.00  0.00    +0.000 A 
ATOM     19  N   UNL     1       0.110  12.592  20.378  0.00  0.00    +0.000 N 
ATOM     20  S   UNL     1       0.803  15.161  20.086  0.00  0.00    +0.000 S 
ATOM     21  C   UNL     1       2.412  15.555  20.548  0.00  0.00    +0.000 A 
ATOM     22  C   UNL     1       3.091  16.776  20.429  0.00  0.00    +0.000 A 
ATOM     23  H   UNL     1      -0.465  12.639  19.549  0.00  0.00    +0.000 HD
ENDBRANCH   1  19
BRANCH   2  24
ATOM     24  C   UNL     1      -1.559  12.660  22.813  0.00  0.00    +0.000 C 
ATOM     25  N   UNL     1      -2.202  13.577  23.175  0.00  0.00    +0.000 NA
ENDBRANCH   2  24
BRANCH   7  26
ATOM     26  O   UNL     1       2.047   6.482  19.668  0.00  0.00    +0.000 OA
BRANCH  26  27
ATOM     27  C   UNL     1       1.639   5.322  20.393  0.00  0.00    +0.000 C 
BRANCH  27  28
ATOM     28  C   UNL     1       2.879   4.478  20.652  0.00  0.00    +0.000 C 
BRANCH  28  29
ATOM     29  C   UNL     1       3.256   3.655  19.415  0.00  0.00    +0.000 C 
BRANCH  29  30
ATOM     30  N   UNL     1       3.958   4.465  18.419  0.00  0.00    +0.000 NA
ATOM     31  C   UNL     1       4.402   3.646  17.270  0.00  0.00    +0.000 C 
ATOM     32  C   UNL     1       5.108   4.519  16.203  0.00  0.00    +0.000 C 
ATOM     33  N   UNL     1       6.229   5.345  16.711  0.00  0.00    +0.000 NA
ATOM     34  C   UNL     1       7.394   4.512  17.007  0.00  0.00    +0.000 C 
ATOM     35  C   UNL     1       5.802   6.054  17.931  0.00  0.00    +0.000 C 
ATOM     36  C   UNL     1       5.144   5.142  18.979  0.00  0.00    +0.000 C 
ENDBRANCH  29  30
ENDBRANCH  28  29
ENDBRANCH  27  28
ENDBRANCH  26  27
ENDBRANCH   7  26
TORSDOF 7
ENDMDL
MODEL 4
REMARK VINA RESULT:      -7.4      2.540      5.584
REMARK  Name = 
REMARK  10 active torsions:
REMARK  status: ('A' for Active; 'I' for Inactive)
REMARK    1  A    between atoms: C_1  and  C_2
REMARK    2  A    between atoms: N_8  and  C_9
REMARK    3  A    between atoms: C_10  and  C_11
REMARK    4  A    between atoms: C_17  and  O_18
REMARK    5  A    between atoms: O_18  and  C_19
REMARK    6  A    between atoms: C_19  and  C_20
REMARK    7  A    between atoms: C_20  and  C_21
REMARK    8  A    between atoms: C_21  and  N_22
REMARK    9  A    between atoms: N_25  and  C_26
REMARK   10  A    between atoms: C_29  and  C_30
REMARK                            x       y       z     vdW  Elec       q    Type
REMARK                         _______ _______ _______ _____ _____    ______ ____
ROOT
ATOM      1  C   UNL     1       0.769  11.786  20.307  0.00  0.00    +0.000 A 
ATOM      2  C   UNL     1       1.070  12.993  19.641  0.00  0.00    +0.000 A 
ATOM      3  C   UNL     1       1.671  12.909  18.406  0.00  0.00    +0.000 A 
ATOM      4  N   UNL     1       2.017  11.745  17.795  0.00  0.00    +0.000 NA
ATOM      5  C   UNL     1       1.793  10.587  18.444  0.00  0.00    +0.000 A 
ATOM      6  C   UNL     1       2.225   9.388  17.869  0.00  0.00    +0.000 A 
ATOM      7  C   UNL     1       2.173   8.173  18.565  0.00  0.00    +0.000 A 
ATOM      8  C   UNL     1       1.539   8.120  19.806  0.00  0.00    +0.000 A 
ATOM      9  C   UNL     1       1.503   6.875  20.650  0.00  0.00    +0.000 C 
ATOM     10  C   UNL     1       0.971   9.291  20.320  0.00  0.00    +0.000 A 
ATOM     11  C   UNL     1       1.160  10.550  19.705  0.00  0.00    +0.000 A 
ENDROOT
BRANCH   1  19
ATOM     12  C   UNL     1      -6.967  14.046  23.001  0.00  0.00    +0.000 C 
ATOM     13  C   UNL     1      -5.704  13.557  22.355  0.00  0.00    +0.000 A 
ATOM     14  C   UNL     1      -5.686  13.187  21.008  0.00  0.00    +0.000 A 
ATOM     15  C   UNL     1      -4.517  12.712  20.406  0.00  0.00    +0.000 A 
ATOM     16  C   UNL     1      -3.335  12.626  21.165  0.00  0.00    +0.000 A 
ATOM     17  N   UNL     1      -2.124  12.139  20.722  0.00  0.00    +0.000 NA
ATOM     18  C   UNL     1      -1.226  12.193  21.678  0.00  0.00    +0.000 A 
ATOM     19  N   UNL     1       0.052  11.776  21.534  0.00  0.00    +0.000 N 
ATOM     20  S   UNL     1      -1.772  12.881  23.152  0.00  0.00    +0.000 S 
ATOM     21  C   UNL     1      -3.355  13.032  22.496  0.00  0.00    +0.000 A 
ATOM     22  C   UNL     1      -4.530  13.479  23.118  0.00  0.00    +0.000 A 
ATOM     23  H   UNL     1       0.499  11.327  22.321  0.00  0.00    +0.000 HD
ENDBRANCH   1  19
BRANCH   2  24
ATOM     24  C   UNL     1       0.834  14.290  20.195  0.00  0.00    +0.000 C 
ATOM     25  N   UNL     1       0.604  15.359  20.630  0.00  0.00    +0.000 NA
ENDBRANCH   2  24
BRANCH   7  26
ATOM     26  O   UNL     1       2.688   6.992  18.106  0.00  0.00    +0.000 OA
BRANCH  26  27
ATOM     27  C   UNL     1       3.966   7.047  17.474  0.00  0.00    +0.000 C 
BRANCH  27  28
ATOM     28  C   UNL     1       4.778   5.857  17.966  0.00  0.00    +0.000 C 
BRANCH  28  29
ATOM     29  C   UNL     1       4.508   4.613  17.112  0.00  0.00    +0.000 C 
BRANCH  29  30
ATOM     30  N   UNL     1       3.905   3.537  17.898  0.00  0.00    +0.000 NA
ATOM     31  C   UNL     1       2.488   3.326  17.529  0.00  0.00    +0.000 C 
ATOM     32  C   UNL     1       1.870   2.159  18.339  0.00  0.00    +0.000 C 
ATOM     33  N   UNL     1       2.007   2.274  19.810  0.00  0.00    +0.000 NA
ATOM     34  C   UNL     1       1.110   3.303  20.335  0.00  0.00    +0.000 C 
ATOM     35  C   UNL     1       3.402   2.612  20.147  0.00  0.00    +0.000 C 
ATOM     36  C   UNL     1       3.961   3.801  19.350  0.00  0.00    +0.000 C 
ENDBRANCH  29  30
ENDBRANCH  28  29
ENDBRANCH  27  28
ENDBRANCH  26  27
ENDBRANCH   7  26
TORSDOF 7
ENDMDL
MODEL 5
REMARK VINA RESULT:      -7.4      2.631      5.799
REMARK  Name = 
REMARK  10 active torsions:
REMARK  status: ('A' for Active; 'I' for Inactive)
REMARK    1  A    between atoms: C_1  and  C_2
REMARK    2  A    between atoms: N_8  and  C_9
REMARK    3  A    between atoms: C_10  and  C_11
REMARK    4  A    between atoms: C_17  and  O_18
REMARK    5  A    between atoms: O_18  and  C_19
REMARK    6  A    between atoms: C_19  and  C_20
REMARK    7  A    between atoms: C_20  and  C_21
REMARK    8  A    between atoms: C_21  and  N_22
REMARK    9  A    between atoms: N_25  and  C_26
REMARK   10  A    between atoms: C_29  and  C_30
REMARK                            x       y       z     vdW  Elec       q    Type
REMARK                         _______ _______ _______ _____ _____    ______ ____
ROOT
ATOM      1  C   UNL     1       0.559  13.030  20.767  0.00  0.00    +0.000 A 
ATOM      2  C   UNL     1       0.908  14.197  20.053  0.00  0.00    +0.000 A 
ATOM      3  C   UNL     1       1.366  14.045  18.765  0.00  0.00    +0.000 A 
ATOM      4  N   UNL     1       1.529  12.849  18.141  0.00  0.00    +0.000 NA
ATOM      5  C   UNL     1       1.259  11.723  18.828  0.00  0.00    +0.000 A 
ATOM      6  C   UNL     1       1.507  10.483  18.231  0.00  0.00    +0.000 A 
ATOM      7  C   UNL     1       1.408   9.283  18.948  0.00  0.00    +0.000 A 
ATOM      8  C   UNL     1       0.904   9.302  20.249  0.00  0.00    +0.000 A 
ATOM      9  C   UNL     1       0.832   8.072  21.112  0.00  0.00    +0.000 C 
ATOM     10  C   UNL     1       0.512  10.527  20.799  0.00  0.00    +0.000 A 
ATOM     11  C   UNL     1       0.760  11.757  20.148  0.00  0.00    +0.000 A 
ENDROOT
BRANCH   1  19
ATOM     12  C   UNL     1      -7.245  13.835  24.032  0.00  0.00    +0.000 C 
ATOM     13  C   UNL     1      -5.956  13.547  23.320  0.00  0.00    +0.000 A 
ATOM     14  C   UNL     1      -5.953  12.922  22.070  0.00  0.00    +0.000 A 
ATOM     15  C   UNL     1      -4.754  12.634  21.411  0.00  0.00    +0.000 A 
ATOM     16  C   UNL     1      -3.533  12.998  22.007  0.00  0.00    +0.000 A 
ATOM     17  N   UNL     1      -2.277  12.742  21.498  0.00  0.00    +0.000 NA
ATOM     18  C   UNL     1      -1.349  13.211  22.299  0.00  0.00    +0.000 A 
ATOM     19  N   UNL     1      -0.023  13.100  22.061  0.00  0.00    +0.000 N 
ATOM     20  S   UNL     1      -1.934  14.035  23.687  0.00  0.00    +0.000 S 
ATOM     21  C   UNL     1      -3.548  13.655  23.234  0.00  0.00    +0.000 A 
ATOM     22  C   UNL     1      -4.743  13.918  23.918  0.00  0.00    +0.000 A 
ATOM     23  H   UNL     1       0.591  12.947  22.848  0.00  0.00    +0.000 HD
ENDBRANCH   1  19
BRANCH   2  24
ATOM     24  C   UNL     1       0.861  15.514  20.608  0.00  0.00    +0.000 C 
ATOM     25  N   UNL     1       0.792  16.587  21.087  0.00  0.00    +0.000 NA
ENDBRANCH   2  24
BRANCH   7  26
ATOM     26  O   UNL     1       1.751   8.054  18.458  0.00  0.00    +0.000 OA
BRANCH  26  27
ATOM     27  C   UNL     1       3.112   7.872  18.068  0.00  0.00    +0.000 C 
BRANCH  27  28
ATOM     28  C   UNL     1       3.567   6.517  18.591  0.00  0.00    +0.000 C 
BRANCH  28  29
ATOM     29  C   UNL     1       3.379   5.424  17.532  0.00  0.00    +0.000 C 
BRANCH  29  30
ATOM     30  N   UNL     1       3.069   4.130  18.140  0.00  0.00    +0.000 NA
ATOM     31  C   UNL     1       1.609   3.913  18.236  0.00  0.00    +0.000 C 
ATOM     32  C   UNL     1       1.292   2.523  18.843  0.00  0.00    +0.000 C 
ATOM     33  N   UNL     1       1.941   2.246  20.147  0.00  0.00    +0.000 NA
ATOM     34  C   UNL     1       1.308   3.017  21.216  0.00  0.00    +0.000 C 
ATOM     35  C   UNL     1       3.372   2.591  20.064  0.00  0.00    +0.000 C 
ATOM     36  C   UNL     1       3.639   3.994  19.495  0.00  0.00    +0.000 C 
ENDBRANCH  29  30
ENDBRANCH  28  29
ENDBRANCH  27  28
ENDBRANCH  26  27
ENDBRANCH   7  26
TORSDOF 7
ENDMDL
MODEL 6
REMARK VINA RESULT:      -7.3      0.885      1.400
REMARK  Name = 
REMARK  10 active torsions:
REMARK  status: ('A' for Active; 'I' for Inactive)
REMARK    1  A    between atoms: C_1  and  C_2
REMARK    2  A    between atoms: N_8  and  C_9
REMARK    3  A    between atoms: C_10  and  C_11
REMARK    4  A    between atoms: C_17  and  O_18
REMARK    5  A    between atoms: O_18  and  C_19
REMARK    6  A    between atoms: C_19  and  C_20
REMARK    7  A    between atoms: C_20  and  C_21
REMARK    8  A    between atoms: C_21  and  N_22
REMARK    9  A    between atoms: N_25  and  C_26
REMARK   10  A    between atoms: C_29  and  C_30
REMARK                            x       y       z     vdW  Elec       q    Type
REMARK                         _______ _______ _______ _____ _____    ______ ____
ROOT
ATOM      1  C   UNL     1       0.140  11.230  21.044  0.00  0.00    +0.000 A 
ATOM      2  C   UNL     1      -0.568  11.284  22.264  0.00  0.00    +0.000 A 
ATOM      3  C   UNL     1      -0.568  10.156  23.052  0.00  0.00    +0.000 A 
ATOM      4  N   UNL     1       0.044   8.988  22.726  0.00  0.00    +0.000 NA
ATOM      5  C   UNL     1       0.672   8.900  21.538  0.00  0.00    +0.000 A 
ATOM      6  C   UNL     1       1.229   7.678  21.149  0.00  0.00    +0.000 A 
ATOM      7  C   UNL     1       1.745   7.476  19.862  0.00  0.00    +0.000 A 
ATOM      8  C   UNL     1       1.847   8.557  18.987  0.00  0.00    +0.000 A 
ATOM      9  C   UNL     1       2.321   8.414  17.567  0.00  0.00    +0.000 C 
ATOM     10  C   UNL     1       1.428   9.818  19.427  0.00  0.00    +0.000 A 
ATOM     11  C   UNL     1       0.758  10.000  20.658  0.00  0.00    +0.000 A 
ENDROOT
BRANCH   1  19
ATOM     12  C   UNL     1       4.958  18.230  20.932  0.00  0.00    +0.000 C 
ATOM     13  C   UNL     1       4.292  16.887  20.997  0.00  0.00    +0.000 A 
ATOM     14  C   UNL     1       4.923  15.805  21.616  0.00  0.00    +0.000 A 
ATOM     15  C   UNL     1       4.315  14.546  21.663  0.00  0.00    +0.000 A 
ATOM     16  C   UNL     1       3.039  14.374  21.095  0.00  0.00    +0.000 A 
ATOM     17  N   UNL     1       2.338  13.188  21.028  0.00  0.00    +0.000 NA
ATOM     18  C   UNL     1       1.182  13.368  20.434  0.00  0.00    +0.000 A 
ATOM     19  N   UNL     1       0.284  12.379  20.220  0.00  0.00    +0.000 N 
ATOM     20  S   UNL     1       0.846  14.985  19.968  0.00  0.00    +0.000 S 
ATOM     21  C   UNL     1       2.403  15.467  20.515  0.00  0.00    +0.000 A 
ATOM     22  C   UNL     1       3.018  16.724  20.434  0.00  0.00    +0.000 A 
ATOM     23  H   UNL     1      -0.248  12.397  19.362  0.00  0.00    +0.000 HD
ENDBRANCH   1  19
BRANCH   2  24
ATOM     24  C   UNL     1      -1.321  12.419  22.699  0.00  0.00    +0.000 C 
ATOM     25  N   UNL     1      -1.971  13.328  23.067  0.00  0.00    +0.000 NA
ENDBRANCH   2  24
BRANCH   7  26
ATOM     26  O   UNL     1       2.192   6.276  19.383  0.00  0.00    +0.000 OA
BRANCH  26  27
ATOM     27  C   UNL     1       3.426   5.790  19.911  0.00  0.00    +0.000 C 
BRANCH  27  28
ATOM     28  C   UNL     1       3.814   4.552  19.116  0.00  0.00    +0.000 C 
BRANCH  28  29
ATOM     29  C   UNL     1       5.335   4.453  18.954  0.00  0.00    +0.000 C 
BRANCH  29  30
ATOM     30  N   UNL     1       5.793   5.114  17.731  0.00  0.00    +0.000 NA
ATOM     31  C   UNL     1       4.712   5.198  16.725  0.00  0.00    +0.000 C 
ATOM     32  C   UNL     1       5.194   5.935  15.450  0.00  0.00    +0.000 C 
ATOM     33  N   UNL     1       6.426   5.385  14.837  0.00  0.00    +0.000 NA
ATOM     34  C   UNL     1       6.150   4.112  14.171  0.00  0.00    +0.000 C 
ATOM     35  C   UNL     1       7.448   5.189  15.882  0.00  0.00    +0.000 C 
ATOM     36  C   UNL     1       6.937   4.418  17.110  0.00  0.00    +0.000 C 
ENDBRANCH  29  30
ENDBRANCH  28  29
ENDBRANCH  27  28
ENDBRANCH  26  27
ENDBRANCH   7  26
TORSDOF 7
ENDMDL
MODEL 7
REMARK VINA RESULT:      -7.1      4.792      7.760
REMARK  Name = 
REMARK  10 active torsions:
REMARK  status: ('A' for Active; 'I' for Inactive)
REMARK    1  A    between atoms: C_1  and  C_2
REMARK    2  A    between atoms: N_8  and  C_9
REMARK    3  A    between atoms: C_10  and  C_11
REMARK    4  A    between atoms: C_17  and  O_18
REMARK    5  A    between atoms: O_18  and  C_19
REMARK    6  A    between atoms: C_19  and  C_20
REMARK    7  A    between atoms: C_20  and  C_21
REMARK    8  A    between atoms: C_21  and  N_22
REMARK    9  A    between atoms: N_25  and  C_26
REMARK   10  A    between atoms: C_29  and  C_30
REMARK                            x       y       z     vdW  Elec       q    Type
REMARK                         _______ _______ _______ _____ _____    ______ ____
ROOT
ATOM      1  C   UNL     1      -1.247  12.107  18.647  0.00  0.00    +0.000 A 
ATOM      2  C   UNL     1      -1.178  10.731  18.338  0.00  0.00    +0.000 A 
ATOM      3  C   UNL     1       0.060  10.132  18.367  0.00  0.00    +0.000 A 
ATOM      4  N   UNL     1       1.223  10.777  18.648  0.00  0.00    +0.000 NA
ATOM      5  C   UNL     1       1.182  12.102  18.884  0.00  0.00    +0.000 A 
ATOM      6  C   UNL     1       2.378  12.796  19.085  0.00  0.00    +0.000 A 
ATOM      7  C   UNL     1       2.418  14.194  19.168  0.00  0.00    +0.000 A 
ATOM      8  C   UNL     1       1.223  14.913  19.203  0.00  0.00    +0.000 A 
ATOM      9  C   UNL     1       1.176  16.417  19.218  0.00  0.00    +0.000 C 
ATOM     10  C   UNL     1       0.015  14.209  19.153  0.00  0.00    +0.000 A 
ATOM     11  C   UNL     1      -0.034  12.818  18.905  0.00  0.00    +0.000 A 
ENDROOT
BRANCH   1  19
ATOM     12  C   UNL     1      -7.320  13.104  24.507  0.00  0.00    +0.000 C 
ATOM     13  C   UNL     1      -6.107  12.965  23.635  0.00  0.00    +0.000 A 
ATOM     14  C   UNL     1      -4.844  12.752  24.194  0.00  0.00    +0.000 A 
ATOM     15  C   UNL     1      -3.708  12.641  23.387  0.00  0.00    +0.000 A 
ATOM     16  C   UNL     1      -3.842  12.726  21.989  0.00  0.00    +0.000 A 
ATOM     17  N   UNL     1      -2.812  12.679  21.073  0.00  0.00    +0.000 NA
ATOM     18  C   UNL     1      -3.275  12.788  19.850  0.00  0.00    +0.000 A 
ATOM     19  N   UNL     1      -2.494  12.781  18.747  0.00  0.00    +0.000 N 
ATOM     20  S   UNL     1      -4.983  12.902  19.726  0.00  0.00    +0.000 S 
ATOM     21  C   UNL     1      -5.109  12.901  21.441  0.00  0.00    +0.000 A 
ATOM     22  C   UNL     1      -6.250  13.046  22.242  0.00  0.00    +0.000 A 
ATOM     23  H   UNL     1      -2.753  13.380  17.976  0.00  0.00    +0.000 HD
ENDBRANCH   1  19
BRANCH   2  24
ATOM     24  C   UNL     1      -2.306   9.943  17.951  0.00  0.00    +0.000 C 
ATOM     25  N   UNL     1      -3.222   9.296  17.593  0.00  0.00    +0.000 NA
ENDBRANCH   2  24
BRANCH   7  26
ATOM     26  O   UNL     1       3.564  14.937  19.244  0.00  0.00    +0.000 OA
BRANCH  26  27
ATOM     27  C   UNL     1       4.382  14.982  18.075  0.00  0.00    +0.000 C 
BRANCH  27  28
ATOM     28  C   UNL     1       5.834  15.009  18.527  0.00  0.00    +0.000 C 
BRANCH  28  29
ATOM     29  C   UNL     1       6.731  14.235  17.553  0.00  0.00    +0.000 C 
BRANCH  29  30
ATOM     30  N   UNL     1       7.989  13.831  18.181  0.00  0.00    +0.000 NA
ATOM     31  C   UNL     1       9.009  14.898  18.083  0.00  0.00    +0.000 C 
ATOM     32  C   UNL     1      10.324  14.477  18.786  0.00  0.00    +0.000 C 
ATOM     33  N   UNL     1      10.889  13.183  18.335  0.00  0.00    +0.000 NA
ATOM     34  C   UNL     1      11.473  13.308  17.000  0.00  0.00    +0.000 C 
ATOM     35  C   UNL     1       9.824  12.164  18.318  0.00  0.00    +0.000 C 
ATOM     36  C   UNL     1       8.553  12.608  17.576  0.00  0.00    +0.000 C 
ENDBRANCH  29  30
ENDBRANCH  28  29
ENDBRANCH  27  28
ENDBRANCH  26  27
ENDBRANCH   7  26
TORSDOF 7
ENDMDL
MODEL 8
REMARK VINA RESULT:      -7.0      2.849      5.319
REMARK  Name = 
REMARK  10 active torsions:
REMARK  status: ('A' for Active; 'I' for Inactive)
REMARK    1  A    between atoms: C_1  and  C_2
REMARK    2  A    between atoms: N_8  and  C_9
REMARK    3  A    between atoms: C_10  and  C_11
REMARK    4  A    between atoms: C_17  and  O_18
REMARK    5  A    between atoms: O_18  and  C_19
REMARK    6  A    between atoms: C_19  and  C_20
REMARK    7  A    between atoms: C_20  and  C_21
REMARK    8  A    between atoms: C_21  and  N_22
REMARK    9  A    between atoms: N_25  and  C_26
REMARK   10  A    between atoms: C_29  and  C_30
REMARK                            x       y       z     vdW  Elec       q    Type
REMARK                         _______ _______ _______ _____ _____    ______ ____
ROOT
ATOM      1  C   UNL     1       0.554  11.786  19.789  0.00  0.00    +0.000 A 
ATOM      2  C   UNL     1       1.012  12.887  19.035  0.00  0.00    +0.000 A 
ATOM      3  C   UNL     1       1.896  12.637  18.010  0.00  0.00    +0.000 A 
ATOM      4  N   UNL     1       2.377  11.407  17.691  0.00  0.00    +0.000 NA
ATOM      5  C   UNL     1       1.999  10.354  18.440  0.00  0.00    +0.000 A 
ATOM      6  C   UNL     1       2.555   9.098  18.181  0.00  0.00    +0.000 A 
ATOM      7  C   UNL     1       2.332   8.002  19.025  0.00  0.00    +0.000 A 
ATOM      8  C   UNL     1       1.414   8.116  20.069  0.00  0.00    +0.000 A 
ATOM      9  C   UNL     1       1.170   7.014  21.063  0.00  0.00    +0.000 C 
ATOM     10  C   UNL     1       0.741   9.331  20.240  0.00  0.00    +0.000 A 
ATOM     11  C   UNL     1       1.077  10.487  19.501  0.00  0.00    +0.000 A 
ENDROOT
BRANCH   1  19
ATOM     12  C   UNL     1      -7.784  13.402  20.080  0.00  0.00    +0.000 C 
ATOM     13  C   UNL     1      -6.360  12.977  19.868  0.00  0.00    +0.000 A 
ATOM     14  C   UNL     1      -5.975  12.329  18.691  0.00  0.00    +0.000 A 
ATOM     15  C   UNL     1      -4.654  11.914  18.496  0.00  0.00    +0.000 A 
ATOM     16  C   UNL     1      -3.695  12.172  19.493  0.00  0.00    +0.000 A 
ATOM     17  N   UNL     1      -2.371  11.786  19.461  0.00  0.00    +0.000 NA
ATOM     18  C   UNL     1      -1.748  12.180  20.546  0.00  0.00    +0.000 A 
ATOM     19  N   UNL     1      -0.440  11.937  20.792  0.00  0.00    +0.000 N 
ATOM     20  S   UNL     1      -2.704  13.084  21.647  0.00  0.00    +0.000 S 
ATOM     21  C   UNL     1      -4.081  12.852  20.644  0.00  0.00    +0.000 A 
ATOM     22  C   UNL     1      -5.409  13.243  20.864  0.00  0.00    +0.000 A 
ATOM     23  H   UNL     1      -0.164  11.742  21.744  0.00  0.00    +0.000 HD
ENDBRANCH   1  19
BRANCH   2  24
ATOM     24  C   UNL     1       0.650  14.245  19.305  0.00  0.00    +0.000 C 
ATOM     25  N   UNL     1       0.392  15.369  19.536  0.00  0.00    +0.000 NA
ENDBRANCH   2  24
BRANCH   7  26
ATOM     26  O   UNL     1       2.940   6.784  18.894  0.00  0.00    +0.000 OA
BRANCH  26  27
ATOM     27  C   UNL     1       2.309   5.837  18.033  0.00  0.00    +0.000 C 
BRANCH  27  28
ATOM     28  C   UNL     1       2.948   4.480  18.290  0.00  0.00    +0.000 C 
BRANCH  28  29
ATOM     29  C   UNL     1       3.491   3.870  16.993  0.00  0.00    +0.000 C 
BRANCH  29  30
ATOM     30  N   UNL     1       4.936   4.066  16.866  0.00  0.00    +0.000 NA
ATOM     31  C   UNL     1       5.544   4.451  18.159  0.00  0.00    +0.000 C 
ATOM     32  C   UNL     1       7.078   4.617  18.024  0.00  0.00    +0.000 C 
ATOM     33  N   UNL     1       7.517   5.542  16.953  0.00  0.00    +0.000 NA
ATOM     34  C   UNL     1       7.256   6.931  17.328  0.00  0.00    +0.000 C 
ATOM     35  C   UNL     1       6.801   5.220  15.705  0.00  0.00    +0.000 C 
ATOM     36  C   UNL     1       5.278   5.106  15.876  0.00  0.00    +0.000 C 
ENDBRANCH  29  30
ENDBRANCH  28  29
ENDBRANCH  27  28
ENDBRANCH  26  27
ENDBRANCH   7  26
TORSDOF 7
ENDMDL
MODEL 9
REMARK VINA RESULT:      -7.0      2.389      4.953
REMARK  Name = 
REMARK  10 active torsions:
REMARK  status: ('A' for Active; 'I' for Inactive)
REMARK    1  A    between atoms: C_1  and  C_2
REMARK    2  A    between atoms: N_8  and  C_9
REMARK    3  A    between atoms: C_10  and  C_11
REMARK    4  A    between atoms: C_17  and  O_18
REMARK    5  A    between atoms: O_18  and  C_19
REMARK    6  A    between atoms: C_19  and  C_20
REMARK    7  A    between atoms: C_20  and  C_21
REMARK    8  A    between atoms: C_21  and  N_22
REMARK    9  A    between atoms: N_25  and  C_26
REMARK   10  A    between atoms: C_29  and  C_30
REMARK                            x       y       z     vdW  Elec       q    Type
REMARK                         _______ _______ _______ _____ _____    ______ ____
ROOT
ATOM      1  C   UNL     1       0.910  11.307  20.035  0.00  0.00    +0.000 A 
ATOM      2  C   UNL     1       1.270  12.414  19.236  0.00  0.00    +0.000 A 
ATOM      3  C   UNL     1       1.956  12.164  18.070  0.00  0.00    +0.000 A 
ATOM      4  N   UNL     1       2.332  10.929  17.646  0.00  0.00    +0.000 NA
ATOM      5  C   UNL     1       2.051   9.868  18.427  0.00  0.00    +0.000 A 
ATOM      6  C   UNL     1       2.510   8.603  18.050  0.00  0.00    +0.000 A 
ATOM      7  C   UNL     1       2.398   7.492  18.896  0.00  0.00    +0.000 A 
ATOM      8  C   UNL     1       1.677   7.606  20.085  0.00  0.00    +0.000 A 
ATOM      9  C   UNL     1       1.569   6.486  21.083  0.00  0.00    +0.000 C 
ATOM     10  C   UNL     1       1.086   8.836  20.395  0.00  0.00    +0.000 A 
ATOM     11  C   UNL     1       1.330  10.001  19.633  0.00  0.00    +0.000 A 
ENDROOT
BRANCH   1  19
ATOM     12  C   UNL     1      -6.889  14.139  21.873  0.00  0.00    +0.000 C 
ATOM     13  C   UNL     1      -5.606  13.534  21.382  0.00  0.00    +0.000 A 
ATOM     14  C   UNL     1      -5.509  13.014  20.088  0.00  0.00    +0.000 A 
ATOM     15  C   UNL     1      -4.322  12.431  19.632  0.00  0.00    +0.000 A 
ATOM     16  C   UNL     1      -3.203  12.388  20.483  0.00  0.00    +0.000 A 
ATOM     17  N   UNL     1      -1.986  11.810  20.189  0.00  0.00    +0.000 NA
ATOM     18  C   UNL     1      -1.157  11.939  21.198  0.00  0.00    +0.000 A 
ATOM     19  N   UNL     1       0.109  11.462  21.197  0.00  0.00    +0.000 N 
ATOM     20  S   UNL     1      -1.775  12.809  22.542  0.00  0.00    +0.000 S 
ATOM     21  C   UNL     1      -3.298  12.943  21.756  0.00  0.00    +0.000 A 
ATOM     22  C   UNL     1      -4.493  13.499  22.234  0.00  0.00    +0.000 A 
ATOM     23  H   UNL     1       0.477  11.089  22.061  0.00  0.00    +0.000 HD
ENDBRANCH   1  19
BRANCH   2  24
ATOM     24  C   UNL     1       1.008  13.774  19.594  0.00  0.00    +0.000 C 
ATOM     25  N   UNL     1       0.752  14.884  19.888  0.00  0.00    +0.000 NA
ENDBRANCH   2  24
BRANCH   7  26
ATOM     26  O   UNL     1       2.931   6.260  18.637  0.00  0.00    +0.000 OA
BRANCH  26  27
ATOM     27  C   UNL     1       2.142   5.366  17.853  0.00  0.00    +0.000 C 
BRANCH  27  28
ATOM     28  C   UNL     1       3.005   4.160  17.515  0.00  0.00    +0.000 C 
BRANCH  28  29
ATOM     29  C   UNL     1       3.901   3.773  18.698  0.00  0.00    +0.000 C 
BRANCH  29  30
ATOM     30  N   UNL     1       5.313   4.035  18.416  0.00  0.00    +0.000 NA
ATOM     31  C   UNL     1       5.837   5.135  19.256  0.00  0.00    +0.000 C 
ATOM     32  C   UNL     1       7.342   5.378  18.978  0.00  0.00    +0.000 C 
ATOM     33  N   UNL     1       7.688   5.607  17.555  0.00  0.00    +0.000 NA
ATOM     34  C   UNL     1       7.246   6.932  17.121  0.00  0.00    +0.000 C 
ATOM     35  C   UNL     1       7.048   4.572  16.723  0.00  0.00    +0.000 C 
ATOM     36  C   UNL     1       5.547   4.393  17.003  0.00  0.00    +0.000 C 
ENDBRANCH  29  30
ENDBRANCH  28  29
ENDBRANCH  27  28
ENDBRANCH  26  27
ENDBRANCH   7  26
TORSDOF 7
ENDMDL
