MODEL 1
REMARK VINA RESULT:      -7.2      0.000      0.000
REMARK  Name = 
REMARK  11 active torsions:
REMARK  status: ('A' for Active; 'I' for Inactive)
REMARK    1  A    between atoms: C_1  and  O_2
REMARK    2  A    between atoms: O_2  and  C_3
REMARK    3  A    between atoms: C_5  and  C_6
REMARK    4  A    between atoms: N_11  and  N_12
REMARK    5  A    between atoms: C_13  and  C_15
REMARK    6  A    between atoms: C_18  and  N_19
REMARK    7  A    between atoms: C_20  and  C_21
REMARK    8  A    between atoms: C_26  and  O_27
REMARK    9  A    between atoms: O_27  and  C_28
REMARK   10  A    between atoms: C_29  and  O_30
REMARK   11  A    between atoms: O_30  and  C_31
REMARK                            x       y       z     vdW  Elec       q    Type
REMARK                         _______ _______ _______ _____ _____    ______ ____
ROOT
ATOM      1  C   UNL     1       3.777   3.456  19.080  0.00  0.00    +0.000 C 
ATOM      2  S   UNL     1       3.849   1.746  18.467  0.00  0.00    +0.000 S 
ATOM      3  C   UNL     1       2.049   1.585  18.357  0.00  0.00    +0.000 C 
ATOM      4  C   UNL     1       1.471   2.980  18.402  0.00  0.00    +0.000 C 
ATOM      5  O   UNL     1       0.317   3.225  18.066  0.00  0.00    +0.000 OA
ATOM      6  N   UNL     1       2.416   3.899  18.837  0.00  0.00    +0.000 N 
ENDROOT
BRANCH   1   9
ATOM      7  C   UNL     1       5.810   5.428  16.465  0.00  0.00    +0.000 A 
ATOM      8  C   UNL     1       4.875   4.554  17.051  0.00  0.00    +0.000 A 
ATOM      9  C   UNL     1       4.846   4.322  18.430  0.00  0.00    +0.000 A 
ATOM     10  C   UNL     1       5.840   4.923  19.203  0.00  0.00    +0.000 A 
ATOM     11  C   UNL     1       6.832   5.748  18.635  0.00  0.00    +0.000 A 
ATOM     12  C   UNL     1       6.828   6.011  17.250  0.00  0.00    +0.000 A 
BRANCH   7  14
ATOM     13  C   UNL     1       5.663   4.566  14.249  0.00  0.00    +0.000 C 
ATOM     14  O   UNL     1       5.756   5.694  15.121  0.00  0.00    +0.000 OA
ENDBRANCH   7  14
BRANCH  11  15
ATOM     15  O   UNL     1       7.698   6.216  19.598  0.00  0.00    +0.000 OA
ATOM     16  C   UNL     1       8.489   5.299  20.340  0.00  0.00    +0.000 C 
ENDBRANCH  11  15
BRANCH  12  17
ATOM     17  O   UNL     1       7.823   6.836  16.798  0.00  0.00    +0.000 OA
ATOM     18  C   UNL     1       7.954   8.169  17.265  0.00  0.00    +0.000 C 
ENDBRANCH  12  17
ENDBRANCH   1   9
BRANCH   6  19
ATOM     19  N   UNL     1       2.118   5.267  18.961  0.00  0.00    +0.000 N 
ATOM     20  C   UNL     1       2.035   5.879  20.201  0.00  0.00    +0.000 C 
ATOM     21  O   UNL     1       2.302   5.344  21.271  0.00  0.00    +0.000 OA
ATOM     22  H   UNL     1       2.085   5.813  18.108  0.00  0.00    +0.000 HD
BRANCH  20  23
ATOM     23  C   UNL     1       1.675   7.328  20.163  0.00  0.00    +0.000 A 
ATOM     24  C   UNL     1       1.065   7.982  21.241  0.00  0.00    +0.000 A 
ATOM     25  C   UNL     1       0.665   9.320  21.120  0.00  0.00    +0.000 A 
ATOM     26  C   UNL     1       0.877  10.024  19.933  0.00  0.00    +0.000 A 
ATOM     27  C   UNL     1       1.529   9.378  18.875  0.00  0.00    +0.000 A 
ATOM     28  C   UNL     1       1.937   8.045  18.993  0.00  0.00    +0.000 A 
BRANCH  26  29
ATOM     29  N   UNL     1       0.475  11.360  19.726  0.00  0.00    +0.000 N 
ATOM     30  C   UNL     1      -0.657  11.804  19.067  0.00  0.00    +0.000 C 
ATOM     31  C   UNL     1      -0.768  13.308  19.038  0.00  0.00    +0.000 C 
ATOM     32  O   UNL     1      -1.507  11.110  18.520  0.00  0.00    +0.000 OA
ATOM     33  H   UNL     1       1.094  12.069  20.098  0.00  0.00    +0.000 HD
ENDBRANCH  26  29
ENDBRANCH  20  23
ENDBRANCH   6  19
TORSDOF 7
ENDMDL
MODEL 2
REMARK VINA RESULT:      -7.0      1.399      1.637
REMARK  Name = 
REMARK  11 active torsions:
REMARK  status: ('A' for Active; 'I' for Inactive)
REMARK    1  A    between atoms: C_1  and  O_2
REMARK    2  A    between atoms: O_2  and  C_3
REMARK    3  A    between atoms: C_5  and  C_6
REMARK    4  A    between atoms: N_11  and  N_12
REMARK    5  A    between atoms: C_13  and  C_15
REMARK    6  A    between atoms: C_18  and  N_19
REMARK    7  A    between atoms: C_20  and  C_21
REMARK    8  A    between atoms: C_26  and  O_27
REMARK    9  A    between atoms: O_27  and  C_28
REMARK   10  A    between atoms: C_29  and  O_30
REMARK   11  A    between atoms: O_30  and  C_31
REMARK                            x       y       z     vdW  Elec       q    Type
REMARK                         _______ _______ _______ _____ _____    ______ ____
ROOT
ATOM      1  C   UNL     1       3.942   3.273  18.639  0.00  0.00    +0.000 C 
ATOM      2  S   UNL     1       3.799   1.484  18.355  0.00  0.00    +0.000 S 
ATOM      3  C   UNL     1       2.017   1.456  18.678  0.00  0.00    +0.000 C 
ATOM      4  C   UNL     1       1.525   2.882  18.588  0.00  0.00    +0.000 C 
ATOM      5  O   UNL     1       0.336   3.161  18.476  0.00  0.00    +0.000 OA
ATOM      6  N   UNL     1       2.582   3.779  18.624  0.00  0.00    +0.000 N 
ENDROOT
BRANCH   1   9
ATOM      7  C   UNL     1       5.425   4.530  15.310  0.00  0.00    +0.000 A 
ATOM      8  C   UNL     1       4.619   3.852  16.244  0.00  0.00    +0.000 A 
ATOM      9  C   UNL     1       4.867   3.922  17.620  0.00  0.00    +0.000 A 
ATOM     10  C   UNL     1       6.002   4.620  18.032  0.00  0.00    +0.000 A 
ATOM     11  C   UNL     1       6.866   5.251  17.115  0.00  0.00    +0.000 A 
ATOM     12  C   UNL     1       6.586   5.212  15.734  0.00  0.00    +0.000 A 
BRANCH   7  14
ATOM     13  C   UNL     1       5.658   3.438  13.206  0.00  0.00    +0.000 C 
ATOM     14  O   UNL     1       5.103   4.505  13.977  0.00  0.00    +0.000 OA
ENDBRANCH   7  14
BRANCH  11  15
ATOM     15  O   UNL     1       7.913   5.867  17.764  0.00  0.00    +0.000 OA
ATOM     16  C   UNL     1       7.954   5.878  19.184  0.00  0.00    +0.000 C 
ENDBRANCH  11  15
BRANCH  12  17
ATOM     17  O   UNL     1       7.477   5.868  14.927  0.00  0.00    +0.000 OA
ATOM     18  C   UNL     1       8.164   5.201  13.881  0.00  0.00    +0.000 C 
ENDBRANCH  12  17
ENDBRANCH   1   9
BRANCH   6  19
ATOM     19  N   UNL     1       2.379   5.169  18.555  0.00  0.00    +0.000 N 
ATOM     20  C   UNL     1       2.212   5.934  19.697  0.00  0.00    +0.000 C 
ATOM     21  O   UNL     1       2.323   5.519  20.846  0.00  0.00    +0.000 OA
ATOM     22  H   UNL     1       2.479   5.606  17.645  0.00  0.00    +0.000 HD
BRANCH  20  23
ATOM     23  C   UNL     1       1.972   7.387  19.451  0.00  0.00    +0.000 A 
ATOM     24  C   UNL     1       1.374   8.224  20.402  0.00  0.00    +0.000 A 
ATOM     25  C   UNL     1       1.087   9.558  20.085  0.00  0.00    +0.000 A 
ATOM     26  C   UNL     1       1.401  10.078  18.828  0.00  0.00    +0.000 A 
ATOM     27  C   UNL     1       2.041   9.249  17.898  0.00  0.00    +0.000 A 
ATOM     28  C   UNL     1       2.336   7.917  18.210  0.00  0.00    +0.000 A 
BRANCH  26  29
ATOM     29  N   UNL     1       1.116  11.400  18.427  0.00  0.00    +0.000 N 
ATOM     30  C   UNL     1       1.421  12.567  19.104  0.00  0.00    +0.000 C 
ATOM     31  C   UNL     1       0.965  13.806  18.374  0.00  0.00    +0.000 C 
ATOM     32  O   UNL     1       1.975  12.660  20.194  0.00  0.00    +0.000 OA
ATOM     33  H   UNL     1       0.627  11.498  17.546  0.00  0.00    +0.000 HD
ENDBRANCH  26  29
ENDBRANCH  20  23
ENDBRANCH   6  19
TORSDOF 7
ENDMDL
MODEL 3
REMARK VINA RESULT:      -7.0      1.503      2.886
REMARK  Name = 
REMARK  11 active torsions:
REMARK  status: ('A' for Active; 'I' for Inactive)
REMARK    1  A    between atoms: C_1  and  O_2
REMARK    2  A    between atoms: O_2  and  C_3
REMARK    3  A    between atoms: C_5  and  C_6
REMARK    4  A    between atoms: N_11  and  N_12
REMARK    5  A    between atoms: C_13  and  C_15
REMARK    6  A    between atoms: C_18  and  N_19
REMARK    7  A    between atoms: C_20  and  C_21
REMARK    8  A    between atoms: C_26  and  O_27
REMARK    9  A    between atoms: O_27  and  C_28
REMARK   10  A    between atoms: C_29  and  O_30
REMARK   11  A    between atoms: O_30  and  C_31
REMARK                            x       y       z     vdW  Elec       q    Type
REMARK                         _______ _______ _______ _____ _____    ______ ____
ROOT
ATOM      1  C   UNL     1       4.208   3.460  18.333  0.00  0.00    +0.000 C 
ATOM      2  S   UNL     1       4.112   1.665  18.066  0.00  0.00    +0.000 S 
ATOM      3  C   UNL     1       2.387   1.558  18.607  0.00  0.00    +0.000 C 
ATOM      4  C   UNL     1       1.823   2.960  18.581  0.00  0.00    +0.000 C 
ATOM      5  O   UNL     1       0.618   3.185  18.618  0.00  0.00    +0.000 OA
ATOM      6  N   UNL     1       2.836   3.904  18.488  0.00  0.00    +0.000 N 
ENDROOT
BRANCH   1   9
ATOM      7  C   UNL     1       6.738   5.652  16.422  0.00  0.00    +0.000 A 
ATOM      8  C   UNL     1       5.974   5.087  17.460  0.00  0.00    +0.000 A 
ATOM      9  C   UNL     1       4.970   4.146  17.209  0.00  0.00    +0.000 A 
ATOM     10  C   UNL     1       4.689   3.848  15.875  0.00  0.00    +0.000 A 
ATOM     11  C   UNL     1       5.392   4.449  14.811  0.00  0.00    +0.000 A 
ATOM     12  C   UNL     1       6.430   5.365  15.074  0.00  0.00    +0.000 A 
BRANCH   7  14
ATOM     13  C   UNL     1       7.425   7.705  17.417  0.00  0.00    +0.000 C 
ATOM     14  O   UNL     1       7.768   6.510  16.713  0.00  0.00    +0.000 OA
ENDBRANCH   7  14
BRANCH  11  15
ATOM     15  O   UNL     1       4.929   3.998  13.595  0.00  0.00    +0.000 OA
ATOM     16  C   UNL     1       5.775   3.214  12.766  0.00  0.00    +0.000 C 
ENDBRANCH  11  15
BRANCH  12  17
ATOM     17  O   UNL     1       7.061   5.882  13.975  0.00  0.00    +0.000 OA
ATOM     18  C   UNL     1       8.230   5.286  13.438  0.00  0.00    +0.000 C 
ENDBRANCH  12  17
ENDBRANCH   1   9
BRANCH   6  19
ATOM     19  N   UNL     1       2.563   5.283  18.447  0.00  0.00    +0.000 N 
ATOM     20  C   UNL     1       2.382   6.020  19.606  0.00  0.00    +0.000 C 
ATOM     21  O   UNL     1       2.536   5.592  20.744  0.00  0.00    +0.000 OA
ATOM     22  H   UNL     1       2.623   5.740  17.543  0.00  0.00    +0.000 HD
BRANCH  20  23
ATOM     23  C   UNL     1       2.065   7.463  19.390  0.00  0.00    +0.000 A 
ATOM     24  C   UNL     1       1.435   8.250  20.361  0.00  0.00    +0.000 A 
ATOM     25  C   UNL     1       1.077   9.574  20.073  0.00  0.00    +0.000 A 
ATOM     26  C   UNL     1       1.352  10.133  18.824  0.00  0.00    +0.000 A 
ATOM     27  C   UNL     1       2.024   9.355  17.872  0.00  0.00    +0.000 A 
ATOM     28  C   UNL     1       2.390   8.035  18.156  0.00  0.00    +0.000 A 
BRANCH  26  29
ATOM     29  N   UNL     1       0.996  11.446  18.450  0.00  0.00    +0.000 N 
ATOM     30  C   UNL     1       1.292  12.619  19.122  0.00  0.00    +0.000 C 
ATOM     31  C   UNL     1       0.752  13.844  18.428  0.00  0.00    +0.000 C 
ATOM     32  O   UNL     1       1.899  12.724  20.182  0.00  0.00    +0.000 OA
ATOM     33  H   UNL     1       0.458  11.531  17.598  0.00  0.00    +0.000 HD
ENDBRANCH  26  29
ENDBRANCH  20  23
ENDBRANCH   6  19
TORSDOF 7
ENDMDL
MODEL 4
REMARK VINA RESULT:      -6.9      1.210      2.916
REMARK  Name = 
REMARK  11 active torsions:
REMARK  status: ('A' for Active; 'I' for Inactive)
REMARK    1  A    between atoms: C_1  and  O_2
REMARK    2  A    between atoms: O_2  and  C_3
REMARK    3  A    between atoms: C_5  and  C_6
REMARK    4  A    between atoms: N_11  and  N_12
REMARK    5  A    between atoms: C_13  and  C_15
REMARK    6  A    between atoms: C_18  and  N_19
REMARK    7  A    between atoms: C_20  and  C_21
REMARK    8  A    between atoms: C_26  and  O_27
REMARK    9  A    between atoms: O_27  and  C_28
REMARK   10  A    between atoms: C_29  and  O_30
REMARK   11  A    between atoms: O_30  and  C_31
REMARK                            x       y       z     vdW  Elec       q    Type
REMARK                         _______ _______ _______ _____ _____    ______ ____
ROOT
ATOM      1  C   UNL     1       4.190   3.567  18.328  0.00  0.00    +0.000 C 
ATOM      2  S   UNL     1       4.165   1.760  18.144  0.00  0.00    +0.000 S 
ATOM      3  C   UNL     1       2.435   1.613  18.660  0.00  0.00    +0.000 C 
ATOM      4  C   UNL     1       1.820   2.990  18.559  0.00  0.00    +0.000 C 
ATOM      5  O   UNL     1       0.607   3.170  18.564  0.00  0.00    +0.000 OA
ATOM      6  N   UNL     1       2.799   3.967  18.438  0.00  0.00    +0.000 N 
ENDROOT
BRANCH   1   9
ATOM      7  C   UNL     1       6.687   5.746  16.359  0.00  0.00    +0.000 A 
ATOM      8  C   UNL     1       5.926   5.202  17.411  0.00  0.00    +0.000 A 
ATOM      9  C   UNL     1       4.946   4.229  17.186  0.00  0.00    +0.000 A 
ATOM     10  C   UNL     1       4.685   3.876  15.862  0.00  0.00    +0.000 A 
ATOM     11  C   UNL     1       5.384   4.453  14.782  0.00  0.00    +0.000 A 
ATOM     12  C   UNL     1       6.399   5.402  15.020  0.00  0.00    +0.000 A 
BRANCH   7  14
ATOM     13  C   UNL     1       7.767   7.137  17.963  0.00  0.00    +0.000 C 
ATOM     14  O   UNL     1       7.695   6.637  16.627  0.00  0.00    +0.000 OA
ENDBRANCH   7  14
BRANCH  11  15
ATOM     15  O   UNL     1       4.943   3.947  13.579  0.00  0.00    +0.000 OA
ATOM     16  C   UNL     1       5.831   3.195  12.763  0.00  0.00    +0.000 C 
ENDBRANCH  11  15
BRANCH  12  17
ATOM     17  O   UNL     1       7.028   5.892  13.908  0.00  0.00    +0.000 OA
ATOM     18  C   UNL     1       8.224   5.313  13.412  0.00  0.00    +0.000 C 
ENDBRANCH  12  17
ENDBRANCH   1   9
BRANCH   6  19
ATOM     19  N   UNL     1       2.476   5.331  18.327  0.00  0.00    +0.000 N 
ATOM     20  C   UNL     1       2.351   6.138  19.446  0.00  0.00    +0.000 C 
ATOM     21  O   UNL     1       2.600   5.792  20.596  0.00  0.00    +0.000 OA
ATOM     22  H   UNL     1       2.457   5.727  17.394  0.00  0.00    +0.000 HD
BRANCH  20  23
ATOM     23  C   UNL     1       1.970   7.553  19.160  0.00  0.00    +0.000 A 
ATOM     24  C   UNL     1       2.209   8.163  17.923  0.00  0.00    +0.000 A 
ATOM     25  C   UNL     1       1.916   9.521  17.737  0.00  0.00    +0.000 A 
ATOM     26  C   UNL     1       1.372  10.282  18.773  0.00  0.00    +0.000 A 
ATOM     27  C   UNL     1       1.092   9.655  19.994  0.00  0.00    +0.000 A 
ATOM     28  C   UNL     1       1.376   8.298  20.183  0.00  0.00    +0.000 A 
BRANCH  26  29
ATOM     29  N   UNL     1       1.079  11.659  18.671  0.00  0.00    +0.000 N 
ATOM     30  C   UNL     1      -0.169  12.245  18.553  0.00  0.00    +0.000 C 
ATOM     31  C   UNL     1      -0.105  13.749  18.470  0.00  0.00    +0.000 C 
ATOM     32  O   UNL     1      -1.248  11.666  18.489  0.00  0.00    +0.000 OA
ATOM     33  H   UNL     1       1.877  12.281  18.680  0.00  0.00    +0.000 HD
ENDBRANCH  26  29
ENDBRANCH  20  23
ENDBRANCH   6  19
TORSDOF 7
ENDMDL
MODEL 5
REMARK VINA RESULT:      -6.8      1.146      1.811
REMARK  Name = 
REMARK  11 active torsions:
REMARK  status: ('A' for Active; 'I' for Inactive)
REMARK    1  A    between atoms: C_1  and  O_2
REMARK    2  A    between atoms: O_2  and  C_3
REMARK    3  A    between atoms: C_5  and  C_6
REMARK    4  A    between atoms: N_11  and  N_12
REMARK    5  A    between atoms: C_13  and  C_15
REMARK    6  A    between atoms: C_18  and  N_19
REMARK    7  A    between atoms: C_20  and  C_21
REMARK    8  A    between atoms: C_26  and  O_27
REMARK    9  A    between atoms: O_27  and  C_28
REMARK   10  A    between atoms: C_29  and  O_30
REMARK   11  A    between atoms: O_30  and  C_31
REMARK                            x       y       z     vdW  Elec       q    Type
REMARK                         _______ _______ _______ _____ _____    ______ ____
ROOT
ATOM      1  C   UNL     1       4.035   3.385  18.633  0.00  0.00    +0.000 C 
ATOM      2  S   UNL     1       3.937   1.581  18.441  0.00  0.00    +0.000 S 
ATOM      3  C   UNL     1       2.173   1.516  18.845  0.00  0.00    +0.000 C 
ATOM      4  C   UNL     1       1.632   2.920  18.709  0.00  0.00    +0.000 C 
ATOM      5  O   UNL     1       0.431   3.158  18.638  0.00  0.00    +0.000 OA
ATOM      6  N   UNL     1       2.661   3.849  18.655  0.00  0.00    +0.000 N 
ENDROOT
BRANCH   1   9
ATOM      7  C   UNL     1       5.353   4.486  15.182  0.00  0.00    +0.000 A 
ATOM      8  C   UNL     1       4.613   3.833  16.185  0.00  0.00    +0.000 A 
ATOM      9  C   UNL     1       4.894   4.011  17.544  0.00  0.00    +0.000 A 
ATOM     10  C   UNL     1       5.999   4.796  17.872  0.00  0.00    +0.000 A 
ATOM     11  C   UNL     1       6.801   5.408  16.888  0.00  0.00    +0.000 A 
ATOM     12  C   UNL     1       6.485   5.258  15.522  0.00  0.00    +0.000 A 
BRANCH   7  14
ATOM     13  C   UNL     1       5.595   3.269  13.148  0.00  0.00    +0.000 C 
ATOM     14  O   UNL     1       4.997   4.352  13.864  0.00  0.00    +0.000 OA
ENDBRANCH   7  14
BRANCH  11  15
ATOM     15  O   UNL     1       7.829   6.124  17.460  0.00  0.00    +0.000 OA
ATOM     16  C   UNL     1       7.657   7.506  17.738  0.00  0.00    +0.000 C 
ENDBRANCH  11  15
BRANCH  12  17
ATOM     17  O   UNL     1       7.315   5.903  14.645  0.00  0.00    +0.000 OA
ATOM     18  C   UNL     1       8.033   5.200  13.644  0.00  0.00    +0.000 C 
ENDBRANCH  12  17
ENDBRANCH   1   9
BRANCH   6  19
ATOM     19  N   UNL     1       2.410   5.227  18.529  0.00  0.00    +0.000 N 
ATOM     20  C   UNL     1       2.220   6.033  19.640  0.00  0.00    +0.000 C 
ATOM     21  O   UNL     1       2.347   5.670  20.804  0.00  0.00    +0.000 OA
ATOM     22  H   UNL     1       2.494   5.630  17.602  0.00  0.00    +0.000 HD
BRANCH  20  23
ATOM     23  C   UNL     1       1.930   7.465  19.334  0.00  0.00    +0.000 A 
ATOM     24  C   UNL     1       2.210   8.043  18.090  0.00  0.00    +0.000 A 
ATOM     25  C   UNL     1       2.004   9.414  17.886  0.00  0.00    +0.000 A 
ATOM     26  C   UNL     1       1.506  10.222  18.910  0.00  0.00    +0.000 A 
ATOM     27  C   UNL     1       1.184   9.629  20.138  0.00  0.00    +0.000 A 
ATOM     28  C   UNL     1       1.382   8.260  20.345  0.00  0.00    +0.000 A 
BRANCH  26  29
ATOM     29  N   UNL     1       1.301  11.612  18.789  0.00  0.00    +0.000 N 
ATOM     30  C   UNL     1       0.093  12.275  18.670  0.00  0.00    +0.000 C 
ATOM     31  C   UNL     1       0.252  13.771  18.564  0.00  0.00    +0.000 C 
ATOM     32  O   UNL     1      -1.022  11.766  18.621  0.00  0.00    +0.000 OA
ATOM     33  H   UNL     1       2.137  12.182  18.784  0.00  0.00    +0.000 HD
ENDBRANCH  26  29
ENDBRANCH  20  23
ENDBRANCH   6  19
TORSDOF 7
ENDMDL
MODEL 6
REMARK VINA RESULT:      -6.8      0.991      2.573
REMARK  Name = 
REMARK  11 active torsions:
REMARK  status: ('A' for Active; 'I' for Inactive)
REMARK    1  A    between atoms: C_1  and  O_2
REMARK    2  A    between atoms: O_2  and  C_3
REMARK    3  A    between atoms: C_5  and  C_6
REMARK    4  A    between atoms: N_11  and  N_12
REMARK    5  A    between atoms: C_13  and  C_15
REMARK    6  A    between atoms: C_18  and  N_19
REMARK    7  A    between atoms: C_20  and  C_21
REMARK    8  A    between atoms: C_26  and  O_27
REMARK    9  A    between atoms: O_27  and  C_28
REMARK   10  A    between atoms: C_29  and  O_30
REMARK   11  A    between atoms: O_30  and  C_31
REMARK                            x       y       z     vdW  Elec       q    Type
REMARK                         _______ _______ _______ _____ _____    ______ ____
ROOT
ATOM      1  C   UNL     1       3.818   3.326  18.696  0.00  0.00    +0.000 C 
ATOM      2  S   UNL     1       3.722   1.553  18.308  0.00  0.00    +0.000 S 
ATOM      3  C   UNL     1       1.933   1.472  18.574  0.00  0.00    +0.000 C 
ATOM      4  C   UNL     1       1.412   2.890  18.549  0.00  0.00    +0.000 C 
ATOM      5  O   UNL     1       0.222   3.152  18.417  0.00  0.00    +0.000 OA
ATOM      6  N   UNL     1       2.449   3.805  18.668  0.00  0.00    +0.000 N 
ENDROOT
BRANCH   1   9
ATOM      7  C   UNL     1       6.777   5.376  17.316  0.00  0.00    +0.000 A 
ATOM      8  C   UNL     1       5.858   4.784  18.202  0.00  0.00    +0.000 A 
ATOM      9  C   UNL     1       4.758   4.050  17.743  0.00  0.00    +0.000 A 
ATOM     10  C   UNL     1       4.552   3.998  16.365  0.00  0.00    +0.000 A 
ATOM     11  C   UNL     1       5.417   4.640  15.455  0.00  0.00    +0.000 A 
ATOM     12  C   UNL     1       6.546   5.341  15.923  0.00  0.00    +0.000 A 
BRANCH   7  14
ATOM     13  C   UNL     1       8.081   5.976  19.217  0.00  0.00    +0.000 C 
ATOM     14  O   UNL     1       7.887   6.018  17.802  0.00  0.00    +0.000 OA
ENDBRANCH   7  14
BRANCH  11  15
ATOM     15  O   UNL     1       5.001   4.447  14.156  0.00  0.00    +0.000 OA
ATOM     16  C   UNL     1       5.587   3.419  13.372  0.00  0.00    +0.000 C 
ENDBRANCH  11  15
BRANCH  12  17
ATOM     17  O   UNL     1       7.332   5.916  14.961  0.00  0.00    +0.000 OA
ATOM     18  C   UNL     1       8.071   5.133  14.038  0.00  0.00    +0.000 C 
ENDBRANCH  12  17
ENDBRANCH   1   9
BRANCH   6  19
ATOM     19  N   UNL     1       2.218   5.192  18.671  0.00  0.00    +0.000 N 
ATOM     20  C   UNL     1       2.188   5.918  19.850  0.00  0.00    +0.000 C 
ATOM     21  O   UNL     1       2.451   5.471  20.960  0.00  0.00    +0.000 OA
ATOM     22  H   UNL     1       2.194   5.659  17.771  0.00  0.00    +0.000 HD
BRANCH  20  23
ATOM     23  C   UNL     1       1.896   7.374  19.684  0.00  0.00    +0.000 A 
ATOM     24  C   UNL     1       1.327   8.149  20.701  0.00  0.00    +0.000 A 
ATOM     25  C   UNL     1       0.989   9.488  20.463  0.00  0.00    +0.000 A 
ATOM     26  C   UNL     1       1.223  10.073  19.216  0.00  0.00    +0.000 A 
ATOM     27  C   UNL     1       1.835   9.305  18.217  0.00  0.00    +0.000 A 
ATOM     28  C   UNL     1       2.181   7.970  18.452  0.00  0.00    +0.000 A 
BRANCH  26  29
ATOM     29  N   UNL     1       0.882  11.403  18.892  0.00  0.00    +0.000 N 
ATOM     30  C   UNL     1      -0.384  11.915  18.670  0.00  0.00    +0.000 C 
ATOM     31  C   UNL     1      -0.372  13.388  18.347  0.00  0.00    +0.000 C 
ATOM     32  O   UNL     1      -1.441  11.294  18.691  0.00  0.00    +0.000 OA
ATOM     33  H   UNL     1       1.657  12.048  18.807  0.00  0.00    +0.000 HD
ENDBRANCH  26  29
ENDBRANCH  20  23
ENDBRANCH   6  19
TORSDOF 7
ENDMDL
MODEL 7
REMARK VINA RESULT:      -6.7      0.302      2.290
REMARK  Name = 
REMARK  11 active torsions:
REMARK  status: ('A' for Active; 'I' for Inactive)
REMARK    1  A    between atoms: C_1  and  O_2
REMARK    2  A    between atoms: O_2  and  C_3
REMARK    3  A    between atoms: C_5  and  C_6
REMARK    4  A    between atoms: N_11  and  N_12
REMARK    5  A    between atoms: C_13  and  C_15
REMARK    6  A    between atoms: C_18  and  N_19
REMARK    7  A    between atoms: C_20  and  C_21
REMARK    8  A    between atoms: C_26  and  O_27
REMARK    9  A    between atoms: O_27  and  C_28
REMARK   10  A    between atoms: C_29  and  O_30
REMARK   11  A    between atoms: O_30  and  C_31
REMARK                            x       y       z     vdW  Elec       q    Type
REMARK                         _______ _______ _______ _____ _____    ______ ____
ROOT
ATOM      1  C   UNL     1       3.787   3.585  19.075  0.00  0.00    +0.000 C 
ATOM      2  S   UNL     1       3.920   1.921  18.356  0.00  0.00    +0.000 S 
ATOM      3  C   UNL     1       2.129   1.735  18.160  0.00  0.00    +0.000 C 
ATOM      4  C   UNL     1       1.522   3.114  18.271  0.00  0.00    +0.000 C 
ATOM      5  O   UNL     1       0.378   3.361  17.903  0.00  0.00    +0.000 OA
ATOM      6  N   UNL     1       2.430   4.019  18.804  0.00  0.00    +0.000 N 
ENDROOT
BRANCH   1   9
ATOM      7  C   UNL     1       6.928   5.806  18.818  0.00  0.00    +0.000 A 
ATOM      8  C   UNL     1       5.881   5.025  19.343  0.00  0.00    +0.000 A 
ATOM      9  C   UNL     1       4.865   4.510  18.530  0.00  0.00    +0.000 A 
ATOM     10  C   UNL     1       4.876   4.873  17.183  0.00  0.00    +0.000 A 
ATOM     11  C   UNL     1       5.873   5.710  16.642  0.00  0.00    +0.000 A 
ATOM     12  C   UNL     1       6.916   6.190  17.459  0.00  0.00    +0.000 A 
BRANCH   7  14
ATOM     13  C   UNL     1       8.564   5.228  20.448  0.00  0.00    +0.000 C 
ATOM     14  O   UNL     1       7.949   6.225  19.630  0.00  0.00    +0.000 OA
ENDBRANCH   7  14
BRANCH  11  15
ATOM     15  O   UNL     1       5.663   5.925  15.298  0.00  0.00    +0.000 OA
ATOM     16  C   UNL     1       6.070   4.945  14.354  0.00  0.00    +0.000 C 
ENDBRANCH  11  15
BRANCH  12  17
ATOM     17  O   UNL     1       7.843   6.983  16.837  0.00  0.00    +0.000 OA
ATOM     18  C   UNL     1       8.078   8.319  17.250  0.00  0.00    +0.000 C 
ENDBRANCH  12  17
ENDBRANCH   1   9
BRANCH   6  19
ATOM     19  N   UNL     1       2.099   5.371  19.005  0.00  0.00    +0.000 N 
ATOM     20  C   UNL     1       1.963   5.900  20.278  0.00  0.00    +0.000 C 
ATOM     21  O   UNL     1       2.206   5.303  21.320  0.00  0.00    +0.000 OA
ATOM     22  H   UNL     1       2.083   5.970  18.187  0.00  0.00    +0.000 HD
BRANCH  20  23
ATOM     23  C   UNL     1       1.574   7.342  20.319  0.00  0.00    +0.000 A 
ATOM     24  C   UNL     1       0.944   7.921  21.428  0.00  0.00    +0.000 A 
ATOM     25  C   UNL     1       0.518   9.255  21.379  0.00  0.00    +0.000 A 
ATOM     26  C   UNL     1       0.724  10.030  20.236  0.00  0.00    +0.000 A 
ATOM     27  C   UNL     1       1.396   9.459  19.148  0.00  0.00    +0.000 A 
ATOM     28  C   UNL     1       1.830   8.129  19.193  0.00  0.00    +0.000 A 
BRANCH  26  29
ATOM     29  N   UNL     1       0.297  11.368  20.102  0.00  0.00    +0.000 N 
ATOM     30  C   UNL     1      -0.882  11.820  19.538  0.00  0.00    +0.000 C 
ATOM     31  C   UNL     1      -1.009  13.323  19.567  0.00  0.00    +0.000 C 
ATOM     32  O   UNL     1      -1.762  11.135  19.027  0.00  0.00    +0.000 OA
ATOM     33  H   UNL     1       0.933  12.071  20.455  0.00  0.00    +0.000 HD
ENDBRANCH  26  29
ENDBRANCH  20  23
ENDBRANCH   6  19
TORSDOF 7
ENDMDL
MODEL 8
REMARK VINA RESULT:      -6.6      4.751      8.845
REMARK  Name = 
REMARK  11 active torsions:
REMARK  status: ('A' for Active; 'I' for Inactive)
REMARK    1  A    between atoms: C_1  and  O_2
REMARK    2  A    between atoms: O_2  and  C_3
REMARK    3  A    between atoms: C_5  and  C_6
REMARK    4  A    between atoms: N_11  and  N_12
REMARK    5  A    between atoms: C_13  and  C_15
REMARK    6  A    between atoms: C_18  and  N_19
REMARK    7  A    between atoms: C_20  and  C_21
REMARK    8  A    between atoms: C_26  and  O_27
REMARK    9  A    between atoms: O_27  and  C_28
REMARK   10  A    between atoms: C_29  and  O_30
REMARK   11  A    between atoms: O_30  and  C_31
REMARK                            x       y       z     vdW  Elec       q    Type
REMARK                         _______ _______ _______ _____ _____    ______ ____
ROOT
ATOM      1  C   UNL     1       0.041  13.582  20.954  0.00  0.00    +0.000 C 
ATOM      2  S   UNL     1      -0.682  14.756  22.138  0.00  0.00    +0.000 S 
ATOM      3  C   UNL     1      -1.509  13.461  23.096  0.00  0.00    +0.000 C 
ATOM      4  C   UNL     1      -0.867  12.147  22.719  0.00  0.00    +0.000 C 
ATOM      5  O   UNL     1      -1.005  11.130  23.391  0.00  0.00    +0.000 OA
ATOM      6  N   UNL     1      -0.113  12.273  21.561  0.00  0.00    +0.000 N 
ENDROOT
BRANCH   1   9
ATOM      7  C   UNL     1       3.175  14.721  19.020  0.00  0.00    +0.000 A 
ATOM      8  C   UNL     1       1.868  14.290  19.314  0.00  0.00    +0.000 A 
ATOM      9  C   UNL     1       1.477  13.954  20.615  0.00  0.00    +0.000 A 
ATOM     10  C   UNL     1       2.459  13.977  21.605  0.00  0.00    +0.000 A 
ATOM     11  C   UNL     1       3.793  14.339  21.328  0.00  0.00    +0.000 A 
ATOM     12  C   UNL     1       4.169  14.716  20.023  0.00  0.00    +0.000 A 
BRANCH   7  14
ATOM     13  C   UNL     1       3.179  16.469  17.401  0.00  0.00    +0.000 C 
ATOM     14  O   UNL     1       3.500  15.120  17.749  0.00  0.00    +0.000 OA
ENDBRANCH   7  14
BRANCH  11  15
ATOM     15  O   UNL     1       4.569  14.279  22.465  0.00  0.00    +0.000 OA
ATOM     16  C   UNL     1       4.655  15.410  23.320  0.00  0.00    +0.000 C 
ENDBRANCH  11  15
BRANCH  12  17
ATOM     17  O   UNL     1       5.483  15.065  19.859  0.00  0.00    +0.000 OA
ATOM     18  C   UNL     1       5.912  16.413  19.946  0.00  0.00    +0.000 C 
ENDBRANCH  12  17
ENDBRANCH   1   9
BRANCH   6  19
ATOM     19  N   UNL     1       0.585  11.185  21.008  0.00  0.00    +0.000 N 
ATOM     20  C   UNL     1       0.115  10.519  19.888  0.00  0.00    +0.000 C 
ATOM     21  O   UNL     1      -0.861  10.854  19.226  0.00  0.00    +0.000 OA
ATOM     22  H   UNL     1       1.504  10.984  21.386  0.00  0.00    +0.000 HD
BRANCH  20  23
ATOM     23  C   UNL     1       0.953   9.364  19.446  0.00  0.00    +0.000 A 
ATOM     24  C   UNL     1       1.354   8.345  20.320  0.00  0.00    +0.000 A 
ATOM     25  C   UNL     1       2.216   7.334  19.876  0.00  0.00    +0.000 A 
ATOM     26  C   UNL     1       2.679   7.317  18.559  0.00  0.00    +0.000 A 
ATOM     27  C   UNL     1       2.237   8.313  17.677  0.00  0.00    +0.000 A 
ATOM     28  C   UNL     1       1.371   9.321  18.113  0.00  0.00    +0.000 A 
BRANCH  26  29
ATOM     29  N   UNL     1       3.571   6.351  18.048  0.00  0.00    +0.000 N 
ATOM     30  C   UNL     1       3.269   5.067  17.631  0.00  0.00    +0.000 C 
ATOM     31  C   UNL     1       4.477   4.310  17.138  0.00  0.00    +0.000 C 
ATOM     32  O   UNL     1       2.168   4.527  17.655  0.00  0.00    +0.000 OA
ATOM     33  H   UNL     1       4.541   6.634  17.989  0.00  0.00    +0.000 HD
ENDBRANCH  26  29
ENDBRANCH  20  23
ENDBRANCH   6  19
TORSDOF 7
ENDMDL
MODEL 9
REMARK VINA RESULT:      -6.5      4.706      8.859
REMARK  Name = 
REMARK  11 active torsions:
REMARK  status: ('A' for Active; 'I' for Inactive)
REMARK    1  A    between atoms: C_1  and  O_2
REMARK    2  A    between atoms: O_2  and  C_3
REMARK    3  A    between atoms: C_5  and  C_6
REMARK    4  A    between atoms: N_11  and  N_12
REMARK    5  A    between atoms: C_13  and  C_15
REMARK    6  A    between atoms: C_18  and  N_19
REMARK    7  A    between atoms: C_20  and  C_21
REMARK    8  A    between atoms: C_26  and  O_27
REMARK    9  A    between atoms: O_27  and  C_28
REMARK   10  A    between atoms: C_29  and  O_30
REMARK   11  A    between atoms: O_30  and  C_31
REMARK                            x       y       z     vdW  Elec       q    Type
REMARK                         _______ _______ _______ _____ _____    ______ ____
ROOT
ATOM      1  C   UNL     1       0.224  13.541  20.682  0.00  0.00    +0.000 C 
ATOM      2  S   UNL     1      -0.505  14.672  21.904  0.00  0.00    +0.000 S 
ATOM      3  C   UNL     1      -1.204  13.331  22.902  0.00  0.00    +0.000 C 
ATOM      4  C   UNL     1      -0.506  12.056  22.489  0.00  0.00    +0.000 C 
ATOM      5  O   UNL     1      -0.549  11.034  23.165  0.00  0.00    +0.000 OA
ATOM      6  N   UNL     1       0.179  12.226  21.293  0.00  0.00    +0.000 N 
ENDROOT
BRANCH   1   9
ATOM      7  C   UNL     1       3.162  14.940  18.616  0.00  0.00    +0.000 A 
ATOM      8  C   UNL     1       1.897  14.435  18.971  0.00  0.00    +0.000 A 
ATOM      9  C   UNL     1       1.615  13.996  20.269  0.00  0.00    +0.000 A 
ATOM     10  C   UNL     1       2.666  13.995  21.187  0.00  0.00    +0.000 A 
ATOM     11  C   UNL     1       3.961  14.431  20.842  0.00  0.00    +0.000 A 
ATOM     12  C   UNL     1       4.226  14.911  19.544  0.00  0.00    +0.000 A 
BRANCH   7  14
ATOM     13  C   UNL     1       2.993  16.795  17.131  0.00  0.00    +0.000 C 
ATOM     14  O   UNL     1       3.377  15.437  17.356  0.00  0.00    +0.000 OA
ENDBRANCH   7  14
BRANCH  11  15
ATOM     15  O   UNL     1       4.820  14.329  21.914  0.00  0.00    +0.000 OA
ATOM     16  C   UNL     1       4.648  15.179  23.039  0.00  0.00    +0.000 C 
ENDBRANCH  11  15
BRANCH  12  17
ATOM     17  O   UNL     1       5.510  15.325  19.313  0.00  0.00    +0.000 OA
ATOM     18  C   UNL     1       5.905  16.673  19.513  0.00  0.00    +0.000 C 
ENDBRANCH  12  17
ENDBRANCH   1   9
BRANCH   6  19
ATOM     19  N   UNL     1       0.909  11.180  20.702  0.00  0.00    +0.000 N 
ATOM     20  C   UNL     1       0.305  10.265  19.855  0.00  0.00    +0.000 C 
ATOM     21  O   UNL     1      -0.854  10.326  19.462  0.00  0.00    +0.000 OA
ATOM     22  H   UNL     1       1.915  11.192  20.824  0.00  0.00    +0.000 HD
BRANCH  20  23
ATOM     23  C   UNL     1       1.210   9.196  19.338  0.00  0.00    +0.000 A 
ATOM     24  C   UNL     1       1.706   9.195  18.028  0.00  0.00    +0.000 A 
ATOM     25  C   UNL     1       2.476   8.120  17.565  0.00  0.00    +0.000 A 
ATOM     26  C   UNL     1       2.772   7.042  18.401  0.00  0.00    +0.000 A 
ATOM     27  C   UNL     1       2.313   7.070  19.724  0.00  0.00    +0.000 A 
ATOM     28  C   UNL     1       1.549   8.144  20.194  0.00  0.00    +0.000 A 
BRANCH  26  29
ATOM     29  N   UNL     1       3.515   5.912  17.999  0.00  0.00    +0.000 N 
ATOM     30  C   UNL     1       4.528   5.864  17.058  0.00  0.00    +0.000 C 
ATOM     31  C   UNL     1       5.103   4.481  16.883  0.00  0.00    +0.000 C 
ATOM     32  O   UNL     1       4.947   6.799  16.383  0.00  0.00    +0.000 OA
ATOM     33  H   UNL     1       3.268   5.039  18.449  0.00  0.00    +0.000 HD
ENDBRANCH  26  29
ENDBRANCH  20  23
ENDBRANCH   6  19
TORSDOF 7
ENDMDL
