MODEL 1
REMARK VINA RESULT:      -9.0      0.000      0.000
REMARK  Name = 
REMARK  8 active torsions:
REMARK  status: ('A' for Active; 'I' for Inactive)
REMARK    1  A    between atoms: C_2  and  O_3
REMARK    2  A    between atoms: C_2  and  C_4
REMARK    3  A    between atoms: C_6  and  N_7
REMARK    4  A    between atoms: C_8  and  C_10
REMARK    5  A    between atoms: N_18  and  C_19
REMARK    6  A    between atoms: C_19  and  C_20
REMARK    7  A    between atoms: C_28  and  C_29
REMARK    8  A    between atoms: C_29  and  O_31
REMARK                            x       y       z     vdW  Elec       q    Type
REMARK                         _______ _______ _______ _____ _____    ______ ____
ROOT
ATOM      1  N   UNL     1       9.121   9.456  19.222  0.00  0.00    +0.000 N 
ATOM      2  C   UNL     1       8.230   9.131  18.198  0.00  0.00    +0.000 C 
ATOM      3  O   UNL     1       7.752   9.887  17.363  0.00  0.00    +0.000 OA
ATOM      4  H   UNL     1       9.565   8.693  19.724  0.00  0.00    +0.000 HD
ENDROOT
BRANCH   2   5
ATOM      5  C   UNL     1       7.914   7.688  18.088  0.00  0.00    +0.000 A 
ATOM      6  C   UNL     1       8.409   6.794  19.070  0.00  0.00    +0.000 A 
ATOM      7  C   UNL     1       7.813   5.535  19.244  0.00  0.00    +0.000 A 
ATOM      8  C   UNL     1       6.781   5.215  18.382  0.00  0.00    +0.000 A 
ATOM      9  C   UNL     1       6.518   5.994  17.272  0.00  0.00    +0.000 A 
ATOM     10  C   UNL     1       7.024   7.259  17.109  0.00  0.00    +0.000 A 
ATOM     11  C   UNL     1       5.411   5.400  16.560  0.00  0.00    +0.000 C 
ATOM     12  O   UNL     1       5.212   5.560  15.373  0.00  0.00    +0.000 OA
ATOM     13  N   UNL     1       4.778   4.621  17.476  0.00  0.00    +0.000 N 
ATOM     14  C   UNL     1       5.610   4.326  18.527  0.00  0.00    +0.000 C 
ATOM     15  O   UNL     1       5.427   3.576  19.467  0.00  0.00    +0.000 OA
BRANCH  13  16
ATOM     16  C   UNL     1       3.394   4.226  17.280  0.00  0.00    +0.000 C 
BRANCH  16  17
ATOM     17  C   UNL     1       2.787   3.499  18.517  0.00  0.00    +0.000 C 
ATOM     18  C   UNL     1       2.099   2.202  18.126  0.00  0.00    +0.000 C 
ATOM     19  C   UNL     1       1.088   1.997  19.226  0.00  0.00    +0.000 C 
ATOM     20  C   UNL     1       0.694   3.412  19.590  0.00  0.00    +0.000 C 
ATOM     21  O   UNL     1       1.776   4.272  19.199  0.00  0.00    +0.000 OA
ENDBRANCH  16  17
ENDBRANCH  13  16
ENDBRANCH   2   5
BRANCH   1  24
ATOM     22  C   UNL     1       9.574  12.672  21.062  0.00  0.00    +0.000 A 
ATOM     23  C   UNL     1       9.093  11.407  20.717  0.00  0.00    +0.000 A 
ATOM     24  C   UNL     1       9.549  10.757  19.571  0.00  0.00    +0.000 A 
ATOM     25  C   UNL     1      10.479  11.410  18.749  0.00  0.00    +0.000 A 
ATOM     26  C   UNL     1      10.918  12.712  19.057  0.00  0.00    +0.000 A 
ATOM     27  C   UNL     1      10.477  13.336  20.227  0.00  0.00    +0.000 A 
BRANCH  22  29
ATOM     28  O   UNL     1       9.667  14.357  22.714  0.00  0.00    +0.000 OA
ATOM     29  C   UNL     1       9.108  13.361  22.286  0.00  0.00    +0.000 C 
BRANCH  29  30
ATOM     30  O   UNL     1       8.072  12.762  22.908  0.00  0.00    +0.000 OA
ATOM     31  H   UNL     1       7.180  13.082  22.677  0.00  0.00    +0.000 HD
ENDBRANCH  29  30
ENDBRANCH  22  29
BRANCH  26  32
ATOM     32  C   UNL     1      11.887  13.364  18.138  0.00  0.00    +0.000 C 
ATOM     33  O   UNL     1      12.329  14.480  18.348  0.00  0.00    +0.000 OA
BRANCH  32  34
ATOM     34  O   UNL     1      12.266  12.608  17.086  0.00  0.00    +0.000 OA
ATOM     35  H   UNL     1      13.167  12.235  17.112  0.00  0.00    +0.000 HD
ENDBRANCH  32  34
ENDBRANCH  26  32
ENDBRANCH   1  24
TORSDOF 8
ENDMDL
MODEL 2
REMARK VINA RESULT:      -8.9      6.161     10.397
REMARK  Name = 
REMARK  8 active torsions:
REMARK  status: ('A' for Active; 'I' for Inactive)
REMARK    1  A    between atoms: C_2  and  O_3
REMARK    2  A    between atoms: C_2  and  C_4
REMARK    3  A    between atoms: C_6  and  N_7
REMARK    4  A    between atoms: C_8  and  C_10
REMARK    5  A    between atoms: N_18  and  C_19
REMARK    6  A    between atoms: C_19  and  C_20
REMARK    7  A    between atoms: C_28  and  C_29
REMARK    8  A    between atoms: C_29  and  O_31
REMARK                            x       y       z     vdW  Elec       q    Type
REMARK                         _______ _______ _______ _____ _____    ______ ____
ROOT
ATOM      1  N   UNL     1       2.467   7.090  18.849  0.00  0.00    +0.000 N 
ATOM      2  C   UNL     1       2.156   8.310  18.247  0.00  0.00    +0.000 C 
ATOM      3  O   UNL     1       2.486   8.694  17.133  0.00  0.00    +0.000 OA
ATOM      4  H   UNL     1       1.975   6.844  19.702  0.00  0.00    +0.000 HD
ENDROOT
BRANCH   2   5
ATOM      5  C   UNL     1       1.256   9.179  19.040  0.00  0.00    +0.000 A 
ATOM      6  C   UNL     1       1.231   9.046  20.451  0.00  0.00    +0.000 A 
ATOM      7  C   UNL     1       0.735  10.087  21.251  0.00  0.00    +0.000 A 
ATOM      8  C   UNL     1       0.236  11.193  20.588  0.00  0.00    +0.000 A 
ATOM      9  C   UNL     1       0.025  11.164  19.223  0.00  0.00    +0.000 A 
ATOM     10  C   UNL     1       0.561  10.201  18.404  0.00  0.00    +0.000 A 
ATOM     11  C   UNL     1      -0.519  12.440  18.826  0.00  0.00    +0.000 C 
ATOM     12  O   UNL     1      -1.198  12.603  17.832  0.00  0.00    +0.000 OA
ATOM     13  N   UNL     1      -0.173  13.298  19.823  0.00  0.00    +0.000 N 
ATOM     14  C   UNL     1       0.130  12.615  20.973  0.00  0.00    +0.000 C 
ATOM     15  O   UNL     1       0.374  13.047  22.084  0.00  0.00    +0.000 OA
BRANCH  13  16
ATOM     16  C   UNL     1      -0.141  14.731  19.586  0.00  0.00    +0.000 C 
BRANCH  16  17
ATOM     17  C   UNL     1       1.305  15.291  19.441  0.00  0.00    +0.000 C 
ATOM     18  C   UNL     1       1.350  16.498  18.518  0.00  0.00    +0.000 C 
ATOM     19  C   UNL     1       2.769  16.493  18.006  0.00  0.00    +0.000 C 
ATOM     20  C   UNL     1       3.101  15.018  17.944  0.00  0.00    +0.000 C 
ATOM     21  O   UNL     1       2.234  14.345  18.871  0.00  0.00    +0.000 OA
ENDBRANCH  16  17
ENDBRANCH  13  16
ENDBRANCH   2   5
BRANCH   1  24
ATOM     22  C   UNL     1       5.465   5.409  17.392  0.00  0.00    +0.000 A 
ATOM     23  C   UNL     1       4.609   6.413  17.852  0.00  0.00    +0.000 A 
ATOM     24  C   UNL     1       3.336   6.104  18.329  0.00  0.00    +0.000 A 
ATOM     25  C   UNL     1       2.912   4.767  18.308  0.00  0.00    +0.000 A 
ATOM     26  C   UNL     1       3.745   3.760  17.784  0.00  0.00    +0.000 A 
ATOM     27  C   UNL     1       5.032   4.080  17.343  0.00  0.00    +0.000 A 
BRANCH  22  29
ATOM     28  O   UNL     1       7.171   6.873  16.673  0.00  0.00    +0.000 OA
ATOM     29  C   UNL     1       6.824   5.726  16.902  0.00  0.00    +0.000 C 
BRANCH  29  30
ATOM     30  O   UNL     1       7.605   4.651  16.675  0.00  0.00    +0.000 OA
ATOM     31  H   UNL     1       8.247   4.423  17.373  0.00  0.00    +0.000 HD
ENDBRANCH  29  30
ENDBRANCH  22  29
BRANCH  26  32
ATOM     32  C   UNL     1       3.236   2.364  17.768  0.00  0.00    +0.000 C 
ATOM     33  O   UNL     1       2.099   2.093  17.419  0.00  0.00    +0.000 OA
BRANCH  32  34
ATOM     34  O   UNL     1       4.138   1.427  18.125  0.00  0.00    +0.000 OA
ATOM     35  H   UNL     1       3.928   0.887  18.909  0.00  0.00    +0.000 HD
ENDBRANCH  32  34
ENDBRANCH  26  32
ENDBRANCH   1  24
TORSDOF 8
ENDMDL
MODEL 3
REMARK VINA RESULT:      -8.8      6.883     10.421
REMARK  Name = 
REMARK  8 active torsions:
REMARK  status: ('A' for Active; 'I' for Inactive)
REMARK    1  A    between atoms: C_2  and  O_3
REMARK    2  A    between atoms: C_2  and  C_4
REMARK    3  A    between atoms: C_6  and  N_7
REMARK    4  A    between atoms: C_8  and  C_10
REMARK    5  A    between atoms: N_18  and  C_19
REMARK    6  A    between atoms: C_19  and  C_20
REMARK    7  A    between atoms: C_28  and  C_29
REMARK    8  A    between atoms: C_29  and  O_31
REMARK                            x       y       z     vdW  Elec       q    Type
REMARK                         _______ _______ _______ _____ _____    ______ ____
ROOT
ATOM      1  N   UNL     1      -1.237   9.466  17.557  0.00  0.00    +0.000 N 
ATOM      2  C   UNL     1      -0.274  10.194  18.256  0.00  0.00    +0.000 C 
ATOM      3  O   UNL     1      -0.271  11.397  18.479  0.00  0.00    +0.000 OA
ATOM      4  H   UNL     1      -1.194   8.453  17.606  0.00  0.00    +0.000 HD
ENDROOT
BRANCH   2   5
ATOM      5  C   UNL     1       0.807   9.377  18.853  0.00  0.00    +0.000 A 
ATOM      6  C   UNL     1       0.772   9.089  20.241  0.00  0.00    +0.000 A 
ATOM      7  C   UNL     1       1.507   8.012  20.758  0.00  0.00    +0.000 A 
ATOM      8  C   UNL     1       2.288   7.308  19.860  0.00  0.00    +0.000 A 
ATOM      9  C   UNL     1       2.508   7.789  18.584  0.00  0.00    +0.000 A 
ATOM     10  C   UNL     1       1.755   8.790  18.022  0.00  0.00    +0.000 A 
ATOM     11  C   UNL     1       3.372   6.859  17.898  0.00  0.00    +0.000 C 
ATOM     12  O   UNL     1       4.087   7.168  16.965  0.00  0.00    +0.000 OA
ATOM     13  N   UNL     1       3.244   5.689  18.576  0.00  0.00    +0.000 N 
ATOM     14  C   UNL     1       2.754   5.906  19.839  0.00  0.00    +0.000 C 
ATOM     15  O   UNL     1       2.611   5.120  20.757  0.00  0.00    +0.000 OA
BRANCH  13  16
ATOM     16  C   UNL     1       3.590   4.427  17.945  0.00  0.00    +0.000 C 
BRANCH  16  17
ATOM     17  C   UNL     1       5.109   4.094  18.045  0.00  0.00    +0.000 C 
ATOM     18  C   UNL     1       5.840   5.069  18.951  0.00  0.00    +0.000 C 
ATOM     19  C   UNL     1       7.261   5.018  18.446  0.00  0.00    +0.000 C 
ATOM     20  C   UNL     1       7.083   4.781  16.963  0.00  0.00    +0.000 C 
ATOM     21  O   UNL     1       5.798   4.167  16.779  0.00  0.00    +0.000 OA
ENDBRANCH  16  17
ENDBRANCH  13  16
ENDBRANCH   2   5
BRANCH   1  24
ATOM     22  C   UNL     1      -4.372  11.331  16.762  0.00  0.00    +0.000 A 
ATOM     23  C   UNL     1      -3.319  10.771  17.490  0.00  0.00    +0.000 A 
ATOM     24  C   UNL     1      -2.342  10.003  16.857  0.00  0.00    +0.000 A 
ATOM     25  C   UNL     1      -2.450   9.774  15.478  0.00  0.00    +0.000 A 
ATOM     26  C   UNL     1      -3.544  10.282  14.751  0.00  0.00    +0.000 A 
ATOM     27  C   UNL     1      -4.497  11.078  15.393  0.00  0.00    +0.000 A 
BRANCH  22  29
ATOM     28  O   UNL     1      -5.253  12.587  18.556  0.00  0.00    +0.000 OA
ATOM     29  C   UNL     1      -5.403  12.161  17.423  0.00  0.00    +0.000 C 
BRANCH  29  30
ATOM     30  O   UNL     1      -6.525  12.345  16.699  0.00  0.00    +0.000 OA
ATOM     31  H   UNL     1      -7.125  11.580  16.621  0.00  0.00    +0.000 HD
ENDBRANCH  29  30
ENDBRANCH  22  29
BRANCH  26  32
ATOM     32  C   UNL     1      -3.618   9.990  13.296  0.00  0.00    +0.000 C 
ATOM     33  O   UNL     1      -4.654  10.106  12.663  0.00  0.00    +0.000 OA
BRANCH  32  34
ATOM     34  O   UNL     1      -2.447   9.631  12.730  0.00  0.00    +0.000 OA
ATOM     35  H   UNL     1      -1.780   9.226  13.314  0.00  0.00    +0.000 HD
ENDBRANCH  32  34
ENDBRANCH  26  32
ENDBRANCH   1  24
TORSDOF 8
ENDMDL
MODEL 4
REMARK VINA RESULT:      -8.8      6.966      8.759
REMARK  Name = 
REMARK  8 active torsions:
REMARK  status: ('A' for Active; 'I' for Inactive)
REMARK    1  A    between atoms: C_2  and  O_3
REMARK    2  A    between atoms: C_2  and  C_4
REMARK    3  A    between atoms: C_6  and  N_7
REMARK    4  A    between atoms: C_8  and  C_10
REMARK    5  A    between atoms: N_18  and  C_19
REMARK    6  A    between atoms: C_19  and  C_20
REMARK    7  A    between atoms: C_28  and  C_29
REMARK    8  A    between atoms: C_29  and  O_31
REMARK                            x       y       z     vdW  Elec       q    Type
REMARK                         _______ _______ _______ _____ _____    ______ ____
ROOT
ATOM      1  N   UNL     1      -0.269  11.009  21.034  0.00  0.00    +0.000 N 
ATOM      2  C   UNL     1       0.653  10.041  21.432  0.00  0.00    +0.000 C 
ATOM      3  O   UNL     1       1.119   9.876  22.552  0.00  0.00    +0.000 OA
ATOM      4  H   UNL     1      -0.694  10.910  20.117  0.00  0.00    +0.000 HD
ENDROOT
BRANCH   2   5
ATOM      5  C   UNL     1       1.025   9.070  20.377  0.00  0.00    +0.000 A 
ATOM      6  C   UNL     1       1.055   9.495  19.025  0.00  0.00    +0.000 A 
ATOM      7  C   UNL     1       1.781   8.765  18.071  0.00  0.00    +0.000 A 
ATOM      8  C   UNL     1       2.397   7.610  18.514  0.00  0.00    +0.000 A 
ATOM      9  C   UNL     1       2.114   7.090  19.763  0.00  0.00    +0.000 A 
ATOM     10  C   UNL     1       1.474   7.806  20.743  0.00  0.00    +0.000 A 
ATOM     11  C   UNL     1       2.884   5.881  19.930  0.00  0.00    +0.000 C 
ATOM     12  O   UNL     1       2.567   4.980  20.681  0.00  0.00    +0.000 OA
ATOM     13  N   UNL     1       3.903   5.982  19.035  0.00  0.00    +0.000 N 
ATOM     14  C   UNL     1       3.601   6.889  18.050  0.00  0.00    +0.000 C 
ATOM     15  O   UNL     1       4.216   7.159  17.037  0.00  0.00    +0.000 OA
BRANCH  13  16
ATOM     16  C   UNL     1       5.116   5.202  19.206  0.00  0.00    +0.000 C 
BRANCH  16  17
ATOM     17  C   UNL     1       4.991   3.753  18.648  0.00  0.00    +0.000 C 
ATOM     18  C   UNL     1       3.799   3.610  17.716  0.00  0.00    +0.000 C 
ATOM     19  C   UNL     1       3.465   2.142  17.799  0.00  0.00    +0.000 C 
ATOM     20  C   UNL     1       3.821   1.795  19.228  0.00  0.00    +0.000 C 
ATOM     21  O   UNL     1       4.789   2.758  19.674  0.00  0.00    +0.000 OA
ENDBRANCH  16  17
ENDBRANCH  13  16
ENDBRANCH   2   5
BRANCH   1  24
ATOM     22  C   UNL     1      -2.330  13.009  23.420  0.00  0.00    +0.000 A 
ATOM     23  C   UNL     1      -1.905  11.956  22.606  0.00  0.00    +0.000 A 
ATOM     24  C   UNL     1      -0.754  12.074  21.828  0.00  0.00    +0.000 A 
ATOM     25  C   UNL     1      -0.045  13.284  21.850  0.00  0.00    +0.000 A 
ATOM     26  C   UNL     1      -0.505  14.371  22.618  0.00  0.00    +0.000 A 
ATOM     27  C   UNL     1      -1.641  14.225  23.419  0.00  0.00    +0.000 A 
BRANCH  22  29
ATOM     28  O   UNL     1      -4.233  11.881  24.245  0.00  0.00    +0.000 OA
ATOM     29  C   UNL     1      -3.540  12.885  24.262  0.00  0.00    +0.000 C 
BRANCH  29  30
ATOM     30  O   UNL     1      -3.836  13.983  24.986  0.00  0.00    +0.000 OA
ATOM     31  H   UNL     1      -3.146  14.670  25.040  0.00  0.00    +0.000 HD
ENDBRANCH  29  30
ENDBRANCH  22  29
BRANCH  26  32
ATOM     32  C   UNL     1       0.275  15.635  22.585  0.00  0.00    +0.000 C 
ATOM     33  O   UNL     1       0.963  15.997  23.525  0.00  0.00    +0.000 OA
BRANCH  32  34
ATOM     34  O   UNL     1       0.195  16.320  21.425  0.00  0.00    +0.000 OA
ATOM     35  H   UNL     1      -0.204  17.209  21.464  0.00  0.00    +0.000 HD
ENDBRANCH  32  34
ENDBRANCH  26  32
ENDBRANCH   1  24
TORSDOF 8
ENDMDL
MODEL 5
REMARK VINA RESULT:      -8.8      5.822      8.599
REMARK  Name = 
REMARK  8 active torsions:
REMARK  status: ('A' for Active; 'I' for Inactive)
REMARK    1  A    between atoms: C_2  and  O_3
REMARK    2  A    between atoms: C_2  and  C_4
REMARK    3  A    between atoms: C_6  and  N_7
REMARK    4  A    between atoms: C_8  and  C_10
REMARK    5  A    between atoms: N_18  and  C_19
REMARK    6  A    between atoms: C_19  and  C_20
REMARK    7  A    between atoms: C_28  and  C_29
REMARK    8  A    between atoms: C_29  and  O_31
REMARK                            x       y       z     vdW  Elec       q    Type
REMARK                         _______ _______ _______ _____ _____    ______ ____
ROOT
ATOM      1  N   UNL     1       1.090   8.995  19.046  0.00  0.00    +0.000 N 
ATOM      2  C   UNL     1       2.029   8.651  18.073  0.00  0.00    +0.000 C 
ATOM      3  O   UNL     1       2.353   9.305  17.090  0.00  0.00    +0.000 OA
ATOM      4  H   UNL     1       1.058   8.435  19.892  0.00  0.00    +0.000 HD
ENDROOT
BRANCH   2   5
ATOM      5  C   UNL     1       2.754   7.386  18.332  0.00  0.00    +0.000 A 
ATOM      6  C   UNL     1       2.024   6.238  18.726  0.00  0.00    +0.000 A 
ATOM      7  C   UNL     1       2.584   4.959  18.579  0.00  0.00    +0.000 A 
ATOM      8  C   UNL     1       3.877   4.902  18.093  0.00  0.00    +0.000 A 
ATOM      9  C   UNL     1       4.644   6.046  17.987  0.00  0.00    +0.000 A 
ATOM     10  C   UNL     1       4.114   7.311  18.050  0.00  0.00    +0.000 A 
ATOM     11  C   UNL     1       5.941   5.670  17.478  0.00  0.00    +0.000 C 
ATOM     12  O   UNL     1       6.951   6.317  17.667  0.00  0.00    +0.000 OA
ATOM     13  N   UNL     1       5.749   4.468  16.873  0.00  0.00    +0.000 N 
ATOM     14  C   UNL     1       4.603   3.867  17.329  0.00  0.00    +0.000 C 
ATOM     15  O   UNL     1       4.172   2.753  17.098  0.00  0.00    +0.000 OA
BRANCH  13  16
ATOM     16  C   UNL     1       6.686   3.986  15.872  0.00  0.00    +0.000 C 
BRANCH  16  17
ATOM     17  C   UNL     1       6.549   4.722  14.506  0.00  0.00    +0.000 C 
ATOM     18  C   UNL     1       6.334   3.746  13.361  0.00  0.00    +0.000 C 
ATOM     19  C   UNL     1       6.850   4.498  12.160  0.00  0.00    +0.000 C 
ATOM     20  C   UNL     1       7.980   5.321  12.736  0.00  0.00    +0.000 C 
ATOM     21  O   UNL     1       7.721   5.480  14.140  0.00  0.00    +0.000 OA
ENDBRANCH  16  17
ENDBRANCH  13  16
ENDBRANCH   2   5
BRANCH   1  24
ATOM     22  C   UNL     1      -1.668  11.337  18.127  0.00  0.00    +0.000 A 
ATOM     23  C   UNL     1      -0.808  10.236  18.098  0.00  0.00    +0.000 A 
ATOM     24  C   UNL     1       0.235  10.121  19.017  0.00  0.00    +0.000 A 
ATOM     25  C   UNL     1       0.428  11.146  19.953  0.00  0.00    +0.000 A 
ATOM     26  C   UNL     1      -0.395  12.289  19.945  0.00  0.00    +0.000 A 
ATOM     27  C   UNL     1      -1.458  12.374  19.041  0.00  0.00    +0.000 A 
BRANCH  22  29
ATOM     28  O   UNL     1      -3.944  11.561  17.543  0.00  0.00    +0.000 OA
ATOM     29  C   UNL     1      -2.788  11.459  17.169  0.00  0.00    +0.000 C 
BRANCH  29  30
ATOM     30  O   UNL     1      -2.429  11.383  15.872  0.00  0.00    +0.000 OA
ATOM     31  H   UNL     1      -2.708  10.584  15.387  0.00  0.00    +0.000 HD
ENDBRANCH  29  30
ENDBRANCH  22  29
BRANCH  26  32
ATOM     32  C   UNL     1      -0.130  13.354  20.946  0.00  0.00    +0.000 C 
ATOM     33  O   UNL     1       0.745  13.248  21.789  0.00  0.00    +0.000 OA
BRANCH  32  34
ATOM     34  O   UNL     1      -0.899  14.455  20.819  0.00  0.00    +0.000 OA
ATOM     35  H   UNL     1      -1.831  14.377  21.094  0.00  0.00    +0.000 HD
ENDBRANCH  32  34
ENDBRANCH  26  32
ENDBRANCH   1  24
TORSDOF 8
ENDMDL
MODEL 6
REMARK VINA RESULT:      -8.7      5.845      8.474
REMARK  Name = 
REMARK  8 active torsions:
REMARK  status: ('A' for Active; 'I' for Inactive)
REMARK    1  A    between atoms: C_2  and  O_3
REMARK    2  A    between atoms: C_2  and  C_4
REMARK    3  A    between atoms: C_6  and  N_7
REMARK    4  A    between atoms: C_8  and  C_10
REMARK    5  A    between atoms: N_18  and  C_19
REMARK    6  A    between atoms: C_19  and  C_20
REMARK    7  A    between atoms: C_28  and  C_29
REMARK    8  A    between atoms: C_29  and  O_31
REMARK                            x       y       z     vdW  Elec       q    Type
REMARK                         _______ _______ _______ _____ _____    ______ ____
ROOT
ATOM      1  N   UNL     1       1.060   9.048  19.160  0.00  0.00    +0.000 N 
ATOM      2  C   UNL     1       1.946   8.697  18.141  0.00  0.00    +0.000 C 
ATOM      3  O   UNL     1       2.223   9.348  17.142  0.00  0.00    +0.000 OA
ATOM      4  H   UNL     1       1.068   8.489  20.008  0.00  0.00    +0.000 HD
ENDROOT
BRANCH   2   5
ATOM      5  C   UNL     1       2.678   7.429  18.366  0.00  0.00    +0.000 A 
ATOM      6  C   UNL     1       1.944   6.240  18.606  0.00  0.00    +0.000 A 
ATOM      7  C   UNL     1       2.546   4.988  18.412  0.00  0.00    +0.000 A 
ATOM      8  C   UNL     1       3.877   4.992  18.037  0.00  0.00    +0.000 A 
ATOM      9  C   UNL     1       4.622   6.154  18.085  0.00  0.00    +0.000 A 
ATOM     10  C   UNL     1       4.057   7.400  18.198  0.00  0.00    +0.000 A 
ATOM     11  C   UNL     1       5.967   5.842  17.664  0.00  0.00    +0.000 C 
ATOM     12  O   UNL     1       6.941   6.490  17.989  0.00  0.00    +0.000 OA
ATOM     13  N   UNL     1       5.857   4.688  16.954  0.00  0.00    +0.000 N 
ATOM     14  C   UNL     1       4.691   4.033  17.262  0.00  0.00    +0.000 C 
ATOM     15  O   UNL     1       4.309   2.933  16.910  0.00  0.00    +0.000 OA
BRANCH  13  16
ATOM     16  C   UNL     1       6.887   4.302  16.006  0.00  0.00    +0.000 C 
BRANCH  16  17
ATOM     17  C   UNL     1       6.610   4.820  14.563  0.00  0.00    +0.000 C 
ATOM     18  C   UNL     1       6.259   3.685  13.616  0.00  0.00    +0.000 C 
ATOM     19  C   UNL     1       6.650   4.225  12.263  0.00  0.00    +0.000 C 
ATOM     20  C   UNL     1       7.847   5.094  12.579  0.00  0.00    +0.000 C 
ATOM     21  O   UNL     1       7.745   5.477  13.960  0.00  0.00    +0.000 OA
ENDBRANCH  16  17
ENDBRANCH  13  16
ENDBRANCH   2   5
BRANCH   1  24
ATOM     22  C   UNL     1      -0.438  12.356  20.024  0.00  0.00    +0.000 A 
ATOM     23  C   UNL     1       0.387  11.230  20.071  0.00  0.00    +0.000 A 
ATOM     24  C   UNL     1       0.210  10.177  19.172  0.00  0.00    +0.000 A 
ATOM     25  C   UNL     1      -0.835  10.253  18.240  0.00  0.00    +0.000 A 
ATOM     26  C   UNL     1      -1.710  11.357  18.232  0.00  0.00    +0.000 A 
ATOM     27  C   UNL     1      -1.498  12.419  19.115  0.00  0.00    +0.000 A 
BRANCH  22  29
ATOM     28  O   UNL     1      -0.992  14.449  20.966  0.00  0.00    +0.000 OA
ATOM     29  C   UNL     1      -0.245  13.485  20.962  0.00  0.00    +0.000 C 
BRANCH  29  30
ATOM     30  O   UNL     1       0.844  13.382  21.749  0.00  0.00    +0.000 OA
ATOM     31  H   UNL     1       1.189  14.211  22.129  0.00  0.00    +0.000 HD
ENDBRANCH  29  30
ENDBRANCH  22  29
BRANCH  26  32
ATOM     32  C   UNL     1      -2.812  11.373  17.236  0.00  0.00    +0.000 C 
ATOM     33  O   UNL     1      -3.981  11.248  17.560  0.00  0.00    +0.000 OA
BRANCH  32  34
ATOM     34  O   UNL     1      -2.420  11.579  15.961  0.00  0.00    +0.000 OA
ATOM     35  H   UNL     1      -3.018  11.263  15.259  0.00  0.00    +0.000 HD
ENDBRANCH  32  34
ENDBRANCH  26  32
ENDBRANCH   1  24
TORSDOF 8
ENDMDL
MODEL 7
REMARK VINA RESULT:      -8.7      6.188     10.477
REMARK  Name = 
REMARK  8 active torsions:
REMARK  status: ('A' for Active; 'I' for Inactive)
REMARK    1  A    between atoms: C_2  and  O_3
REMARK    2  A    between atoms: C_2  and  C_4
REMARK    3  A    between atoms: C_6  and  N_7
REMARK    4  A    between atoms: C_8  and  C_10
REMARK    5  A    between atoms: N_18  and  C_19
REMARK    6  A    between atoms: C_19  and  C_20
REMARK    7  A    between atoms: C_28  and  C_29
REMARK    8  A    between atoms: C_29  and  O_31
REMARK                            x       y       z     vdW  Elec       q    Type
REMARK                         _______ _______ _______ _____ _____    ______ ____
ROOT
ATOM      1  N   UNL     1       2.386   6.931  18.831  0.00  0.00    +0.000 N 
ATOM      2  C   UNL     1       2.140   8.193  18.290  0.00  0.00    +0.000 C 
ATOM      3  O   UNL     1       2.542   8.635  17.222  0.00  0.00    +0.000 OA
ATOM      4  H   UNL     1       1.842   6.647  19.639  0.00  0.00    +0.000 HD
ENDROOT
BRANCH   2   5
ATOM      5  C   UNL     1       1.218   9.038  19.085  0.00  0.00    +0.000 A 
ATOM      6  C   UNL     1       1.196   8.900  20.495  0.00  0.00    +0.000 A 
ATOM      7  C   UNL     1       0.674   9.927  21.297  0.00  0.00    +0.000 A 
ATOM      8  C   UNL     1       0.148  11.021  20.636  0.00  0.00    +0.000 A 
ATOM      9  C   UNL     1      -0.062  10.990  19.271  0.00  0.00    +0.000 A 
ATOM     10  C   UNL     1       0.498  10.043  18.450  0.00  0.00    +0.000 A 
ATOM     11  C   UNL     1      -0.637  12.254  18.877  0.00  0.00    +0.000 C 
ATOM     12  O   UNL     1      -1.319  12.402  17.883  0.00  0.00    +0.000 OA
ATOM     13  N   UNL     1      -0.313  13.117  19.876  0.00  0.00    +0.000 N 
ATOM     14  C   UNL     1       0.006  12.439  21.025  0.00  0.00    +0.000 C 
ATOM     15  O   UNL     1       0.238  12.874  22.137  0.00  0.00    +0.000 OA
BRANCH  13  16
ATOM     16  C   UNL     1      -0.317  14.551  19.643  0.00  0.00    +0.000 C 
BRANCH  16  17
ATOM     17  C   UNL     1       0.840  15.019  18.711  0.00  0.00    +0.000 C 
ATOM     18  C   UNL     1       2.203  14.718  19.313  0.00  0.00    +0.000 C 
ATOM     19  C   UNL     1       3.104  15.740  18.666  0.00  0.00    +0.000 C 
ATOM     20  C   UNL     1       2.191  16.934  18.495  0.00  0.00    +0.000 C 
ATOM     21  O   UNL     1       0.842  16.441  18.467  0.00  0.00    +0.000 OA
ENDBRANCH  16  17
ENDBRANCH  13  16
ENDBRANCH   2   5
BRANCH   1  24
ATOM     22  C   UNL     1       5.360   5.291  17.280  0.00  0.00    +0.000 A 
ATOM     23  C   UNL     1       4.498   6.284  17.751  0.00  0.00    +0.000 A 
ATOM     24  C   UNL     1       3.259   5.954  18.300  0.00  0.00    +0.000 A 
ATOM     25  C   UNL     1       2.877   4.605  18.342  0.00  0.00    +0.000 A 
ATOM     26  C   UNL     1       3.714   3.606  17.809  0.00  0.00    +0.000 A 
ATOM     27  C   UNL     1       4.967   3.949  17.295  0.00  0.00    +0.000 A 
BRANCH  22  29
ATOM     28  O   UNL     1       7.498   4.771  16.423  0.00  0.00    +0.000 OA
ATOM     29  C   UNL     1       6.683   5.632  16.713  0.00  0.00    +0.000 C 
BRANCH  29  30
ATOM     30  O   UNL     1       6.926   6.953  16.608  0.00  0.00    +0.000 OA
ATOM     31  H   UNL     1       6.158   7.548  16.700  0.00  0.00    +0.000 HD
ENDBRANCH  29  30
ENDBRANCH  22  29
BRANCH  26  32
ATOM     32  C   UNL     1       3.247   2.196  17.862  0.00  0.00    +0.000 C 
ATOM     33  O   UNL     1       3.935   1.302  18.327  0.00  0.00    +0.000 OA
BRANCH  32  34
ATOM     34  O   UNL     1       1.996   1.996  17.399  0.00  0.00    +0.000 OA
ATOM     35  H   UNL     1       1.591   1.128  17.581  0.00  0.00    +0.000 HD
ENDBRANCH  32  34
ENDBRANCH  26  32
ENDBRANCH   1  24
TORSDOF 8
ENDMDL
MODEL 8
REMARK VINA RESULT:      -8.7      7.374     11.085
REMARK  Name = 
REMARK  8 active torsions:
REMARK  status: ('A' for Active; 'I' for Inactive)
REMARK    1  A    between atoms: C_2  and  O_3
REMARK    2  A    between atoms: C_2  and  C_4
REMARK    3  A    between atoms: C_6  and  N_7
REMARK    4  A    between atoms: C_8  and  C_10
REMARK    5  A    between atoms: N_18  and  C_19
REMARK    6  A    between atoms: C_19  and  C_20
REMARK    7  A    between atoms: C_28  and  C_29
REMARK    8  A    between atoms: C_29  and  O_31
REMARK                            x       y       z     vdW  Elec       q    Type
REMARK                         _______ _______ _______ _____ _____    ______ ____
ROOT
ATOM      1  N   UNL     1       1.928   7.742  19.291  0.00  0.00    +0.000 N 
ATOM      2  C   UNL     1       1.428   8.468  20.373  0.00  0.00    +0.000 C 
ATOM      3  O   UNL     1       1.551   8.207  21.562  0.00  0.00    +0.000 OA
ATOM      4  H   UNL     1       1.898   8.177  18.374  0.00  0.00    +0.000 HD
ENDROOT
BRANCH   2   5
ATOM      5  C   UNL     1       0.751   9.734  20.009  0.00  0.00    +0.000 A 
ATOM      6  C   UNL     1       0.009   9.799  18.803  0.00  0.00    +0.000 A 
ATOM      7  C   UNL     1      -0.963  10.796  18.624  0.00  0.00    +0.000 A 
ATOM      8  C   UNL     1      -1.102  11.715  19.648  0.00  0.00    +0.000 A 
ATOM      9  C   UNL     1      -0.177  11.780  20.671  0.00  0.00    +0.000 A 
ATOM     10  C   UNL     1       0.736  10.785  20.919  0.00  0.00    +0.000 A 
ATOM     11  C   UNL     1      -0.572  12.841  21.566  0.00  0.00    +0.000 C 
ATOM     12  O   UNL     1       0.202  13.435  22.289  0.00  0.00    +0.000 OA
ATOM     13  N   UNL     1      -1.897  13.030  21.328  0.00  0.00    +0.000 N 
ATOM     14  C   UNL     1      -2.251  12.524  20.103  0.00  0.00    +0.000 C 
ATOM     15  O   UNL     1      -3.312  12.605  19.513  0.00  0.00    +0.000 OA
BRANCH  13  16
ATOM     16  C   UNL     1      -2.741  13.676  22.318  0.00  0.00    +0.000 C 
BRANCH  16  17
ATOM     17  C   UNL     1      -3.933  12.784  22.777  0.00  0.00    +0.000 C 
ATOM     18  C   UNL     1      -5.216  13.587  22.914  0.00  0.00    +0.000 C 
ATOM     19  C   UNL     1      -6.019  12.795  23.914  0.00  0.00    +0.000 C 
ATOM     20  C   UNL     1      -4.955  12.216  24.820  0.00  0.00    +0.000 C 
ATOM     21  O   UNL     1      -3.731  12.174  24.069  0.00  0.00    +0.000 OA
ENDBRANCH  16  17
ENDBRANCH  13  16
ENDBRANCH   2   5
BRANCH   1  24
ATOM     22  C   UNL     1       4.368   4.969  18.752  0.00  0.00    +0.000 A 
ATOM     23  C   UNL     1       3.725   6.203  18.625  0.00  0.00    +0.000 A 
ATOM     24  C   UNL     1       2.573   6.486  19.358  0.00  0.00    +0.000 A 
ATOM     25  C   UNL     1       2.050   5.497  20.204  0.00  0.00    +0.000 A 
ATOM     26  C   UNL     1       2.657   4.229  20.285  0.00  0.00    +0.000 A 
ATOM     27  C   UNL     1       3.830   3.972  19.571  0.00  0.00    +0.000 A 
BRANCH  22  29
ATOM     28  O   UNL     1       5.701   4.925  16.803  0.00  0.00    +0.000 OA
ATOM     29  C   UNL     1       5.601   4.667  17.991  0.00  0.00    +0.000 C 
BRANCH  29  30
ATOM     30  O   UNL     1       6.558   4.036  18.700  0.00  0.00    +0.000 OA
ATOM     31  H   UNL     1       6.357   3.129  18.996  0.00  0.00    +0.000 HD
ENDBRANCH  29  30
ENDBRANCH  22  29
BRANCH  26  32
ATOM     32  C   UNL     1       2.046   3.213  21.181  0.00  0.00    +0.000 C 
ATOM     33  O   UNL     1       2.688   2.639  22.044  0.00  0.00    +0.000 OA
BRANCH  32  34
ATOM     34  O   UNL     1       0.725   3.013  20.992  0.00  0.00    +0.000 OA
ATOM     35  H   UNL     1       0.383   2.119  21.176  0.00  0.00    +0.000 HD
ENDBRANCH  32  34
ENDBRANCH  26  32
ENDBRANCH   1  24
TORSDOF 8
ENDMDL
MODEL 9
REMARK VINA RESULT:      -8.7      1.118      1.400
REMARK  Name = 
REMARK  8 active torsions:
REMARK  status: ('A' for Active; 'I' for Inactive)
REMARK    1  A    between atoms: C_2  and  O_3
REMARK    2  A    between atoms: C_2  and  C_4
REMARK    3  A    between atoms: C_6  and  N_7
REMARK    4  A    between atoms: C_8  and  C_10
REMARK    5  A    between atoms: N_18  and  C_19
REMARK    6  A    between atoms: C_19  and  C_20
REMARK    7  A    between atoms: C_28  and  C_29
REMARK    8  A    between atoms: C_29  and  O_31
REMARK                            x       y       z     vdW  Elec       q    Type
REMARK                         _______ _______ _______ _____ _____    ______ ____
ROOT
ATOM      1  N   UNL     1       9.081   9.646  18.553  0.00  0.00    +0.000 N 
ATOM      2  C   UNL     1       7.929   9.214  17.895  0.00  0.00    +0.000 C 
ATOM      3  O   UNL     1       7.112   9.904  17.299  0.00  0.00    +0.000 OA
ATOM      4  H   UNL     1       9.751   8.942  18.847  0.00  0.00    +0.000 HD
ENDROOT
BRANCH   2   5
ATOM      5  C   UNL     1       7.749   7.745  17.863  0.00  0.00    +0.000 A 
ATOM      6  C   UNL     1       8.290   6.958  18.911  0.00  0.00    +0.000 A 
ATOM      7  C   UNL     1       7.806   5.661  19.143  0.00  0.00    +0.000 A 
ATOM      8  C   UNL     1       6.837   5.198  18.273  0.00  0.00    +0.000 A 
ATOM      9  C   UNL     1       6.542   5.884  17.110  0.00  0.00    +0.000 A 
ATOM     10  C   UNL     1       6.937   7.179  16.886  0.00  0.00    +0.000 A 
ATOM     11  C   UNL     1       5.519   5.150  16.404  0.00  0.00    +0.000 C 
ATOM     12  O   UNL     1       5.347   5.222  15.204  0.00  0.00    +0.000 OA
ATOM     13  N   UNL     1       4.929   4.369  17.346  0.00  0.00    +0.000 N 
ATOM     14  C   UNL     1       5.747   4.213  18.437  0.00  0.00    +0.000 C 
ATOM     15  O   UNL     1       5.602   3.504  19.415  0.00  0.00    +0.000 OA
BRANCH  13  16
ATOM     16  C   UNL     1       3.594   3.837  17.134  0.00  0.00    +0.000 C 
BRANCH  16  17
ATOM     17  C   UNL     1       2.541   4.424  18.121  0.00  0.00    +0.000 C 
ATOM     18  C   UNL     1       2.897   5.838  18.547  0.00  0.00    +0.000 C 
ATOM     19  C   UNL     1       2.214   5.983  19.884  0.00  0.00    +0.000 C 
ATOM     20  C   UNL     1       2.292   4.585  20.456  0.00  0.00    +0.000 C 
ATOM     21  O   UNL     1       2.427   3.677  19.351  0.00  0.00    +0.000 OA
ENDBRANCH  16  17
ENDBRANCH  13  16
ENDBRANCH   2   5
BRANCH   1  24
ATOM     22  C   UNL     1       9.457  13.034  20.076  0.00  0.00    +0.000 A 
ATOM     23  C   UNL     1       9.020  11.723  19.866  0.00  0.00    +0.000 A 
ATOM     24  C   UNL     1       9.464  10.991  18.766  0.00  0.00    +0.000 A 
ATOM     25  C   UNL     1      10.332  11.603  17.851  0.00  0.00    +0.000 A 
ATOM     26  C   UNL     1      10.724  12.945  18.023  0.00  0.00    +0.000 A 
ATOM     27  C   UNL     1      10.299  13.655  19.149  0.00  0.00    +0.000 A 
BRANCH  22  29
ATOM     28  O   UNL     1       7.884  14.287  21.313  0.00  0.00    +0.000 OA
ATOM     29  C   UNL     1       9.005  13.812  21.251  0.00  0.00    +0.000 C 
BRANCH  29  30
ATOM     30  O   UNL     1       9.947  13.998  22.197  0.00  0.00    +0.000 OA
ATOM     31  H   UNL     1      10.407  13.201  22.520  0.00  0.00    +0.000 HD
ENDBRANCH  29  30
ENDBRANCH  22  29
BRANCH  26  32
ATOM     32  C   UNL     1      11.629  13.549  17.011  0.00  0.00    +0.000 C 
ATOM     33  O   UNL     1      11.748  14.756  16.886  0.00  0.00    +0.000 OA
BRANCH  32  34
ATOM     34  O   UNL     1      12.333  12.660  16.279  0.00  0.00    +0.000 OA
ATOM     35  H   UNL     1      13.203  12.393  16.626  0.00  0.00    +0.000 HD
ENDBRANCH  32  34
ENDBRANCH  26  32
ENDBRANCH   1  24
TORSDOF 8
ENDMDL
