MODEL 1
REMARK VINA RESULT:      -8.4      0.000      0.000
REMARK  Name = 
REMARK  9 active torsions:
REMARK  status: ('A' for Active; 'I' for Inactive)
REMARK    1  A    between atoms: C_1  and  C_2
REMARK    2  A    between atoms: C_2  and  C_3
REMARK    3  A    between atoms: C_3  and  N_4
REMARK    4  A    between atoms: C_9  and  C_10
REMARK    5  A    between atoms: C_13  and  N_14
REMARK    6  A    between atoms: N_17  and  C_18
REMARK    7  A    between atoms: N_29  and  C_30
REMARK    8  A    between atoms: C_30  and  C_31
REMARK    9  A    between atoms: C_31  and  C_32
REMARK                            x       y       z     vdW  Elec       q    Type
REMARK                         _______ _______ _______ _____ _____    ______ ____
ROOT
ATOM      1  C   UNL     1       0.855   8.836  20.875  0.00  0.00    +0.000 A 
ATOM      2  C   UNL     1       0.247   9.812  20.081  0.00  0.00    +0.000 A 
ATOM      3  C   UNL     1      -0.551  10.806  20.660  0.00  0.00    +0.000 A 
ATOM      4  C   UNL     1      -0.773  10.845  22.040  0.00  0.00    +0.000 A 
ATOM      5  C   UNL     1      -0.142   9.896  22.843  0.00  0.00    +0.000 A 
ATOM      6  C   UNL     1       0.660   8.897  22.263  0.00  0.00    +0.000 A 
ENDROOT
BRANCH   1  12
ATOM      7  N   UNL     1       4.471   4.969  18.184  0.00  0.00    +0.000 N 
ATOM      8  C   UNL     1       4.045   6.302  18.043  0.00  0.00    +0.000 A 
ATOM      9  O   UNL     1       4.434   7.057  17.155  0.00  0.00    +0.000 OA
ATOM     10  C   UNL     1       3.089   6.703  19.051  0.00  0.00    +0.000 A 
ATOM     11  N   UNL     1       2.516   7.936  19.258  0.00  0.00    +0.000 NA
ATOM     12  C   UNL     1       1.700   7.789  20.290  0.00  0.00    +0.000 A 
ATOM     13  N   UNL     1       1.762   6.488  20.759  0.00  0.00    +0.000 N 
ATOM     14  C   UNL     1       2.649   5.803  19.979  0.00  0.00    +0.000 A 
ATOM     15  N   UNL     1       3.058   4.488  20.078  0.00  0.00    +0.000 N 
ATOM     16  C   UNL     1       4.017   4.042  19.145  0.00  0.00    +0.000 A 
ATOM     17  O   UNL     1       4.440   2.883  19.170  0.00  0.00    +0.000 OA
ATOM     18  H   UNL     1       1.258   6.132  21.556  0.00  0.00    +0.000 HD
BRANCH   7  19
ATOM     19  C   UNL     1       5.444   4.487  17.207  0.00  0.00    +0.000 C 
BRANCH  19  21
ATOM     20  C   UNL     1       5.658   4.383  14.698  0.00  0.00    +0.000 C 
ATOM     21  C   UNL     1       4.774   4.071  15.896  0.00  0.00    +0.000 C 
ENDBRANCH  19  21
ENDBRANCH   7  19
BRANCH  15  22
ATOM     22  C   UNL     1       2.586   3.552  21.101  0.00  0.00    +0.000 C 
BRANCH  22  23
ATOM     23  C   UNL     1       1.134   3.100  20.912  0.00  0.00    +0.000 C 
ATOM     24  C   UNL     1       0.795   2.673  19.491  0.00  0.00    +0.000 C 
ENDBRANCH  22  23
ENDBRANCH  15  22
ENDBRANCH   1  12
BRANCH   4  25
ATOM     25  N   UNL     1      -1.585  11.831  22.647  0.00  0.00    +0.000 N 
ATOM     26  C   UNL     1      -1.135  13.101  22.993  0.00  0.00    +0.000 C 
ATOM     27  O   UNL     1      -0.047  13.569  22.669  0.00  0.00    +0.000 OA
ATOM     28  N   UNL     1      -2.059  13.780  23.778  0.00  0.00    +0.000 N 
ATOM     29  H   UNL     1      -2.584  11.729  22.570  0.00  0.00    +0.000 HD
ATOM     30  H   UNL     1      -2.582  13.191  24.411  0.00  0.00    +0.000 HD
BRANCH  28  31
ATOM     31  C   UNL     1      -1.834  15.118  24.185  0.00  0.00    +0.000 A 
ATOM     32  C   UNL     1      -2.087  16.195  23.327  0.00  0.00    +0.000 A 
ATOM     33  C   UNL     1      -1.840  17.507  23.738  0.00  0.00    +0.000 A 
ATOM     34  C   UNL     1      -1.325  17.748  25.006  0.00  0.00    +0.000 A 
ATOM     35  C   UNL     1      -1.074  16.678  25.864  0.00  0.00    +0.000 A 
ATOM     36 CL   UNL     1      -0.390  16.975  27.417  0.00  0.00    +0.000 Cl
ATOM     37  C   UNL     1      -1.348  15.365  25.471  0.00  0.00    +0.000 A 
ENDBRANCH  28  31
ENDBRANCH   4  25
TORSDOF 7
ENDMDL
MODEL 2
REMARK VINA RESULT:      -8.3      2.872      3.245
REMARK  Name = 
REMARK  9 active torsions:
REMARK  status: ('A' for Active; 'I' for Inactive)
REMARK    1  A    between atoms: C_1  and  C_2
REMARK    2  A    between atoms: C_2  and  C_3
REMARK    3  A    between atoms: C_3  and  N_4
REMARK    4  A    between atoms: C_9  and  C_10
REMARK    5  A    between atoms: C_13  and  N_14
REMARK    6  A    between atoms: N_17  and  C_18
REMARK    7  A    between atoms: N_29  and  C_30
REMARK    8  A    between atoms: C_30  and  C_31
REMARK    9  A    between atoms: C_31  and  C_32
REMARK                            x       y       z     vdW  Elec       q    Type
REMARK                         _______ _______ _______ _____ _____    ______ ____
ROOT
ATOM      1  C   UNL     1       1.009   9.465  18.500  0.00  0.00    +0.000 A 
ATOM      2  C   UNL     1      -0.181   9.476  17.767  0.00  0.00    +0.000 A 
ATOM      3  C   UNL     1      -1.120  10.499  17.949  0.00  0.00    +0.000 A 
ATOM      4  C   UNL     1      -0.904  11.525  18.872  0.00  0.00    +0.000 A 
ATOM      5  C   UNL     1       0.296  11.540  19.583  0.00  0.00    +0.000 A 
ATOM      6  C   UNL     1       1.240  10.515  19.401  0.00  0.00    +0.000 A 
ENDROOT
BRANCH   1  12
ATOM      7  N   UNL     1       5.259   5.470  17.382  0.00  0.00    +0.000 N 
ATOM      8  C   UNL     1       4.740   6.655  16.828  0.00  0.00    +0.000 A 
ATOM      9  O   UNL     1       5.172   7.180  15.805  0.00  0.00    +0.000 OA
ATOM     10  C   UNL     1       3.633   7.198  17.582  0.00  0.00    +0.000 A 
ATOM     11  N   UNL     1       2.933   8.363  17.374  0.00  0.00    +0.000 NA
ATOM     12  C   UNL     1       2.008   8.406  18.320  0.00  0.00    +0.000 A 
ATOM     13  N   UNL     1       2.122   7.299  19.143  0.00  0.00    +0.000 N 
ATOM     14  C   UNL     1       3.158   6.538  18.680  0.00  0.00    +0.000 A 
ATOM     15  N   UNL     1       3.663   5.358  19.187  0.00  0.00    +0.000 N 
ATOM     16  C   UNL     1       4.768   4.792  18.517  0.00  0.00    +0.000 A 
ATOM     17  O   UNL     1       5.283   3.742  18.911  0.00  0.00    +0.000 OA
ATOM     18  H   UNL     1       1.555   7.115  19.955  0.00  0.00    +0.000 HD
BRANCH   7  19
ATOM     19  C   UNL     1       6.386   4.860  16.682  0.00  0.00    +0.000 C 
BRANCH  19  21
ATOM     20  C   UNL     1       6.351   4.280  14.229  0.00  0.00    +0.000 C 
ATOM     21  C   UNL     1       5.921   3.855  15.625  0.00  0.00    +0.000 C 
ENDBRANCH  19  21
ENDBRANCH   7  19
BRANCH  15  22
ATOM     22  C   UNL     1       3.148   4.685  20.382  0.00  0.00    +0.000 C 
BRANCH  22  23
ATOM     23  C   UNL     1       1.993   3.717  20.105  0.00  0.00    +0.000 C 
ATOM     24  C   UNL     1       1.390   3.093  21.355  0.00  0.00    +0.000 C 
ENDBRANCH  22  23
ENDBRANCH  15  22
ENDBRANCH   1  12
BRANCH   4  25
ATOM     25  N   UNL     1      -1.843  12.562  19.084  0.00  0.00    +0.000 N 
ATOM     26  C   UNL     1      -2.482  12.794  20.297  0.00  0.00    +0.000 C 
ATOM     27  O   UNL     1      -2.193  12.244  21.356  0.00  0.00    +0.000 OA
ATOM     28  N   UNL     1      -3.515  13.715  20.168  0.00  0.00    +0.000 N 
ATOM     29  H   UNL     1      -1.843  13.334  18.436  0.00  0.00    +0.000 HD
ATOM     30  H   UNL     1      -4.008  13.668  19.287  0.00  0.00    +0.000 HD
BRANCH  28  31
ATOM     31  C   UNL     1      -4.255  14.150  21.295  0.00  0.00    +0.000 A 
ATOM     32  C   UNL     1      -3.924  15.329  21.975  0.00  0.00    +0.000 A 
ATOM     33  C   UNL     1      -4.652  15.732  23.096  0.00  0.00    +0.000 A 
ATOM     34  C   UNL     1      -5.707  14.951  23.553  0.00  0.00    +0.000 A 
ATOM     35  C   UNL     1      -6.041  13.779  22.876  0.00  0.00    +0.000 A 
ATOM     36 CL   UNL     1      -7.317  12.787  23.473  0.00  0.00    +0.000 Cl
ATOM     37  C   UNL     1      -5.337  13.385  21.736  0.00  0.00    +0.000 A 
ENDBRANCH  28  31
ENDBRANCH   4  25
TORSDOF 7
ENDMDL
MODEL 3
REMARK VINA RESULT:      -8.3      2.296      2.730
REMARK  Name = 
REMARK  9 active torsions:
REMARK  status: ('A' for Active; 'I' for Inactive)
REMARK    1  A    between atoms: C_1  and  C_2
REMARK    2  A    between atoms: C_2  and  C_3
REMARK    3  A    between atoms: C_3  and  N_4
REMARK    4  A    between atoms: C_9  and  C_10
REMARK    5  A    between atoms: C_13  and  N_14
REMARK    6  A    between atoms: N_17  and  C_18
REMARK    7  A    between atoms: N_29  and  C_30
REMARK    8  A    between atoms: C_30  and  C_31
REMARK    9  A    between atoms: C_31  and  C_32
REMARK                            x       y       z     vdW  Elec       q    Type
REMARK                         _______ _______ _______ _____ _____    ______ ____
ROOT
ATOM      1  C   UNL     1       0.824   8.944  21.111  0.00  0.00    +0.000 A 
ATOM      2  C   UNL     1       0.118   8.611  22.271  0.00  0.00    +0.000 A 
ATOM      3  C   UNL     1      -0.609   9.585  22.966  0.00  0.00    +0.000 A 
ATOM      4  C   UNL     1      -0.641  10.913  22.532  0.00  0.00    +0.000 A 
ATOM      5  C   UNL     1       0.032  11.246  21.357  0.00  0.00    +0.000 A 
ATOM      6  C   UNL     1       0.762  10.269  20.657  0.00  0.00    +0.000 A 
ENDROOT
BRANCH   1  12
ATOM      7  N   UNL     1       4.062   5.258  17.764  0.00  0.00    +0.000 N 
ATOM      8  C   UNL     1       3.611   6.590  17.749  0.00  0.00    +0.000 A 
ATOM      9  O   UNL     1       3.871   7.392  16.854  0.00  0.00    +0.000 OA
ATOM     10  C   UNL     1       2.800   6.930  18.896  0.00  0.00    +0.000 A 
ATOM     11  N   UNL     1       2.253   8.144  19.240  0.00  0.00    +0.000 NA
ATOM     12  C   UNL     1       1.587   7.937  20.365  0.00  0.00    +0.000 A 
ATOM     13  N   UNL     1       1.720   6.616  20.757  0.00  0.00    +0.000 N 
ATOM     14  C   UNL     1       2.497   5.981  19.830  0.00  0.00    +0.000 A 
ATOM     15  N   UNL     1       2.924   4.668  19.808  0.00  0.00    +0.000 N 
ATOM     16  C   UNL     1       3.749   4.280  18.732  0.00  0.00    +0.000 A 
ATOM     17  O   UNL     1       4.179   3.127  18.642  0.00  0.00    +0.000 OA
ATOM     18  H   UNL     1       1.333   6.216  21.597  0.00  0.00    +0.000 HD
BRANCH   7  19
ATOM     19  C   UNL     1       4.895   4.836  16.641  0.00  0.00    +0.000 C 
BRANCH  19  21
ATOM     20  C   UNL     1       7.177   4.633  17.691  0.00  0.00    +0.000 C 
ATOM     21  C   UNL     1       6.305   5.424  16.728  0.00  0.00    +0.000 C 
ENDBRANCH  19  21
ENDBRANCH   7  19
BRANCH  15  22
ATOM     22  C   UNL     1       2.602   3.678  20.838  0.00  0.00    +0.000 C 
BRANCH  22  23
ATOM     23  C   UNL     1       1.153   3.182  20.797  0.00  0.00    +0.000 C 
ATOM     24  C   UNL     1       0.699   2.698  19.428  0.00  0.00    +0.000 C 
ENDBRANCH  22  23
ENDBRANCH  15  22
ENDBRANCH   1  12
BRANCH   4  25
ATOM     25  N   UNL     1      -1.357  11.918  23.223  0.00  0.00    +0.000 N 
ATOM     26  C   UNL     1      -2.514  12.518  22.739  0.00  0.00    +0.000 C 
ATOM     27  O   UNL     1      -3.136  12.140  21.749  0.00  0.00    +0.000 OA
ATOM     28  N   UNL     1      -2.880  13.624  23.498  0.00  0.00    +0.000 N 
ATOM     29  H   UNL     1      -1.203  12.006  24.215  0.00  0.00    +0.000 HD
ATOM     30  H   UNL     1      -2.101  14.150  23.869  0.00  0.00    +0.000 HD
BRANCH  28  31
ATOM     31  C   UNL     1      -4.068  14.343  23.223  0.00  0.00    +0.000 A 
ATOM     32  C   UNL     1      -4.058  15.493  22.423  0.00  0.00    +0.000 A 
ATOM     33  C   UNL     1      -5.237  16.201  22.179  0.00  0.00    +0.000 A 
ATOM     34  C   UNL     1      -6.431  15.772  22.747  0.00  0.00    +0.000 A 
ATOM     35  C   UNL     1      -6.445  14.626  23.541  0.00  0.00    +0.000 A 
ATOM     36 CL   UNL     1      -7.917  14.124  24.282  0.00  0.00    +0.000 Cl
ATOM     37  C   UNL     1      -5.275  13.894  23.764  0.00  0.00    +0.000 A 
ENDBRANCH  28  31
ENDBRANCH   4  25
TORSDOF 7
ENDMDL
MODEL 4
REMARK VINA RESULT:      -8.3      2.581      3.013
REMARK  Name = 
REMARK  9 active torsions:
REMARK  status: ('A' for Active; 'I' for Inactive)
REMARK    1  A    between atoms: C_1  and  C_2
REMARK    2  A    between atoms: C_2  and  C_3
REMARK    3  A    between atoms: C_3  and  N_4
REMARK    4  A    between atoms: C_9  and  C_10
REMARK    5  A    between atoms: C_13  and  N_14
REMARK    6  A    between atoms: N_17  and  C_18
REMARK    7  A    between atoms: N_29  and  C_30
REMARK    8  A    between atoms: C_30  and  C_31
REMARK    9  A    between atoms: C_31  and  C_32
REMARK                            x       y       z     vdW  Elec       q    Type
REMARK                         _______ _______ _______ _____ _____    ______ ____
ROOT
ATOM      1  C   UNL     1       0.942   9.665  18.657  0.00  0.00    +0.000 A 
ATOM      2  C   UNL     1      -0.256   9.732  17.940  0.00  0.00    +0.000 A 
ATOM      3  C   UNL     1      -1.147  10.794  18.139  0.00  0.00    +0.000 A 
ATOM      4  C   UNL     1      -0.874  11.805  19.065  0.00  0.00    +0.000 A 
ATOM      5  C   UNL     1       0.335  11.764  19.760  0.00  0.00    +0.000 A 
ATOM      6  C   UNL     1       1.231  10.699  19.560  0.00  0.00    +0.000 A 
ENDROOT
BRANCH   1  12
ATOM      7  N   UNL     1       5.002   5.496  17.469  0.00  0.00    +0.000 N 
ATOM      8  C   UNL     1       4.536   6.711  16.934  0.00  0.00    +0.000 A 
ATOM      9  O   UNL     1       4.989   7.231  15.918  0.00  0.00    +0.000 OA
ATOM     10  C   UNL     1       3.457   7.293  17.700  0.00  0.00    +0.000 A 
ATOM     11  N   UNL     1       2.811   8.493  17.510  0.00  0.00    +0.000 NA
ATOM     12  C   UNL     1       1.891   8.564  18.460  0.00  0.00    +0.000 A 
ATOM     13  N   UNL     1       1.957   7.441  19.266  0.00  0.00    +0.000 N 
ATOM     14  C   UNL     1       2.955   6.640  18.789  0.00  0.00    +0.000 A 
ATOM     15  N   UNL     1       3.407   5.431  19.278  0.00  0.00    +0.000 N 
ATOM     16  C   UNL     1       4.483   4.825  18.597  0.00  0.00    +0.000 A 
ATOM     17  O   UNL     1       4.951   3.747  18.974  0.00  0.00    +0.000 OA
ATOM     18  H   UNL     1       1.383   7.272  20.077  0.00  0.00    +0.000 HD
BRANCH   7  19
ATOM     19  C   UNL     1       6.098   4.845  16.757  0.00  0.00    +0.000 C 
BRANCH  19  21
ATOM     20  C   UNL     1       6.070   4.222  14.315  0.00  0.00    +0.000 C 
ATOM     21  C   UNL     1       5.586   3.855  15.709  0.00  0.00    +0.000 C 
ENDBRANCH  19  21
ENDBRANCH   7  19
BRANCH  15  22
ATOM     22  C   UNL     1       2.864   4.765  20.464  0.00  0.00    +0.000 C 
BRANCH  22  23
ATOM     23  C   UNL     1       1.632   3.899  20.186  0.00  0.00    +0.000 C 
ATOM     24  C   UNL     1       1.323   2.886  21.278  0.00  0.00    +0.000 C 
ENDBRANCH  22  23
ENDBRANCH  15  22
ENDBRANCH   1  12
BRANCH   4  25
ATOM     25  N   UNL     1      -1.763  12.881  19.293  0.00  0.00    +0.000 N 
ATOM     26  C   UNL     1      -2.631  12.953  20.377  0.00  0.00    +0.000 C 
ATOM     27  O   UNL     1      -2.616  12.187  21.336  0.00  0.00    +0.000 OA
ATOM     28  N   UNL     1      -3.548  13.988  20.237  0.00  0.00    +0.000 N 
ATOM     29  H   UNL     1      -1.570  13.755  18.831  0.00  0.00    +0.000 HD
ATOM     30  H   UNL     1      -3.841  14.160  19.285  0.00  0.00    +0.000 HD
BRANCH  28  31
ATOM     31  C   UNL     1      -4.482  14.285  21.259  0.00  0.00    +0.000 A 
ATOM     32  C   UNL     1      -5.809  13.844  21.188  0.00  0.00    +0.000 A 
ATOM     33  C   UNL     1      -6.721  14.164  22.195  0.00  0.00    +0.000 A 
ATOM     34  C   UNL     1      -6.316  14.941  23.274  0.00  0.00    +0.000 A 
ATOM     35  C   UNL     1      -4.994  15.381  23.349  0.00  0.00    +0.000 A 
ATOM     36 CL   UNL     1      -4.507  16.384  24.661  0.00  0.00    +0.000 Cl
ATOM     37  C   UNL     1      -4.068  15.038  22.361  0.00  0.00    +0.000 A 
ENDBRANCH  28  31
ENDBRANCH   4  25
TORSDOF 7
ENDMDL
MODEL 5
REMARK VINA RESULT:      -8.3      1.063      1.466
REMARK  Name = 
REMARK  9 active torsions:
REMARK  status: ('A' for Active; 'I' for Inactive)
REMARK    1  A    between atoms: C_1  and  C_2
REMARK    2  A    between atoms: C_2  and  C_3
REMARK    3  A    between atoms: C_3  and  N_4
REMARK    4  A    between atoms: C_9  and  C_10
REMARK    5  A    between atoms: C_13  and  N_14
REMARK    6  A    between atoms: N_17  and  C_18
REMARK    7  A    between atoms: N_29  and  C_30
REMARK    8  A    between atoms: C_30  and  C_31
REMARK    9  A    between atoms: C_31  and  C_32
REMARK                            x       y       z     vdW  Elec       q    Type
REMARK                         _______ _______ _______ _____ _____    ______ ____
ROOT
ATOM      1  C   UNL     1       0.769   8.870  20.924  0.00  0.00    +0.000 A 
ATOM      2  C   UNL     1       0.218   9.938  20.211  0.00  0.00    +0.000 A 
ATOM      3  C   UNL     1      -0.571  10.897  20.860  0.00  0.00    +0.000 A 
ATOM      4  C   UNL     1      -0.840  10.808  22.228  0.00  0.00    +0.000 A 
ATOM      5  C   UNL     1      -0.265   9.764  22.954  0.00  0.00    +0.000 A 
ATOM      6  C   UNL     1       0.527   8.801  22.304  0.00  0.00    +0.000 A 
ENDROOT
BRANCH   1  12
ATOM      7  N   UNL     1       4.298   5.155  17.921  0.00  0.00    +0.000 N 
ATOM      8  C   UNL     1       3.807   6.470  17.822  0.00  0.00    +0.000 A 
ATOM      9  O   UNL     1       4.088   7.240  16.906  0.00  0.00    +0.000 OA
ATOM     10  C   UNL     1       2.925   6.831  18.909  0.00  0.00    +0.000 A 
ATOM     11  N   UNL     1       2.322   8.040  19.168  0.00  0.00    +0.000 NA
ATOM     12  C   UNL     1       1.603   7.859  20.265  0.00  0.00    +0.000 A 
ATOM     13  N   UNL     1       1.758   6.562  20.723  0.00  0.00    +0.000 N 
ATOM     14  C   UNL     1       2.603   5.914  19.868  0.00  0.00    +0.000 A 
ATOM     15  N   UNL     1       3.072   4.617  19.928  0.00  0.00    +0.000 N 
ATOM     16  C   UNL     1       3.966   4.211  18.915  0.00  0.00    +0.000 A 
ATOM     17  O   UNL     1       4.437   3.070  18.900  0.00  0.00    +0.000 OA
ATOM     18  H   UNL     1       1.339   6.186  21.559  0.00  0.00    +0.000 HD
BRANCH   7  19
ATOM     19  C   UNL     1       5.203   4.714  16.863  0.00  0.00    +0.000 C 
BRANCH  19  21
ATOM     20  C   UNL     1       7.589   4.588  17.666  0.00  0.00    +0.000 C 
ATOM     21  C   UNL     1       6.554   5.430  16.936  0.00  0.00    +0.000 C 
ENDBRANCH  19  21
ENDBRANCH   7  19
BRANCH  15  22
ATOM     22  C   UNL     1       2.728   3.662  20.983  0.00  0.00    +0.000 C 
BRANCH  22  23
ATOM     23  C   UNL     1       1.270   3.192  20.950  0.00  0.00    +0.000 C 
ATOM     24  C   UNL     1       0.780   2.784  19.569  0.00  0.00    +0.000 C 
ENDBRANCH  22  23
ENDBRANCH  15  22
ENDBRANCH   1  12
BRANCH   4  25
ATOM     25  N   UNL     1      -1.643  11.755  22.904  0.00  0.00    +0.000 N 
ATOM     26  C   UNL     1      -1.237  13.054  23.190  0.00  0.00    +0.000 C 
ATOM     27  O   UNL     1      -0.216  13.578  22.754  0.00  0.00    +0.000 OA
ATOM     28  N   UNL     1      -2.116  13.692  24.057  0.00  0.00    +0.000 N 
ATOM     29  H   UNL     1      -2.638  11.594  22.929  0.00  0.00    +0.000 HD
ATOM     30  H   UNL     1      -2.538  13.084  24.745  0.00  0.00    +0.000 HD
BRANCH  28  31
ATOM     31  C   UNL     1      -1.931  15.046  24.426  0.00  0.00    +0.000 A 
ATOM     32  C   UNL     1      -1.327  15.398  25.639  0.00  0.00    +0.000 A 
ATOM     33  C   UNL     1      -1.171  16.739  25.995  0.00  0.00    +0.000 A 
ATOM     34  C   UNL     1      -1.632  17.738  25.146  0.00  0.00    +0.000 A 
ATOM     35  C   UNL     1      -2.231  17.392  23.935  0.00  0.00    +0.000 A 
ATOM     36 CL   UNL     1      -2.846  18.629  22.907  0.00  0.00    +0.000 Cl
ATOM     37  C   UNL     1      -2.363  16.053  23.558  0.00  0.00    +0.000 A 
ENDBRANCH  28  31
ENDBRANCH   4  25
TORSDOF 7
ENDMDL
MODEL 6
REMARK VINA RESULT:      -8.1      2.260      2.731
REMARK  Name = 
REMARK  9 active torsions:
REMARK  status: ('A' for Active; 'I' for Inactive)
REMARK    1  A    between atoms: C_1  and  C_2
REMARK    2  A    between atoms: C_2  and  C_3
REMARK    3  A    between atoms: C_3  and  N_4
REMARK    4  A    between atoms: C_9  and  C_10
REMARK    5  A    between atoms: C_13  and  N_14
REMARK    6  A    between atoms: N_17  and  C_18
REMARK    7  A    between atoms: N_29  and  C_30
REMARK    8  A    between atoms: C_30  and  C_31
REMARK    9  A    between atoms: C_31  and  C_32
REMARK                            x       y       z     vdW  Elec       q    Type
REMARK                         _______ _______ _______ _____ _____    ______ ____
ROOT
ATOM      1  C   UNL     1       0.897   8.990  21.063  0.00  0.00    +0.000 A 
ATOM      2  C   UNL     1       0.207   8.726  22.249  0.00  0.00    +0.000 A 
ATOM      3  C   UNL     1      -0.489   9.746  22.910  0.00  0.00    +0.000 A 
ATOM      4  C   UNL     1      -0.505  11.052  22.414  0.00  0.00    +0.000 A 
ATOM      5  C   UNL     1       0.152  11.317  21.212  0.00  0.00    +0.000 A 
ATOM      6  C   UNL     1       0.852  10.294  20.547  0.00  0.00    +0.000 A 
ENDROOT
BRANCH   1  12
ATOM      7  N   UNL     1       4.003   5.088  17.837  0.00  0.00    +0.000 N 
ATOM      8  C   UNL     1       3.573   6.426  17.764  0.00  0.00    +0.000 A 
ATOM      9  O   UNL     1       3.824   7.177  16.825  0.00  0.00    +0.000 OA
ATOM     10  C   UNL     1       2.793   6.836  18.910  0.00  0.00    +0.000 A 
ATOM     11  N   UNL     1       2.272   8.075  19.204  0.00  0.00    +0.000 NA
ATOM     12  C   UNL     1       1.628   7.935  20.352  0.00  0.00    +0.000 A 
ATOM     13  N   UNL     1       1.750   6.634  20.807  0.00  0.00    +0.000 N 
ATOM     14  C   UNL     1       2.496   5.940  19.897  0.00  0.00    +0.000 A 
ATOM     15  N   UNL     1       2.902   4.621  19.932  0.00  0.00    +0.000 N 
ATOM     16  C   UNL     1       3.697   4.166  18.859  0.00  0.00    +0.000 A 
ATOM     17  O   UNL     1       4.106   3.002  18.818  0.00  0.00    +0.000 OA
ATOM     18  H   UNL     1       1.375   6.282  21.674  0.00  0.00    +0.000 HD
BRANCH   7  19
ATOM     19  C   UNL     1       4.804   4.597  16.719  0.00  0.00    +0.000 C 
BRANCH  19  21
ATOM     20  C   UNL     1       7.054   4.830  15.608  0.00  0.00    +0.000 C 
ATOM     21  C   UNL     1       6.295   4.873  16.925  0.00  0.00    +0.000 C 
ENDBRANCH  19  21
ENDBRANCH   7  19
BRANCH  15  22
ATOM     22  C   UNL     1       2.588   3.689  21.017  0.00  0.00    +0.000 C 
BRANCH  22  23
ATOM     23  C   UNL     1       1.149   3.161  20.990  0.00  0.00    +0.000 C 
ATOM     24  C   UNL     1       0.693   2.666  19.626  0.00  0.00    +0.000 C 
ENDBRANCH  22  23
ENDBRANCH  15  22
ENDBRANCH   1  12
BRANCH   4  25
ATOM     25  N   UNL     1      -1.190  12.102  23.069  0.00  0.00    +0.000 N 
ATOM     26  C   UNL     1      -2.406  12.621  22.639  0.00  0.00    +0.000 C 
ATOM     27  O   UNL     1      -3.102  12.131  21.754  0.00  0.00    +0.000 OA
ATOM     28  N   UNL     1      -2.739  13.787  23.319  0.00  0.00    +0.000 N 
ATOM     29  H   UNL     1      -0.949  12.292  24.029  0.00  0.00    +0.000 HD
ATOM     30  H   UNL     1      -1.949  14.368  23.562  0.00  0.00    +0.000 HD
BRANCH  28  31
ATOM     31  C   UNL     1      -3.972  14.445  23.088  0.00  0.00    +0.000 A 
ATOM     32  C   UNL     1      -5.133  14.087  23.784  0.00  0.00    +0.000 A 
ATOM     33  C   UNL     1      -6.345  14.733  23.529  0.00  0.00    +0.000 A 
ATOM     34  C   UNL     1      -6.405  15.732  22.564  0.00  0.00    +0.000 A 
ATOM     35  C   UNL     1      -5.251  16.092  21.871  0.00  0.00    +0.000 A 
ATOM     36 CL   UNL     1      -5.339  17.296  20.642  0.00  0.00    +0.000 Cl
ATOM     37  C   UNL     1      -4.029  15.472  22.143  0.00  0.00    +0.000 A 
ENDBRANCH  28  31
ENDBRANCH   4  25
TORSDOF 7
ENDMDL
MODEL 7
REMARK VINA RESULT:      -7.9      2.608      3.175
REMARK  Name = 
REMARK  9 active torsions:
REMARK  status: ('A' for Active; 'I' for Inactive)
REMARK    1  A    between atoms: C_1  and  C_2
REMARK    2  A    between atoms: C_2  and  C_3
REMARK    3  A    between atoms: C_3  and  N_4
REMARK    4  A    between atoms: C_9  and  C_10
REMARK    5  A    between atoms: C_13  and  N_14
REMARK    6  A    between atoms: N_17  and  C_18
REMARK    7  A    between atoms: N_29  and  C_30
REMARK    8  A    between atoms: C_30  and  C_31
REMARK    9  A    between atoms: C_31  and  C_32
REMARK                            x       y       z     vdW  Elec       q    Type
REMARK                         _______ _______ _______ _____ _____    ______ ____
ROOT
ATOM      1  C   UNL     1       0.777  10.015  18.923  0.00  0.00    +0.000 A 
ATOM      2  C   UNL     1       1.146  11.047  19.791  0.00  0.00    +0.000 A 
ATOM      3  C   UNL     1       0.290  12.134  20.009  0.00  0.00    +0.000 A 
ATOM      4  C   UNL     1      -0.945  12.225  19.361  0.00  0.00    +0.000 A 
ATOM      5  C   UNL     1      -1.335  11.183  18.521  0.00  0.00    +0.000 A 
ATOM      6  C   UNL     1      -0.478  10.091  18.301  0.00  0.00    +0.000 A 
ENDROOT
BRANCH   1  12
ATOM      7  N   UNL     1       4.541   5.629  17.555  0.00  0.00    +0.000 N 
ATOM      8  C   UNL     1       4.104   6.859  17.029  0.00  0.00    +0.000 A 
ATOM      9  O   UNL     1       4.518   7.342  15.978  0.00  0.00    +0.000 OA
ATOM     10  C   UNL     1       3.106   7.506  17.851  0.00  0.00    +0.000 A 
ATOM     11  N   UNL     1       2.510   8.734  17.682  0.00  0.00    +0.000 NA
ATOM     12  C   UNL     1       1.656   8.865  18.685  0.00  0.00    +0.000 A 
ATOM     13  N   UNL     1       1.716   7.751  19.504  0.00  0.00    +0.000 N 
ATOM     14  C   UNL     1       2.641   6.894  18.979  0.00  0.00    +0.000 A 
ATOM     15  N   UNL     1       3.061   5.669  19.459  0.00  0.00    +0.000 N 
ATOM     16  C   UNL     1       4.061   5.001  18.723  0.00  0.00    +0.000 A 
ATOM     17  O   UNL     1       4.497   3.905  19.087  0.00  0.00    +0.000 OA
ATOM     18  H   UNL     1       1.186   7.622  20.352  0.00  0.00    +0.000 HD
BRANCH   7  19
ATOM     19  C   UNL     1       5.557   4.914  16.787  0.00  0.00    +0.000 C 
BRANCH  19  21
ATOM     20  C   UNL     1       7.780   4.634  17.940  0.00  0.00    +0.000 C 
ATOM     21  C   UNL     1       6.952   5.502  17.005  0.00  0.00    +0.000 C 
ENDBRANCH  19  21
ENDBRANCH   7  19
BRANCH  15  22
ATOM     22  C   UNL     1       2.561   5.048  20.687  0.00  0.00    +0.000 C 
BRANCH  22  23
ATOM     23  C   UNL     1       1.233   4.304  20.515  0.00  0.00    +0.000 C 
ATOM     24  C   UNL     1       1.279   2.843  20.939  0.00  0.00    +0.000 C 
ENDBRANCH  22  23
ENDBRANCH  15  22
ENDBRANCH   1  12
BRANCH   4  25
ATOM     25  N   UNL     1      -1.821  13.318  19.555  0.00  0.00    +0.000 N 
ATOM     26  C   UNL     1      -2.782  13.373  20.559  0.00  0.00    +0.000 C 
ATOM     27  O   UNL     1      -2.875  12.569  21.483  0.00  0.00    +0.000 OA
ATOM     28  N   UNL     1      -3.654  14.441  20.382  0.00  0.00    +0.000 N 
ATOM     29  H   UNL     1      -1.564  14.204  19.149  0.00  0.00    +0.000 HD
ATOM     30  H   UNL     1      -3.855  14.660  19.416  0.00  0.00    +0.000 HD
BRANCH  28  31
ATOM     31  C   UNL     1      -4.668  14.726  21.329  0.00  0.00    +0.000 A 
ATOM     32  C   UNL     1      -5.991  14.311  21.130  0.00  0.00    +0.000 A 
ATOM     33  C   UNL     1      -6.982  14.618  22.065  0.00  0.00    +0.000 A 
ATOM     34  C   UNL     1      -6.659  15.356  23.197  0.00  0.00    +0.000 A 
ATOM     35  C   UNL     1      -5.342  15.769  23.400  0.00  0.00    +0.000 A 
ATOM     36 CL   UNL     1      -4.954  16.725  24.779  0.00  0.00    +0.000 Cl
ATOM     37  C   UNL     1      -4.339  15.438  22.485  0.00  0.00    +0.000 A 
ENDBRANCH  28  31
ENDBRANCH   4  25
TORSDOF 7
ENDMDL
MODEL 8
REMARK VINA RESULT:      -7.9      2.428      2.654
REMARK  Name = 
REMARK  9 active torsions:
REMARK  status: ('A' for Active; 'I' for Inactive)
REMARK    1  A    between atoms: C_1  and  C_2
REMARK    2  A    between atoms: C_2  and  C_3
REMARK    3  A    between atoms: C_3  and  N_4
REMARK    4  A    between atoms: C_9  and  C_10
REMARK    5  A    between atoms: C_13  and  N_14
REMARK    6  A    between atoms: N_17  and  C_18
REMARK    7  A    between atoms: N_29  and  C_30
REMARK    8  A    between atoms: C_30  and  C_31
REMARK    9  A    between atoms: C_31  and  C_32
REMARK                            x       y       z     vdW  Elec       q    Type
REMARK                         _______ _______ _______ _____ _____    ______ ____
ROOT
ATOM      1  C   UNL     1       1.315   9.806  18.452  0.00  0.00    +0.000 A 
ATOM      2  C   UNL     1      -0.074   9.692  18.565  0.00  0.00    +0.000 A 
ATOM      3  C   UNL     1      -0.873  10.832  18.715  0.00  0.00    +0.000 A 
ATOM      4  C   UNL     1      -0.309  12.110  18.769  0.00  0.00    +0.000 A 
ATOM      5  C   UNL     1       1.072  12.236  18.623  0.00  0.00    +0.000 A 
ATOM      6  C   UNL     1       1.876  11.092  18.471  0.00  0.00    +0.000 A 
ENDROOT
BRANCH   1  12
ATOM      7  N   UNL     1       5.025   5.288  17.408  0.00  0.00    +0.000 N 
ATOM      8  C   UNL     1       4.685   6.535  16.854  0.00  0.00    +0.000 A 
ATOM      9  O   UNL     1       5.213   7.006  15.849  0.00  0.00    +0.000 OA
ATOM     10  C   UNL     1       3.639   7.216  17.583  0.00  0.00    +0.000 A 
ATOM     11  N   UNL     1       3.107   8.466  17.368  0.00  0.00    +0.000 NA
ATOM     12  C   UNL     1       2.169   8.625  18.289  0.00  0.00    +0.000 A 
ATOM     13  N   UNL     1       2.110   7.506  19.101  0.00  0.00    +0.000 N 
ATOM     14  C   UNL     1       3.049   6.617  18.659  0.00  0.00    +0.000 A 
ATOM     15  N   UNL     1       3.376   5.376  19.167  0.00  0.00    +0.000 N 
ATOM     16  C   UNL     1       4.415   4.673  18.522  0.00  0.00    +0.000 A 
ATOM     17  O   UNL     1       4.774   3.561  18.918  0.00  0.00    +0.000 OA
ATOM     18  H   UNL     1       1.499   7.394  19.895  0.00  0.00    +0.000 HD
BRANCH   7  19
ATOM     19  C   UNL     1       6.081   4.538  16.733  0.00  0.00    +0.000 C 
BRANCH  19  21
ATOM     20  C   UNL     1       6.222   4.010  14.273  0.00  0.00    +0.000 C 
ATOM     21  C   UNL     1       5.529   3.687  15.588  0.00  0.00    +0.000 C 
ENDBRANCH  19  21
ENDBRANCH   7  19
BRANCH  15  22
ATOM     22  C   UNL     1       2.741   4.769  20.339  0.00  0.00    +0.000 C 
BRANCH  22  23
ATOM     23  C   UNL     1       1.404   4.084  20.040  0.00  0.00    +0.000 C 
ATOM     24  C   UNL     1       1.462   2.564  20.073  0.00  0.00    +0.000 C 
ENDBRANCH  22  23
ENDBRANCH  15  22
ENDBRANCH   1  12
BRANCH   4  25
ATOM     25  N   UNL     1      -1.093  13.276  18.932  0.00  0.00    +0.000 N 
ATOM     26  C   UNL     1      -1.307  13.901  20.156  0.00  0.00    +0.000 C 
ATOM     27  O   UNL     1      -0.720  13.619  21.197  0.00  0.00    +0.000 OA
ATOM     28  N   UNL     1      -2.293  14.877  20.072  0.00  0.00    +0.000 N 
ATOM     29  H   UNL     1      -1.268  13.842  18.117  0.00  0.00    +0.000 HD
ATOM     30  H   UNL     1      -3.040  14.661  19.426  0.00  0.00    +0.000 HD
BRANCH  28  31
ATOM     31  C   UNL     1      -2.623  15.686  21.186  0.00  0.00    +0.000 A 
ATOM     32  C   UNL     1      -1.889  16.839  21.495  0.00  0.00    +0.000 A 
ATOM     33  C   UNL     1      -2.216  17.614  22.610  0.00  0.00    +0.000 A 
ATOM     34  C   UNL     1      -3.270  17.232  23.432  0.00  0.00    +0.000 A 
ATOM     35  C   UNL     1      -4.004  16.087  23.125  0.00  0.00    +0.000 A 
ATOM     36 CL   UNL     1      -5.279  15.589  24.172  0.00  0.00    +0.000 Cl
ATOM     37  C   UNL     1      -3.703  15.324  21.994  0.00  0.00    +0.000 A 
ENDBRANCH  28  31
ENDBRANCH   4  25
TORSDOF 7
ENDMDL
MODEL 9
REMARK VINA RESULT:      -7.9      1.466      1.951
REMARK  Name = 
REMARK  9 active torsions:
REMARK  status: ('A' for Active; 'I' for Inactive)
REMARK    1  A    between atoms: C_1  and  C_2
REMARK    2  A    between atoms: C_2  and  C_3
REMARK    3  A    between atoms: C_3  and  N_4
REMARK    4  A    between atoms: C_9  and  C_10
REMARK    5  A    between atoms: C_13  and  N_14
REMARK    6  A    between atoms: N_17  and  C_18
REMARK    7  A    between atoms: N_29  and  C_30
REMARK    8  A    between atoms: C_30  and  C_31
REMARK    9  A    between atoms: C_31  and  C_32
REMARK                            x       y       z     vdW  Elec       q    Type
REMARK                         _______ _______ _______ _____ _____    ______ ____
ROOT
ATOM      1  C   UNL     1       1.502   8.770  19.137  0.00  0.00    +0.000 A 
ATOM      2  C   UNL     1       1.090   8.795  20.472  0.00  0.00    +0.000 A 
ATOM      3  C   UNL     1       0.309   9.852  20.957  0.00  0.00    +0.000 A 
ATOM      4  C   UNL     1      -0.069  10.913  20.129  0.00  0.00    +0.000 A 
ATOM      5  C   UNL     1       0.308  10.878  18.787  0.00  0.00    +0.000 A 
ATOM      6  C   UNL     1       1.092   9.817  18.298  0.00  0.00    +0.000 A 
ENDROOT
BRANCH   1  12
ATOM      7  N   UNL     1       5.105   4.681  16.776  0.00  0.00    +0.000 N 
ATOM      8  C   UNL     1       4.898   6.072  16.729  0.00  0.00    +0.000 A 
ATOM      9  O   UNL     1       5.575   6.843  16.054  0.00  0.00    +0.000 OA
ATOM     10  C   UNL     1       3.798   6.512  17.556  0.00  0.00    +0.000 A 
ATOM     11  N   UNL     1       3.358   7.792  17.802  0.00  0.00    +0.000 NA
ATOM     12  C   UNL     1       2.315   7.670  18.608  0.00  0.00    +0.000 A 
ATOM     13  N   UNL     1       2.098   6.334  18.900  0.00  0.00    +0.000 N 
ATOM     14  C   UNL     1       3.044   5.602  18.240  0.00  0.00    +0.000 A 
ATOM     15  N   UNL     1       3.245   4.236  18.246  0.00  0.00    +0.000 N 
ATOM     16  C   UNL     1       4.326   3.744  17.486  0.00  0.00    +0.000 A 
ATOM     17  O   UNL     1       4.578   2.536  17.444  0.00  0.00    +0.000 OA
ATOM     18  H   UNL     1       1.384   5.981  19.517  0.00  0.00    +0.000 HD
BRANCH   7  19
ATOM     19  C   UNL     1       6.205   4.156  15.972  0.00  0.00    +0.000 C 
BRANCH  19  21
ATOM     20  C   UNL     1       6.887   4.473  13.566  0.00  0.00    +0.000 C 
ATOM     21  C   UNL     1       5.800   3.975  14.507  0.00  0.00    +0.000 C 
ENDBRANCH  19  21
ENDBRANCH   7  19
BRANCH  15  22
ATOM     22  C   UNL     1       2.434   3.285  19.010  0.00  0.00    +0.000 C 
BRANCH  22  23
ATOM     23  C   UNL     1       2.900   3.087  20.456  0.00  0.00    +0.000 C 
ATOM     24  C   UNL     1       1.790   3.214  21.490  0.00  0.00    +0.000 C 
ENDBRANCH  22  23
ENDBRANCH  15  22
ENDBRANCH   1  12
BRANCH   4  25
ATOM     25  N   UNL     1      -0.846  11.997  20.598  0.00  0.00    +0.000 N 
ATOM     26  C   UNL     1      -0.353  13.010  21.413  0.00  0.00    +0.000 C 
ATOM     27  O   UNL     1       0.834  13.173  21.684  0.00  0.00    +0.000 OA
ATOM     28  N   UNL     1      -1.371  13.814  21.913  0.00  0.00    +0.000 N 
ATOM     29  H   UNL     1      -1.699  12.211  20.106  0.00  0.00    +0.000 HD
ATOM     30  H   UNL     1      -2.233  13.322  22.107  0.00  0.00    +0.000 HD
BRANCH  28  31
ATOM     31  C   UNL     1      -1.086  14.949  22.710  0.00  0.00    +0.000 A 
ATOM     32  C   UNL     1      -0.714  16.171  22.135  0.00  0.00    +0.000 A 
ATOM     33  C   UNL     1      -0.417  17.274  22.938  0.00  0.00    +0.000 A 
ATOM     34  C   UNL     1      -0.477  17.159  24.322  0.00  0.00    +0.000 A 
ATOM     35  C   UNL     1      -0.850  15.944  24.897  0.00  0.00    +0.000 A 
ATOM     36 CL   UNL     1      -0.877  15.790  26.612  0.00  0.00    +0.000 Cl
ATOM     37  C   UNL     1      -1.179  14.845  24.100  0.00  0.00    +0.000 A 
ENDBRANCH  28  31
ENDBRANCH   4  25
TORSDOF 7
ENDMDL
