MODEL 1
REMARK VINA RESULT:      -8.1      0.000      0.000
REMARK  Name = 
REMARK  11 active torsions:
REMARK  status: ('A' for Active; 'I' for Inactive)
REMARK    1  A    between atoms: C_1  and  C_2
REMARK    2  A    between atoms: C_2  and  C_10
REMARK    3  A    between atoms: C_12  and  C_13
REMARK    4  A    between atoms: C_13  and  C_14
REMARK    5  A    between atoms: C_13  and  C_15
REMARK    6  A    between atoms: C_13  and  C_16
REMARK    7  A    between atoms: C_17  and  O_18
REMARK    8  A    between atoms: C_19  and  C_20
REMARK    9  A    between atoms: C_20  and  C_21
REMARK   10  A    between atoms: C_20  and  C_22
REMARK   11  A    between atoms: C_20  and  C_23
REMARK                            x       y       z     vdW  Elec       q    Type
REMARK                         _______ _______ _______ _____ _____    ______ ____
ROOT
ATOM      1  C   UNL     1       3.053   6.791  18.689  0.00  0.00    +0.000 A 
ATOM      2  C   UNL     1       4.423   6.788  18.406  0.00  0.00    +0.000 A 
ATOM      3  C   UNL     1       5.204   5.617  18.496  0.00  0.00    +0.000 A 
ATOM      4  C   UNL     1       4.533   4.446  18.929  0.00  0.00    +0.000 A 
ATOM      5  C   UNL     1       3.149   4.398  19.239  0.00  0.00    +0.000 A 
ATOM      6  C   UNL     1       2.434   5.609  19.102  0.00  0.00    +0.000 A 
ENDROOT
BRANCH   1   8
ATOM      7  C   UNL     1       2.350   8.658  17.203  0.00  0.00    +0.000 C 
ATOM      8  C   UNL     1       2.280   8.053  18.583  0.00  0.00    +0.000 C 
ATOM      9  C   UNL     1       1.551   8.524  19.615  0.00  0.00    +0.000 C 
ATOM     10  S   UNL     1       1.347   7.726  21.151  0.00  0.00    +0.000 S 
ATOM     11  C   UNL     1      -0.024   8.724  21.582  0.00  0.00    +0.000 C 
ATOM     12  O   UNL     1      -0.788   8.485  22.497  0.00  0.00    +0.000 OA
ATOM     13  N   UNL     1      -0.116   9.759  20.715  0.00  0.00    +0.000 N 
ATOM     14  C   UNL     1       0.683   9.745  19.610  0.00  0.00    +0.000 C 
ATOM     15  O   UNL     1       0.654  10.618  18.758  0.00  0.00    +0.000 OA
ATOM     16  H   UNL     1      -0.837  10.449  20.817  0.00  0.00    +0.000 HD
ENDBRANCH   1   8
BRANCH   3  17
ATOM     17  C   UNL     1       6.727   5.699  18.207  0.00  0.00    +0.000 C 
ATOM     18  C   UNL     1       6.999   7.030  17.476  0.00  0.00    +0.000 C 
ATOM     19  C   UNL     1       7.623   5.631  19.468  0.00  0.00    +0.000 C 
ATOM     20  C   UNL     1       7.236   4.549  17.297  0.00  0.00    +0.000 C 
ENDBRANCH   3  17
BRANCH   5  21
ATOM     21  C   UNL     1       2.436   3.157  19.844  0.00  0.00    +0.000 C 
ATOM     22  C   UNL     1       0.961   3.546  20.079  0.00  0.00    +0.000 C 
ATOM     23  C   UNL     1       2.478   1.938  18.887  0.00  0.00    +0.000 C 
ATOM     24  C   UNL     1       2.999   2.628  21.187  0.00  0.00    +0.000 C 
ENDBRANCH   5  21
BRANCH   4  25
ATOM     25  O   UNL     1       5.249   3.301  19.109  0.00  0.00    +0.000 OA
ATOM     26  H   UNL     1       5.741   3.164  18.290  0.00  0.00    +0.000 HD
ENDBRANCH   4  25
TORSDOF 4
ENDMDL
MODEL 2
REMARK VINA RESULT:      -8.0      0.152      3.791
REMARK  Name = 
REMARK  11 active torsions:
REMARK  status: ('A' for Active; 'I' for Inactive)
REMARK    1  A    between atoms: C_1  and  C_2
REMARK    2  A    between atoms: C_2  and  C_10
REMARK    3  A    between atoms: C_12  and  C_13
REMARK    4  A    between atoms: C_13  and  C_14
REMARK    5  A    between atoms: C_13  and  C_15
REMARK    6  A    between atoms: C_13  and  C_16
REMARK    7  A    between atoms: C_17  and  O_18
REMARK    8  A    between atoms: C_19  and  C_20
REMARK    9  A    between atoms: C_20  and  C_21
REMARK   10  A    between atoms: C_20  and  C_22
REMARK   11  A    between atoms: C_20  and  C_23
REMARK                            x       y       z     vdW  Elec       q    Type
REMARK                         _______ _______ _______ _____ _____    ______ ____
ROOT
ATOM      1  C   UNL     1       3.009   6.748  18.780  0.00  0.00    +0.000 A 
ATOM      2  C   UNL     1       2.388   5.575  19.223  0.00  0.00    +0.000 A 
ATOM      3  C   UNL     1       3.102   4.373  19.410  0.00  0.00    +0.000 A 
ATOM      4  C   UNL     1       4.482   4.406  19.087  0.00  0.00    +0.000 A 
ATOM      5  C   UNL     1       5.157   5.564  18.626  0.00  0.00    +0.000 A 
ATOM      6  C   UNL     1       4.374   6.732  18.486  0.00  0.00    +0.000 A 
ENDROOT
BRANCH   1   8
ATOM      7  C   UNL     1       2.238   8.484  17.174  0.00  0.00    +0.000 C 
ATOM      8  C   UNL     1       2.209   7.983  18.596  0.00  0.00    +0.000 C 
ATOM      9  C   UNL     1       1.490   8.515  19.606  0.00  0.00    +0.000 C 
ATOM     10  S   UNL     1       1.332   7.831  21.201  0.00  0.00    +0.000 S 
ATOM     11  C   UNL     1      -0.050   8.831  21.585  0.00  0.00    +0.000 C 
ATOM     12  O   UNL     1      -0.791   8.647  22.531  0.00  0.00    +0.000 OA
ATOM     13  N   UNL     1      -0.181   9.796  20.646  0.00  0.00    +0.000 N 
ATOM     14  C   UNL     1       0.596   9.715  19.529  0.00  0.00    +0.000 C 
ATOM     15  O   UNL     1       0.532  10.522  18.615  0.00  0.00    +0.000 OA
ATOM     16  H   UNL     1      -0.915  10.478  20.711  0.00  0.00    +0.000 HD
ENDBRANCH   1   8
BRANCH   3  17
ATOM     17  C   UNL     1       2.336   3.100  19.863  0.00  0.00    +0.000 C 
ATOM     18  C   UNL     1       0.858   3.489  20.075  0.00  0.00    +0.000 C 
ATOM     19  C   UNL     1       2.404   1.921  18.862  0.00  0.00    +0.000 C 
ATOM     20  C   UNL     1       2.866   2.516  21.200  0.00  0.00    +0.000 C 
ENDBRANCH   3  17
BRANCH   5  21
ATOM     21  C   UNL     1       6.633   5.574  18.140  0.00  0.00    +0.000 C 
ATOM     22  C   UNL     1       6.857   6.901  17.382  0.00  0.00    +0.000 C 
ATOM     23  C   UNL     1       7.635   5.506  19.321  0.00  0.00    +0.000 C 
ATOM     24  C   UNL     1       7.053   4.421  17.194  0.00  0.00    +0.000 C 
ENDBRANCH   5  21
BRANCH   4  25
ATOM     25  O   UNL     1       5.208   3.257  19.175  0.00  0.00    +0.000 OA
ATOM     26  H   UNL     1       5.876   3.416  19.853  0.00  0.00    +0.000 HD
ENDBRANCH   4  25
TORSDOF 4
ENDMDL
MODEL 3
REMARK VINA RESULT:      -7.8      0.134      1.225
REMARK  Name = 
REMARK  11 active torsions:
REMARK  status: ('A' for Active; 'I' for Inactive)
REMARK    1  A    between atoms: C_1  and  C_2
REMARK    2  A    between atoms: C_2  and  C_10
REMARK    3  A    between atoms: C_12  and  C_13
REMARK    4  A    between atoms: C_13  and  C_14
REMARK    5  A    between atoms: C_13  and  C_15
REMARK    6  A    between atoms: C_13  and  C_16
REMARK    7  A    between atoms: C_17  and  O_18
REMARK    8  A    between atoms: C_19  and  C_20
REMARK    9  A    between atoms: C_20  and  C_21
REMARK   10  A    between atoms: C_20  and  C_22
REMARK   11  A    between atoms: C_20  and  C_23
REMARK                            x       y       z     vdW  Elec       q    Type
REMARK                         _______ _______ _______ _____ _____    ______ ____
ROOT
ATOM      1  C   UNL     1       3.069   6.803  18.632  0.00  0.00    +0.000 A 
ATOM      2  C   UNL     1       4.442   6.811  18.365  0.00  0.00    +0.000 A 
ATOM      3  C   UNL     1       5.226   5.641  18.429  0.00  0.00    +0.000 A 
ATOM      4  C   UNL     1       4.554   4.456  18.820  0.00  0.00    +0.000 A 
ATOM      5  C   UNL     1       3.167   4.394  19.113  0.00  0.00    +0.000 A 
ATOM      6  C   UNL     1       2.450   5.607  19.003  0.00  0.00    +0.000 A 
ENDROOT
BRANCH   1   8
ATOM      7  C   UNL     1       2.355   8.695  17.184  0.00  0.00    +0.000 C 
ATOM      8  C   UNL     1       2.294   8.065  18.553  0.00  0.00    +0.000 C 
ATOM      9  C   UNL     1       1.570   8.515  19.599  0.00  0.00    +0.000 C 
ATOM     10  S   UNL     1       1.375   7.688  21.120  0.00  0.00    +0.000 S 
ATOM     11  C   UNL     1       0.005   8.675  21.577  0.00  0.00    +0.000 C 
ATOM     12  O   UNL     1      -0.753   8.418  22.492  0.00  0.00    +0.000 OA
ATOM     13  N   UNL     1      -0.093   9.726  20.730  0.00  0.00    +0.000 N 
ATOM     14  C   UNL     1       0.700   9.734  19.621  0.00  0.00    +0.000 C 
ATOM     15  O   UNL     1       0.664  10.623  18.786  0.00  0.00    +0.000 OA
ATOM     16  H   UNL     1      -0.815  10.413  20.849  0.00  0.00    +0.000 HD
ENDBRANCH   1   8
BRANCH   3  17
ATOM     17  C   UNL     1       6.753   5.736  18.161  0.00  0.00    +0.000 C 
ATOM     18  C   UNL     1       7.139   4.581  17.214  0.00  0.00    +0.000 C 
ATOM     19  C   UNL     1       7.211   7.074  17.532  0.00  0.00    +0.000 C 
ATOM     20  C   UNL     1       7.606   5.593  19.451  0.00  0.00    +0.000 C 
ENDBRANCH   3  17
BRANCH   5  21
ATOM     21  C   UNL     1       2.451   3.135  19.673  0.00  0.00    +0.000 C 
ATOM     22  C   UNL     1       2.519   2.045  18.581  0.00  0.00    +0.000 C 
ATOM     23  C   UNL     1       3.142   2.594  20.952  0.00  0.00    +0.000 C 
ATOM     24  C   UNL     1       0.963   3.307  20.067  0.00  0.00    +0.000 C 
ENDBRANCH   5  21
BRANCH   4  25
ATOM     25  O   UNL     1       5.272   3.308  18.975  0.00  0.00    +0.000 OA
ATOM     26  H   UNL     1       6.076   3.560  19.446  0.00  0.00    +0.000 HD
ENDBRANCH   4  25
TORSDOF 4
ENDMDL
MODEL 4
REMARK VINA RESULT:      -7.7      0.185      3.752
REMARK  Name = 
REMARK  11 active torsions:
REMARK  status: ('A' for Active; 'I' for Inactive)
REMARK    1  A    between atoms: C_1  and  C_2
REMARK    2  A    between atoms: C_2  and  C_10
REMARK    3  A    between atoms: C_12  and  C_13
REMARK    4  A    between atoms: C_13  and  C_14
REMARK    5  A    between atoms: C_13  and  C_15
REMARK    6  A    between atoms: C_13  and  C_16
REMARK    7  A    between atoms: C_17  and  O_18
REMARK    8  A    between atoms: C_19  and  C_20
REMARK    9  A    between atoms: C_20  and  C_21
REMARK   10  A    between atoms: C_20  and  C_22
REMARK   11  A    between atoms: C_20  and  C_23
REMARK                            x       y       z     vdW  Elec       q    Type
REMARK                         _______ _______ _______ _____ _____    ______ ____
ROOT
ATOM      1  C   UNL     1       3.033   6.823  18.817  0.00  0.00    +0.000 A 
ATOM      2  C   UNL     1       2.420   5.647  19.264  0.00  0.00    +0.000 A 
ATOM      3  C   UNL     1       3.145   4.454  19.467  0.00  0.00    +0.000 A 
ATOM      4  C   UNL     1       4.527   4.499  19.155  0.00  0.00    +0.000 A 
ATOM      5  C   UNL     1       5.194   5.660  18.688  0.00  0.00    +0.000 A 
ATOM      6  C   UNL     1       4.400   6.819  18.533  0.00  0.00    +0.000 A 
ENDROOT
BRANCH   1   8
ATOM      7  C   UNL     1       2.215   8.508  17.180  0.00  0.00    +0.000 C 
ATOM      8  C   UNL     1       2.221   8.047  18.617  0.00  0.00    +0.000 C 
ATOM      9  C   UNL     1       1.522   8.605  19.627  0.00  0.00    +0.000 C 
ATOM     10  S   UNL     1       1.405   7.965  21.244  0.00  0.00    +0.000 S 
ATOM     11  C   UNL     1       0.026   8.968  21.632  0.00  0.00    +0.000 C 
ATOM     12  O   UNL     1      -0.692   8.807  22.599  0.00  0.00    +0.000 OA
ATOM     13  N   UNL     1      -0.132   9.906  20.668  0.00  0.00    +0.000 N 
ATOM     14  C   UNL     1       0.620   9.797  19.536  0.00  0.00    +0.000 C 
ATOM     15  O   UNL     1       0.530  10.577  18.602  0.00  0.00    +0.000 OA
ATOM     16  H   UNL     1      -0.868  10.585  20.731  0.00  0.00    +0.000 HD
ENDBRANCH   1   8
BRANCH   3  17
ATOM     17  C   UNL     1       2.389   3.177  19.924  0.00  0.00    +0.000 C 
ATOM     18  C   UNL     1       2.543   2.115  18.817  0.00  0.00    +0.000 C 
ATOM     19  C   UNL     1       2.889   2.581  21.262  0.00  0.00    +0.000 C 
ATOM     20  C   UNL     1       0.870   3.416  20.141  0.00  0.00    +0.000 C 
ENDBRANCH   3  17
BRANCH   5  21
ATOM     21  C   UNL     1       6.673   5.682  18.214  0.00  0.00    +0.000 C 
ATOM     22  C   UNL     1       7.560   5.579  19.474  0.00  0.00    +0.000 C 
ATOM     23  C   UNL     1       7.003   4.488  17.281  0.00  0.00    +0.000 C 
ATOM     24  C   UNL     1       7.125   6.938  17.427  0.00  0.00    +0.000 C 
ENDBRANCH   5  21
BRANCH   4  25
ATOM     25  O   UNL     1       5.265   3.358  19.257  0.00  0.00    +0.000 OA
ATOM     26  H   UNL     1       5.035   2.968  20.109  0.00  0.00    +0.000 HD
ENDBRANCH   4  25
TORSDOF 4
ENDMDL
MODEL 5
REMARK VINA RESULT:      -7.7      0.611      3.782
REMARK  Name = 
REMARK  11 active torsions:
REMARK  status: ('A' for Active; 'I' for Inactive)
REMARK    1  A    between atoms: C_1  and  C_2
REMARK    2  A    between atoms: C_2  and  C_10
REMARK    3  A    between atoms: C_12  and  C_13
REMARK    4  A    between atoms: C_13  and  C_14
REMARK    5  A    between atoms: C_13  and  C_15
REMARK    6  A    between atoms: C_13  and  C_16
REMARK    7  A    between atoms: C_17  and  O_18
REMARK    8  A    between atoms: C_19  and  C_20
REMARK    9  A    between atoms: C_20  and  C_21
REMARK   10  A    between atoms: C_20  and  C_22
REMARK   11  A    between atoms: C_20  and  C_23
REMARK                            x       y       z     vdW  Elec       q    Type
REMARK                         _______ _______ _______ _____ _____    ______ ____
ROOT
ATOM      1  C   UNL     1       2.952   6.997  18.547  0.00  0.00    +0.000 A 
ATOM      2  C   UNL     1       2.345   5.827  19.017  0.00  0.00    +0.000 A 
ATOM      3  C   UNL     1       3.009   4.583  19.008  0.00  0.00    +0.000 A 
ATOM      4  C   UNL     1       4.315   4.572  18.458  0.00  0.00    +0.000 A 
ATOM      5  C   UNL     1       4.971   5.727  17.958  0.00  0.00    +0.000 A 
ATOM      6  C   UNL     1       4.245   6.937  18.024  0.00  0.00    +0.000 A 
ENDROOT
BRANCH   1   8
ATOM      7  C   UNL     1       2.270   9.015  17.262  0.00  0.00    +0.000 C 
ATOM      8  C   UNL     1       2.205   8.279  18.577  0.00  0.00    +0.000 C 
ATOM      9  C   UNL     1       1.499   8.659  19.661  0.00  0.00    +0.000 C 
ATOM     10  S   UNL     1       1.297   7.718  21.113  0.00  0.00    +0.000 S 
ATOM     11  C   UNL     1      -0.047   8.695  21.660  0.00  0.00    +0.000 C 
ATOM     12  O   UNL     1      -0.804   8.383  22.559  0.00  0.00    +0.000 OA
ATOM     13  N   UNL     1      -0.128   9.813  20.901  0.00  0.00    +0.000 N 
ATOM     14  C   UNL     1       0.657   9.892  19.789  0.00  0.00    +0.000 C 
ATOM     15  O   UNL     1       0.635  10.846  19.027  0.00  0.00    +0.000 OA
ATOM     16  H   UNL     1      -0.833  10.504  21.081  0.00  0.00    +0.000 HD
ENDBRANCH   1   8
BRANCH   3  17
ATOM     17  C   UNL     1       2.256   3.320  19.507  0.00  0.00    +0.000 C 
ATOM     18  C   UNL     1       3.078   2.703  20.658  0.00  0.00    +0.000 C 
ATOM     19  C   UNL     1       0.816   3.588  20.009  0.00  0.00    +0.000 C 
ATOM     20  C   UNL     1       2.096   2.235  18.408  0.00  0.00    +0.000 C 
ENDBRANCH   3  17
BRANCH   5  21
ATOM     21  C   UNL     1       6.343   5.700  17.230  0.00  0.00    +0.000 C 
ATOM     22  C   UNL     1       6.070   5.351  15.751  0.00  0.00    +0.000 C 
ATOM     23  C   UNL     1       7.060   7.074  17.288  0.00  0.00    +0.000 C 
ATOM     24  C   UNL     1       7.385   4.685  17.763  0.00  0.00    +0.000 C 
ENDBRANCH   5  21
BRANCH   4  25
ATOM     25  O   UNL     1       4.978   3.387  18.351  0.00  0.00    +0.000 OA
ATOM     26  H   UNL     1       5.918   3.607  18.345  0.00  0.00    +0.000 HD
ENDBRANCH   4  25
TORSDOF 4
ENDMDL
MODEL 6
REMARK VINA RESULT:      -7.5      0.670      3.784
REMARK  Name = 
REMARK  11 active torsions:
REMARK  status: ('A' for Active; 'I' for Inactive)
REMARK    1  A    between atoms: C_1  and  C_2
REMARK    2  A    between atoms: C_2  and  C_10
REMARK    3  A    between atoms: C_12  and  C_13
REMARK    4  A    between atoms: C_13  and  C_14
REMARK    5  A    between atoms: C_13  and  C_15
REMARK    6  A    between atoms: C_13  and  C_16
REMARK    7  A    between atoms: C_17  and  O_18
REMARK    8  A    between atoms: C_19  and  C_20
REMARK    9  A    between atoms: C_20  and  C_21
REMARK   10  A    between atoms: C_20  and  C_22
REMARK   11  A    between atoms: C_20  and  C_23
REMARK                            x       y       z     vdW  Elec       q    Type
REMARK                         _______ _______ _______ _____ _____    ______ ____
ROOT
ATOM      1  C   UNL     1       2.924   6.776  18.609  0.00  0.00    +0.000 A 
ATOM      2  C   UNL     1       2.292   5.689  19.222  0.00  0.00    +0.000 A 
ATOM      3  C   UNL     1       2.873   4.404  19.254  0.00  0.00    +0.000 A 
ATOM      4  C   UNL     1       4.120   4.262  18.594  0.00  0.00    +0.000 A 
ATOM      5  C   UNL     1       4.797   5.328  17.949  0.00  0.00    +0.000 A 
ATOM      6  C   UNL     1       4.158   6.588  17.981  0.00  0.00    +0.000 A 
ENDROOT
BRANCH   1   8
ATOM      7  C   UNL     1       2.402   8.810  17.275  0.00  0.00    +0.000 C 
ATOM      8  C   UNL     1       2.265   8.105  18.601  0.00  0.00    +0.000 C 
ATOM      9  C   UNL     1       1.568   8.553  19.665  0.00  0.00    +0.000 C 
ATOM     10  S   UNL     1       1.278   7.656  21.131  0.00  0.00    +0.000 S 
ATOM     11  C   UNL     1      -0.006   8.731  21.635  0.00  0.00    +0.000 C 
ATOM     12  O   UNL     1      -0.798   8.487  22.525  0.00  0.00    +0.000 OA
ATOM     13  N   UNL     1       0.002   9.837  20.854  0.00  0.00    +0.000 N 
ATOM     14  C   UNL     1       0.809   9.841  19.755  0.00  0.00    +0.000 C 
ATOM     15  O   UNL     1       0.864  10.779  18.976  0.00  0.00    +0.000 OA
ATOM     16  H   UNL     1      -0.659  10.576  21.008  0.00  0.00    +0.000 HD
ENDBRANCH   1   8
BRANCH   3  17
ATOM     17  C   UNL     1       2.092   3.237  19.916  0.00  0.00    +0.000 C 
ATOM     18  C   UNL     1       0.722   3.782  20.370  0.00  0.00    +0.000 C 
ATOM     19  C   UNL     1       1.863   2.015  18.994  0.00  0.00    +0.000 C 
ATOM     20  C   UNL     1       2.808   2.659  21.167  0.00  0.00    +0.000 C 
ENDBRANCH   3  17
BRANCH   5  21
ATOM     21  C   UNL     1       6.092   5.153  17.108  0.00  0.00    +0.000 C 
ATOM     22  C   UNL     1       7.213   4.718  18.077  0.00  0.00    +0.000 C 
ATOM     23  C   UNL     1       5.934   4.063  16.016  0.00  0.00    +0.000 C 
ATOM     24  C   UNL     1       6.593   6.407  16.348  0.00  0.00    +0.000 C 
ENDBRANCH   5  21
BRANCH   4  25
ATOM     25  O   UNL     1       4.694   3.029  18.525  0.00  0.00    +0.000 OA
ATOM     26  H   UNL     1       5.397   3.100  17.867  0.00  0.00    +0.000 HD
ENDBRANCH   4  25
TORSDOF 4
ENDMDL
MODEL 7
REMARK VINA RESULT:      -7.4      0.858      1.592
REMARK  Name = 
REMARK  11 active torsions:
REMARK  status: ('A' for Active; 'I' for Inactive)
REMARK    1  A    between atoms: C_1  and  C_2
REMARK    2  A    between atoms: C_2  and  C_10
REMARK    3  A    between atoms: C_12  and  C_13
REMARK    4  A    between atoms: C_13  and  C_14
REMARK    5  A    between atoms: C_13  and  C_15
REMARK    6  A    between atoms: C_13  and  C_16
REMARK    7  A    between atoms: C_17  and  O_18
REMARK    8  A    between atoms: C_19  and  C_20
REMARK    9  A    between atoms: C_20  and  C_21
REMARK   10  A    between atoms: C_20  and  C_22
REMARK   11  A    between atoms: C_20  and  C_23
REMARK                            x       y       z     vdW  Elec       q    Type
REMARK                         _______ _______ _______ _____ _____    ______ ____
ROOT
ATOM      1  C   UNL     1       2.862   6.678  18.431  0.00  0.00    +0.000 A 
ATOM      2  C   UNL     1       4.047   6.452  17.722  0.00  0.00    +0.000 A 
ATOM      3  C   UNL     1       4.602   5.163  17.580  0.00  0.00    +0.000 A 
ATOM      4  C   UNL     1       3.913   4.108  18.229  0.00  0.00    +0.000 A 
ATOM      5  C   UNL     1       2.715   4.284  18.968  0.00  0.00    +0.000 A 
ATOM      6  C   UNL     1       2.214   5.603  19.044  0.00  0.00    +0.000 A 
ENDROOT
BRANCH   1   8
ATOM      7  C   UNL     1       2.560   8.878  17.310  0.00  0.00    +0.000 C 
ATOM      8  C   UNL     1       2.326   8.055  18.552  0.00  0.00    +0.000 C 
ATOM      9  C   UNL     1       1.645   8.454  19.646  0.00  0.00    +0.000 C 
ATOM     10  S   UNL     1       1.237   7.440  21.004  0.00  0.00    +0.000 S 
ATOM     11  C   UNL     1       0.043   8.572  21.598  0.00  0.00    +0.000 C 
ATOM     12  O   UNL     1      -0.791   8.312  22.444  0.00  0.00    +0.000 OA
ATOM     13  N   UNL     1       0.171   9.747  20.938  0.00  0.00    +0.000 N 
ATOM     14  C   UNL     1       1.003   9.790  19.859  0.00  0.00    +0.000 C 
ATOM     15  O   UNL     1       1.163  10.795  19.184  0.00  0.00    +0.000 OA
ATOM     16  H   UNL     1      -0.424  10.525  21.159  0.00  0.00    +0.000 HD
ENDBRANCH   1   8
BRANCH   3  17
ATOM     17  C   UNL     1       5.943   4.996  16.815  0.00  0.00    +0.000 C 
ATOM     18  C   UNL     1       7.055   4.760  17.858  0.00  0.00    +0.000 C 
ATOM     19  C   UNL     1       5.959   3.833  15.795  0.00  0.00    +0.000 C 
ATOM     20  C   UNL     1       6.331   6.252  15.989  0.00  0.00    +0.000 C 
ENDBRANCH   3  17
BRANCH   5  21
ATOM     21  C   UNL     1       2.031   3.161  19.795  0.00  0.00    +0.000 C 
ATOM     22  C   UNL     1       3.012   2.755  20.916  0.00  0.00    +0.000 C 
ATOM     23  C   UNL     1       0.709   3.642  20.448  0.00  0.00    +0.000 C 
ATOM     24  C   UNL     1       1.648   1.874  19.023  0.00  0.00    +0.000 C 
ENDBRANCH   5  21
BRANCH   4  25
ATOM     25  O   UNL     1       4.440   2.853  18.192  0.00  0.00    +0.000 OA
ATOM     26  H   UNL     1       5.241   2.885  18.730  0.00  0.00    +0.000 HD
ENDBRANCH   4  25
TORSDOF 4
ENDMDL
MODEL 8
REMARK VINA RESULT:      -6.4      8.575     10.603
REMARK  Name = 
REMARK  11 active torsions:
REMARK  status: ('A' for Active; 'I' for Inactive)
REMARK    1  A    between atoms: C_1  and  C_2
REMARK    2  A    between atoms: C_2  and  C_10
REMARK    3  A    between atoms: C_12  and  C_13
REMARK    4  A    between atoms: C_13  and  C_14
REMARK    5  A    between atoms: C_13  and  C_15
REMARK    6  A    between atoms: C_13  and  C_16
REMARK    7  A    between atoms: C_17  and  O_18
REMARK    8  A    between atoms: C_19  and  C_20
REMARK    9  A    between atoms: C_20  and  C_21
REMARK   10  A    between atoms: C_20  and  C_22
REMARK   11  A    between atoms: C_20  and  C_23
REMARK                            x       y       z     vdW  Elec       q    Type
REMARK                         _______ _______ _______ _____ _____    ______ ____
ROOT
ATOM      1  C   UNL     1       8.809  14.010  21.755  0.00  0.00    +0.000 A 
ATOM      2  C   UNL     1       7.811  14.698  21.055  0.00  0.00    +0.000 A 
ATOM      3  C   UNL     1       7.747  14.697  19.646  0.00  0.00    +0.000 A 
ATOM      4  C   UNL     1       8.776  13.993  18.971  0.00  0.00    +0.000 A 
ATOM      5  C   UNL     1       9.816  13.290  19.632  0.00  0.00    +0.000 A 
ATOM      6  C   UNL     1       9.794  13.322  21.044  0.00  0.00    +0.000 A 
ENDROOT
BRANCH   1   8
ATOM      7  C   UNL     1       9.577  15.244  23.773  0.00  0.00    +0.000 C 
ATOM      8  C   UNL     1       8.830  14.048  23.237  0.00  0.00    +0.000 C 
ATOM      9  C   UNL     1       8.172  13.132  23.976  0.00  0.00    +0.000 C 
ATOM     10  S   UNL     1       7.175  11.852  23.340  0.00  0.00    +0.000 S 
ATOM     11  C   UNL     1       6.422  11.554  24.891  0.00  0.00    +0.000 C 
ATOM     12  O   UNL     1       5.418  10.888  25.052  0.00  0.00    +0.000 OA
ATOM     13  N   UNL     1       7.105  12.214  25.856  0.00  0.00    +0.000 N 
ATOM     14  C   UNL     1       8.066  13.100  25.470  0.00  0.00    +0.000 C 
ATOM     15  O   UNL     1       8.716  13.762  26.264  0.00  0.00    +0.000 OA
ATOM     16  H   UNL     1       6.825  12.147  26.817  0.00  0.00    +0.000 HD
ENDBRANCH   1   8
BRANCH   3  17
ATOM     17  C   UNL     1       6.635  15.518  18.938  0.00  0.00    +0.000 C 
ATOM     18  C   UNL     1       7.279  16.807  18.386  0.00  0.00    +0.000 C 
ATOM     19  C   UNL     1       5.929  14.775  17.778  0.00  0.00    +0.000 C 
ATOM     20  C   UNL     1       5.487  15.938  19.896  0.00  0.00    +0.000 C 
ENDBRANCH   3  17
BRANCH   5  21
ATOM     21  C   UNL     1      11.021  12.634  18.903  0.00  0.00    +0.000 C 
ATOM     22  C   UNL     1      11.901  11.967  19.982  0.00  0.00    +0.000 C 
ATOM     23  C   UNL     1      10.569  11.546  17.894  0.00  0.00    +0.000 C 
ATOM     24  C   UNL     1      11.929  13.584  18.083  0.00  0.00    +0.000 C 
ENDBRANCH   5  21
BRANCH   4  25
ATOM     25  O   UNL     1       8.812  14.020  17.610  0.00  0.00    +0.000 OA
ATOM     26  H   UNL     1       8.108  13.431  17.313  0.00  0.00    +0.000 HD
ENDBRANCH   4  25
TORSDOF 4
ENDMDL
