MODEL 1
REMARK VINA RESULT:      -5.1      0.000      0.000
REMARK  Name = 
REMARK  2 active torsions:
REMARK  status: ('A' for Active; 'I' for Inactive)
REMARK    1  A    between atoms: C_2  and  C_3
REMARK    2  A    between atoms: C_8  and  C_9
REMARK                            x       y       z     vdW  Elec       q    Type
REMARK                         _______ _______ _______ _____ _____    ______ ____
ROOT
ATOM      1  C   UNL     1       5.649   5.196  15.922  0.00  0.00    +0.000 A 
ATOM      2  C   UNL     1       5.118   6.392  16.414  0.00  0.00    +0.000 A 
ATOM      3  C   UNL     1       4.105   6.366  17.376  0.00  0.00    +0.000 A 
ATOM      4  C   UNL     1       3.623   5.144  17.857  0.00  0.00    +0.000 A 
ATOM      5 BR   UNL     1       2.267   5.197  19.185  0.00  0.00    +0.000 Br
ATOM      6  C   UNL     1       4.144   3.940  17.365  0.00  0.00    +0.000 A 
ATOM      7  C   UNL     1       5.155   3.973  16.392  0.00  0.00    +0.000 A 
ENDROOT
BRANCH   1   9
ATOM      8  N   UNL     1       7.560   5.256  14.170  0.00  0.00    +0.000 NA
ATOM      9  C   UNL     1       6.708   5.223  14.955  0.00  0.00    +0.000 C 
ENDBRANCH   1   9
BRANCH   6  10
ATOM     10  C   UNL     1       3.691   2.663  17.838  0.00  0.00    +0.000 C 
ATOM     11  N   UNL     1       3.302   1.630  18.193  0.00  0.00    +0.000 NA
ENDBRANCH   6  10
TORSDOF 2
ENDMDL
MODEL 2
REMARK VINA RESULT:      -5.0      2.152      4.398
REMARK  Name = 
REMARK  2 active torsions:
REMARK  status: ('A' for Active; 'I' for Inactive)
REMARK    1  A    between atoms: C_2  and  C_3
REMARK    2  A    between atoms: C_8  and  C_9
REMARK                            x       y       z     vdW  Elec       q    Type
REMARK                         _______ _______ _______ _____ _____    ______ ____
ROOT
ATOM      1  C   UNL     1       4.038   3.808  17.852  0.00  0.00    +0.000 A 
ATOM      2  C   UNL     1       4.330   4.441  19.063  0.00  0.00    +0.000 A 
ATOM      3  C   UNL     1       5.442   5.282  19.166  0.00  0.00    +0.000 A 
ATOM      4  C   UNL     1       6.264   5.497  18.054  0.00  0.00    +0.000 A 
ATOM      5 BR   UNL     1       7.737   6.676  18.269  0.00  0.00    +0.000 Br
ATOM      6  C   UNL     1       5.984   4.862  16.838  0.00  0.00    +0.000 A 
ATOM      7  C   UNL     1       4.871   4.011  16.745  0.00  0.00    +0.000 A 
ENDROOT
BRANCH   1   9
ATOM      8  N   UNL     1       1.953   2.278  17.647  0.00  0.00    +0.000 NA
ATOM      9  C   UNL     1       2.881   2.967  17.740  0.00  0.00    +0.000 C 
ENDBRANCH   1   9
BRANCH   6  10
ATOM     10  C   UNL     1       6.790   5.063  15.669  0.00  0.00    +0.000 C 
ATOM     11  N   UNL     1       7.469   5.216  14.741  0.00  0.00    +0.000 NA
ENDBRANCH   6  10
TORSDOF 2
ENDMDL
MODEL 3
REMARK VINA RESULT:      -5.0      2.069      2.621
REMARK  Name = 
REMARK  2 active torsions:
REMARK  status: ('A' for Active; 'I' for Inactive)
REMARK    1  A    between atoms: C_2  and  C_3
REMARK    2  A    between atoms: C_8  and  C_9
REMARK                            x       y       z     vdW  Elec       q    Type
REMARK                         _______ _______ _______ _____ _____    ______ ____
ROOT
ATOM      1  C   UNL     1       4.026   5.203  17.603  0.00  0.00    +0.000 A 
ATOM      2  C   UNL     1       2.708   5.579  17.878  0.00  0.00    +0.000 A 
ATOM      3  C   UNL     1       1.980   4.910  18.866  0.00  0.00    +0.000 A 
ATOM      4  C   UNL     1       2.569   3.867  19.588  0.00  0.00    +0.000 A 
ATOM      5 BR   UNL     1       1.521   3.030  20.933  0.00  0.00    +0.000 Br
ATOM      6  C   UNL     1       3.887   3.479  19.316  0.00  0.00    +0.000 A 
ATOM      7  C   UNL     1       4.609   4.149  18.316  0.00  0.00    +0.000 A 
ENDROOT
BRANCH   1   9
ATOM      8  N   UNL     1       5.403   6.470  15.807  0.00  0.00    +0.000 NA
ATOM      9  C   UNL     1       4.782   5.908  16.608  0.00  0.00    +0.000 C 
ENDBRANCH   1   9
BRANCH   6  10
ATOM     10  C   UNL     1       4.537   2.425  20.040  0.00  0.00    +0.000 C 
ATOM     11  N   UNL     1       5.090   1.593  20.628  0.00  0.00    +0.000 NA
ENDBRANCH   6  10
TORSDOF 2
ENDMDL
MODEL 4
REMARK VINA RESULT:      -5.0      1.975      2.023
REMARK  Name = 
REMARK  2 active torsions:
REMARK  status: ('A' for Active; 'I' for Inactive)
REMARK    1  A    between atoms: C_2  and  C_3
REMARK    2  A    between atoms: C_8  and  C_9
REMARK                            x       y       z     vdW  Elec       q    Type
REMARK                         _______ _______ _______ _____ _____    ______ ____
ROOT
ATOM      1  C   UNL     1       5.468   5.963  17.666  0.00  0.00    +0.000 A 
ATOM      2  C   UNL     1       4.216   6.555  17.475  0.00  0.00    +0.000 A 
ATOM      3  C   UNL     1       3.070   5.960  18.009  0.00  0.00    +0.000 A 
ATOM      4  C   UNL     1       3.171   4.773  18.743  0.00  0.00    +0.000 A 
ATOM      5 BR   UNL     1       1.570   4.046  19.460  0.00  0.00    +0.000 Br
ATOM      6  C   UNL     1       4.420   4.169  18.934  0.00  0.00    +0.000 A 
ATOM      7  C   UNL     1       5.566   4.767  18.387  0.00  0.00    +0.000 A 
ENDROOT
BRANCH   1   9
ATOM      8  N   UNL     1       7.604   7.094  16.727  0.00  0.00    +0.000 NA
ATOM      9  C   UNL     1       6.647   6.588  17.140  0.00  0.00    +0.000 C 
ENDBRANCH   1   9
BRANCH   6  10
ATOM     10  C   UNL     1       4.575   2.960  19.691  0.00  0.00    +0.000 C 
ATOM     11  N   UNL     1       4.721   1.970  20.278  0.00  0.00    +0.000 NA
ENDBRANCH   6  10
TORSDOF 2
ENDMDL
MODEL 5
REMARK VINA RESULT:      -4.9      1.181      1.181
REMARK  Name = 
REMARK  2 active torsions:
REMARK  status: ('A' for Active; 'I' for Inactive)
REMARK    1  A    between atoms: C_2  and  C_3
REMARK    2  A    between atoms: C_8  and  C_9
REMARK                            x       y       z     vdW  Elec       q    Type
REMARK                         _______ _______ _______ _____ _____    ______ ____
ROOT
ATOM      1  C   UNL     1       5.668   5.317  16.554  0.00  0.00    +0.000 A 
ATOM      2  C   UNL     1       4.776   6.388  16.659  0.00  0.00    +0.000 A 
ATOM      3  C   UNL     1       3.817   6.406  17.676  0.00  0.00    +0.000 A 
ATOM      4  C   UNL     1       3.751   5.355  18.597  0.00  0.00    +0.000 A 
ATOM      5 BR   UNL     1       2.439   5.469  19.965  0.00  0.00    +0.000 Br
ATOM      6  C   UNL     1       4.635   4.274  18.496  0.00  0.00    +0.000 A 
ATOM      7  C   UNL     1       5.590   4.258  17.466  0.00  0.00    +0.000 A 
ENDROOT
BRANCH   1   9
ATOM      8  N   UNL     1       7.487   5.313  14.705  0.00  0.00    +0.000 NA
ATOM      9  C   UNL     1       6.669   5.313  15.527  0.00  0.00    +0.000 C 
ENDBRANCH   1   9
BRANCH   6  10
ATOM     10  C   UNL     1       4.614   3.180  19.424  0.00  0.00    +0.000 C 
ATOM     11  N   UNL     1       4.604   2.275  20.149  0.00  0.00    +0.000 NA
ENDBRANCH   6  10
TORSDOF 2
ENDMDL
MODEL 6
REMARK VINA RESULT:      -4.9      2.531      3.034
REMARK  Name = 
REMARK  2 active torsions:
REMARK  status: ('A' for Active; 'I' for Inactive)
REMARK    1  A    between atoms: C_2  and  C_3
REMARK    2  A    between atoms: C_8  and  C_9
REMARK                            x       y       z     vdW  Elec       q    Type
REMARK                         _______ _______ _______ _____ _____    ______ ____
ROOT
ATOM      1  C   UNL     1       5.089   4.043  18.077  0.00  0.00    +0.000 A 
ATOM      2  C   UNL     1       4.187   3.962  17.013  0.00  0.00    +0.000 A 
ATOM      3  C   UNL     1       2.884   3.503  17.230  0.00  0.00    +0.000 A 
ATOM      4  C   UNL     1       2.477   3.128  18.515  0.00  0.00    +0.000 A 
ATOM      5 BR   UNL     1       0.683   2.543  18.730  0.00  0.00    +0.000 Br
ATOM      6  C   UNL     1       3.376   3.199  19.586  0.00  0.00    +0.000 A 
ATOM      7  C   UNL     1       4.685   3.652  19.359  0.00  0.00    +0.000 A 
ENDROOT
BRANCH   1   9
ATOM      8  N   UNL     1       7.491   4.941  17.694  0.00  0.00    +0.000 NA
ATOM      9  C   UNL     1       6.416   4.540  17.859  0.00  0.00    +0.000 C 
ENDBRANCH   1   9
BRANCH   6  10
ATOM     10  C   UNL     1       2.999   2.838  20.923  0.00  0.00    +0.000 C 
ATOM     11  N   UNL     1       2.670   2.571  22.003  0.00  0.00    +0.000 NA
ENDBRANCH   6  10
TORSDOF 2
ENDMDL
MODEL 7
REMARK VINA RESULT:      -4.9      3.150      4.935
REMARK  Name = 
REMARK  2 active torsions:
REMARK  status: ('A' for Active; 'I' for Inactive)
REMARK    1  A    between atoms: C_2  and  C_3
REMARK    2  A    between atoms: C_8  and  C_9
REMARK                            x       y       z     vdW  Elec       q    Type
REMARK                         _______ _______ _______ _____ _____    ______ ____
ROOT
ATOM      1  C   UNL     1       2.954   4.224  18.836  0.00  0.00    +0.000 A 
ATOM      2  C   UNL     1       2.955   3.898  17.477  0.00  0.00    +0.000 A 
ATOM      3  C   UNL     1       4.130   4.014  16.729  0.00  0.00    +0.000 A 
ATOM      4  C   UNL     1       5.311   4.450  17.339  0.00  0.00    +0.000 A 
ATOM      5 BR   UNL     1       6.870   4.551  16.259  0.00  0.00    +0.000 Br
ATOM      6  C   UNL     1       5.319   4.785  18.699  0.00  0.00    +0.000 A 
ATOM      7  C   UNL     1       4.133   4.675  19.442  0.00  0.00    +0.000 A 
ENDROOT
BRANCH   1   9
ATOM      8  N   UNL     1       0.781   3.971  20.230  0.00  0.00    +0.000 NA
ATOM      9  C   UNL     1       1.755   4.079  19.610  0.00  0.00    +0.000 C 
ENDBRANCH   1   9
BRANCH   6  10
ATOM     10  C   UNL     1       6.509   5.223  19.370  0.00  0.00    +0.000 C 
ATOM     11  N   UNL     1       7.482   5.589  19.883  0.00  0.00    +0.000 NA
ENDBRANCH   6  10
TORSDOF 2
ENDMDL
MODEL 8
REMARK VINA RESULT:      -4.9      1.694      2.022
REMARK  Name = 
REMARK  2 active torsions:
REMARK  status: ('A' for Active; 'I' for Inactive)
REMARK    1  A    between atoms: C_2  and  C_3
REMARK    2  A    between atoms: C_8  and  C_9
REMARK                            x       y       z     vdW  Elec       q    Type
REMARK                         _______ _______ _______ _____ _____    ______ ____
ROOT
ATOM      1  C   UNL     1       4.544   4.327  16.995  0.00  0.00    +0.000 A 
ATOM      2  C   UNL     1       4.835   5.351  17.900  0.00  0.00    +0.000 A 
ATOM      3  C   UNL     1       3.978   5.602  18.975  0.00  0.00    +0.000 A 
ATOM      4  C   UNL     1       2.830   4.823  19.155  0.00  0.00    +0.000 A 
ATOM      5 BR   UNL     1       1.735   5.208  20.657  0.00  0.00    +0.000 Br
ATOM      6  C   UNL     1       2.526   3.798  18.249  0.00  0.00    +0.000 A 
ATOM      7  C   UNL     1       3.386   3.559  17.166  0.00  0.00    +0.000 A 
ENDROOT
BRANCH   1   9
ATOM      8  N   UNL     1       6.157   3.842  15.022  0.00  0.00    +0.000 NA
ATOM      9  C   UNL     1       5.438   4.052  15.907  0.00  0.00    +0.000 C 
ENDBRANCH   1   9
BRANCH   6  10
ATOM     10  C   UNL     1       1.368   2.965  18.400  0.00  0.00    +0.000 C 
ATOM     11  N   UNL     1       0.440   2.287  18.555  0.00  0.00    +0.000 NA
ENDBRANCH   6  10
TORSDOF 2
ENDMDL
MODEL 9
REMARK VINA RESULT:      -4.9      2.126      4.414
REMARK  Name = 
REMARK  2 active torsions:
REMARK  status: ('A' for Active; 'I' for Inactive)
REMARK    1  A    between atoms: C_2  and  C_3
REMARK    2  A    between atoms: C_8  and  C_9
REMARK                            x       y       z     vdW  Elec       q    Type
REMARK                         _______ _______ _______ _____ _____    ______ ____
ROOT
ATOM      1  C   UNL     1       2.334   3.930  18.080  0.00  0.00    +0.000 A 
ATOM      2  C   UNL     1       2.373   5.195  18.672  0.00  0.00    +0.000 A 
ATOM      3  C   UNL     1       3.412   6.080  18.370  0.00  0.00    +0.000 A 
ATOM      4  C   UNL     1       4.414   5.705  17.469  0.00  0.00    +0.000 A 
ATOM      5 BR   UNL     1       5.773   6.976  17.091  0.00  0.00    +0.000 Br
ATOM      6  C   UNL     1       4.388   4.437  16.875  0.00  0.00    +0.000 A 
ATOM      7  C   UNL     1       3.346   3.550  17.190  0.00  0.00    +0.000 A 
ENDROOT
BRANCH   1   9
ATOM      8  N   UNL     1       0.371   2.316  18.599  0.00  0.00    +0.000 NA
ATOM      9  C   UNL     1       1.253   3.033  18.368  0.00  0.00    +0.000 C 
ENDBRANCH   1   9
BRANCH   6  10
ATOM     10  C   UNL     1       5.386   4.014  15.935  0.00  0.00    +0.000 C 
ATOM     11  N   UNL     1       6.185   3.639  15.183  0.00  0.00    +0.000 NA
ENDBRANCH   6  10
TORSDOF 2
ENDMDL
