MODEL 1
REMARK VINA RESULT:      -8.0      0.000      0.000
REMARK  Name = 
REMARK  7 active torsions:
REMARK  status: ('A' for Active; 'I' for Inactive)
REMARK    1  A    between atoms: C_1  and  O_2
REMARK    2  A    between atoms: O_2  and  C_3
REMARK    3  A    between atoms: C_6  and  C_7
REMARK    4  A    between atoms: C_11  and  N_12
REMARK    5  A    between atoms: N_15  and  C_16
REMARK    6  A    between atoms: C_29  and  O_30
REMARK    7  A    between atoms: O_30  and  C_31
REMARK                            x       y       z     vdW  Elec       q    Type
REMARK                         _______ _______ _______ _____ _____    ______ ____
ROOT
ATOM      1  C   UNL     1       2.725   7.387  18.311  0.00  0.00    +0.000 A 
ATOM      2  C   UNL     1       2.351   8.604  17.689  0.00  0.00    +0.000 A 
ATOM      3  N   UNL     1       1.635   9.648  18.209  0.00  0.00    +0.000 NA
ATOM      4  C   UNL     1       1.246   9.426  19.502  0.00  0.00    +0.000 A 
ATOM      5  C   UNL     1       0.592  10.364  20.287  0.00  0.00    +0.000 A 
ATOM      6  S   UNL     1       0.362   9.616  21.827  0.00  0.00    +0.000 S 
ATOM      7  N   UNL     1       1.093   8.183  21.487  0.00  0.00    +0.000 NA
ATOM      8  C   UNL     1       1.557   8.199  20.233  0.00  0.00    +0.000 A 
ATOM      9  C   UNL     1       2.300   7.164  19.633  0.00  0.00    +0.000 A 
ENDROOT
BRANCH   1  13
ATOM     10  C   UNL     1       5.119   4.450  16.240  0.00  0.00    +0.000 A 
ATOM     11  C   UNL     1       5.312   5.820  16.034  0.00  0.00    +0.000 A 
ATOM     12  C   UNL     1       4.576   6.763  16.749  0.00  0.00    +0.000 A 
ATOM     13  C   UNL     1       3.565   6.376  17.638  0.00  0.00    +0.000 A 
ATOM     14  C   UNL     1       3.341   4.998  17.791  0.00  0.00    +0.000 A 
ATOM     15  C   UNL     1       4.100   4.032  17.105  0.00  0.00    +0.000 A 
BRANCH  10  17
ATOM     16  C   UNL     1       6.272   3.870  14.251  0.00  0.00    +0.000 C 
ATOM     17  O   UNL     1       5.886   3.527  15.582  0.00  0.00    +0.000 OA
ENDBRANCH  10  17
BRANCH  15  18
ATOM     18  O   UNL     1       3.704   2.758  17.419  0.00  0.00    +0.000 OA
ATOM     19  C   UNL     1       2.390   2.547  17.912  0.00  0.00    +0.000 C 
ENDBRANCH  15  18
ENDBRANCH   1  13
BRANCH   5  20
ATOM     20  N   UNL     1       0.195  11.642  19.993  0.00  0.00    +0.000 N 
ATOM     21  C   UNL     1      -1.113  11.945  19.394  0.00  0.00    +0.000 C 
ATOM     22  C   UNL     1      -1.784  13.133  20.129  0.00  0.00    +0.000 C 
ATOM     23  N   UNL     1      -0.852  14.271  20.186  0.00  0.00    +0.000 N 
ATOM     24  C   UNL     1       0.444  13.957  20.828  0.00  0.00    +0.000 C 
ATOM     25  C   UNL     1       1.119  12.782  20.094  0.00  0.00    +0.000 C 
BRANCH  23  26
ATOM     26  C   UNL     1      -1.228  15.567  19.917  0.00  0.00    +0.000 A 
ATOM     27  C   UNL     1      -2.285  16.197  20.582  0.00  0.00    +0.000 A 
ATOM     28  C   UNL     1      -2.629  17.499  20.244  0.00  0.00    +0.000 A 
ATOM     29  N   UNL     1      -2.011  18.218  19.287  0.00  0.00    +0.000 NA
ATOM     30  C   UNL     1      -1.003  17.599  18.642  0.00  0.00    +0.000 A 
ATOM     31  C   UNL     1      -0.588  16.308  18.923  0.00  0.00    +0.000 A 
ENDBRANCH  23  26
ENDBRANCH   5  20
TORSDOF 5
ENDMDL
MODEL 2
REMARK VINA RESULT:      -8.0      0.750      1.455
REMARK  Name = 
REMARK  7 active torsions:
REMARK  status: ('A' for Active; 'I' for Inactive)
REMARK    1  A    between atoms: C_1  and  O_2
REMARK    2  A    between atoms: O_2  and  C_3
REMARK    3  A    between atoms: C_6  and  C_7
REMARK    4  A    between atoms: C_11  and  N_12
REMARK    5  A    between atoms: N_15  and  C_16
REMARK    6  A    between atoms: C_29  and  O_30
REMARK    7  A    between atoms: O_30  and  C_31
REMARK                            x       y       z     vdW  Elec       q    Type
REMARK                         _______ _______ _______ _____ _____    ______ ____
ROOT
ATOM      1  C   UNL     1       2.747   7.453  18.379  0.00  0.00    +0.000 A 
ATOM      2  C   UNL     1       2.471   8.733  17.839  0.00  0.00    +0.000 A 
ATOM      3  N   UNL     1       1.756   9.761  18.392  0.00  0.00    +0.000 NA
ATOM      4  C   UNL     1       1.258   9.449  19.627  0.00  0.00    +0.000 A 
ATOM      5  C   UNL     1       0.579  10.347  20.440  0.00  0.00    +0.000 A 
ATOM      6  S   UNL     1       0.198   9.483  21.886  0.00  0.00    +0.000 S 
ATOM      7  N   UNL     1       0.899   8.052  21.479  0.00  0.00    +0.000 NA
ATOM      8  C   UNL     1       1.462   8.152  20.270  0.00  0.00    +0.000 A 
ATOM      9  C   UNL     1       2.209   7.139  19.640  0.00  0.00    +0.000 A 
ENDROOT
BRANCH   1  13
ATOM     10  C   UNL     1       5.173   4.583  16.251  0.00  0.00    +0.000 A 
ATOM     11  C   UNL     1       5.328   5.958  16.047  0.00  0.00    +0.000 A 
ATOM     12  C   UNL     1       4.583   6.880  16.780  0.00  0.00    +0.000 A 
ATOM     13  C   UNL     1       3.598   6.465  17.686  0.00  0.00    +0.000 A 
ATOM     14  C   UNL     1       3.411   5.081  17.837  0.00  0.00    +0.000 A 
ATOM     15  C   UNL     1       4.180   4.137  17.133  0.00  0.00    +0.000 A 
BRANCH  10  17
ATOM     16  C   UNL     1       6.286   4.030  14.233  0.00  0.00    +0.000 C 
ATOM     17  O   UNL     1       5.949   3.681  15.575  0.00  0.00    +0.000 OA
ENDBRANCH  10  17
BRANCH  15  18
ATOM     18  O   UNL     1       3.820   2.853  17.449  0.00  0.00    +0.000 OA
ATOM     19  C   UNL     1       2.761   2.639  18.368  0.00  0.00    +0.000 C 
ENDBRANCH  15  18
ENDBRANCH   1  13
BRANCH   5  20
ATOM     20  N   UNL     1       0.257  11.662  20.228  0.00  0.00    +0.000 N 
ATOM     21  C   UNL     1       0.719  12.740  21.113  0.00  0.00    +0.000 C 
ATOM     22  C   UNL     1       1.258  13.931  20.281  0.00  0.00    +0.000 C 
ATOM     23  N   UNL     1       0.253  14.336  19.285  0.00  0.00    +0.000 N 
ATOM     24  C   UNL     1      -0.170  13.247  18.377  0.00  0.00    +0.000 C 
ATOM     25  C   UNL     1      -0.716  12.064  19.201  0.00  0.00    +0.000 C 
BRANCH  23  26
ATOM     26  C   UNL     1      -0.074  15.649  19.035  0.00  0.00    +0.000 A 
ATOM     27  C   UNL     1       0.696  16.472  18.206  0.00  0.00    +0.000 A 
ATOM     28  C   UNL     1       0.323  17.796  18.018  0.00  0.00    +0.000 A 
ATOM     29  N   UNL     1      -0.748  18.369  18.600  0.00  0.00    +0.000 NA
ATOM     30  C   UNL     1      -1.476  17.573  19.408  0.00  0.00    +0.000 A 
ATOM     31  C   UNL     1      -1.182  16.241  19.643  0.00  0.00    +0.000 A 
ENDBRANCH  23  26
ENDBRANCH   5  20
TORSDOF 5
ENDMDL
MODEL 3
REMARK VINA RESULT:      -7.9      1.040      2.051
REMARK  Name = 
REMARK  7 active torsions:
REMARK  status: ('A' for Active; 'I' for Inactive)
REMARK    1  A    between atoms: C_1  and  O_2
REMARK    2  A    between atoms: O_2  and  C_3
REMARK    3  A    between atoms: C_6  and  C_7
REMARK    4  A    between atoms: C_11  and  N_12
REMARK    5  A    between atoms: N_15  and  C_16
REMARK    6  A    between atoms: C_29  and  O_30
REMARK    7  A    between atoms: O_30  and  C_31
REMARK                            x       y       z     vdW  Elec       q    Type
REMARK                         _______ _______ _______ _____ _____    ______ ____
ROOT
ATOM      1  C   UNL     1       2.476   7.604  18.645  0.00  0.00    +0.000 A 
ATOM      2  C   UNL     1       2.102   8.849  18.082  0.00  0.00    +0.000 A 
ATOM      3  N   UNL     1       1.381   9.864  18.651  0.00  0.00    +0.000 NA
ATOM      4  C   UNL     1       0.988   9.577  19.930  0.00  0.00    +0.000 A 
ATOM      5  C   UNL     1       0.328  10.474  20.758  0.00  0.00    +0.000 A 
ATOM      6  S   UNL     1       0.094   9.649  22.257  0.00  0.00    +0.000 S 
ATOM      7  N   UNL     1       0.830   8.236  21.849  0.00  0.00    +0.000 NA
ATOM      8  C   UNL     1       1.299   8.316  20.600  0.00  0.00    +0.000 A 
ATOM      9  C   UNL     1       2.046   7.314  19.952  0.00  0.00    +0.000 A 
ENDROOT
BRANCH   1  13
ATOM     10  C   UNL     1       4.974   4.701  16.648  0.00  0.00    +0.000 A 
ATOM     11  C   UNL     1       3.723   4.349  17.165  0.00  0.00    +0.000 A 
ATOM     12  C   UNL     1       2.898   5.303  17.756  0.00  0.00    +0.000 A 
ATOM     13  C   UNL     1       3.321   6.629  17.925  0.00  0.00    +0.000 A 
ATOM     14  C   UNL     1       4.602   6.955  17.454  0.00  0.00    +0.000 A 
ATOM     15  C   UNL     1       5.434   6.013  16.822  0.00  0.00    +0.000 A 
BRANCH  10  17
ATOM     16  C   UNL     1       5.898   3.941  14.602  0.00  0.00    +0.000 C 
ATOM     17  O   UNL     1       5.756   3.776  16.012  0.00  0.00    +0.000 OA
ENDBRANCH  10  17
BRANCH  15  18
ATOM     18  O   UNL     1       6.631   6.565  16.445  0.00  0.00    +0.000 OA
ATOM     19  C   UNL     1       7.505   7.063  17.445  0.00  0.00    +0.000 C 
ENDBRANCH  15  18
ENDBRANCH   1  13
BRANCH   5  20
ATOM     20  N   UNL     1      -0.070  11.764  20.526  0.00  0.00    +0.000 N 
ATOM     21  C   UNL     1       0.430  12.899  21.315  0.00  0.00    +0.000 C 
ATOM     22  C   UNL     1       0.832  14.071  20.384  0.00  0.00    +0.000 C 
ATOM     23  N   UNL     1      -0.283  14.391  19.479  0.00  0.00    +0.000 N 
ATOM     24  C   UNL     1      -0.745  13.246  18.664  0.00  0.00    +0.000 C 
ATOM     25  C   UNL     1      -1.156  12.081  19.586  0.00  0.00    +0.000 C 
BRANCH  23  26
ATOM     26  C   UNL     1      -0.689  15.678  19.209  0.00  0.00    +0.000 A 
ATOM     27  C   UNL     1      -1.678  16.327  19.954  0.00  0.00    +0.000 A 
ATOM     28  C   UNL     1      -2.060  17.617  19.611  0.00  0.00    +0.000 A 
ATOM     29  N   UNL     1      -1.542  18.307  18.577  0.00  0.00    +0.000 NA
ATOM     30  C   UNL     1      -0.600  17.669  17.855  0.00  0.00    +0.000 A 
ATOM     31  C   UNL     1      -0.154  16.388  18.134  0.00  0.00    +0.000 A 
ENDBRANCH  23  26
ENDBRANCH   5  20
TORSDOF 5
ENDMDL
MODEL 4
REMARK VINA RESULT:      -7.9      0.827      1.201
REMARK  Name = 
REMARK  7 active torsions:
REMARK  status: ('A' for Active; 'I' for Inactive)
REMARK    1  A    between atoms: C_1  and  O_2
REMARK    2  A    between atoms: O_2  and  C_3
REMARK    3  A    between atoms: C_6  and  C_7
REMARK    4  A    between atoms: C_11  and  N_12
REMARK    5  A    between atoms: N_15  and  C_16
REMARK    6  A    between atoms: C_29  and  O_30
REMARK    7  A    between atoms: O_30  and  C_31
REMARK                            x       y       z     vdW  Elec       q    Type
REMARK                         _______ _______ _______ _____ _____    ______ ____
ROOT
ATOM      1  C   UNL     1       2.371   7.682  18.727  0.00  0.00    +0.000 A 
ATOM      2  C   UNL     1       2.034   8.920  18.127  0.00  0.00    +0.000 A 
ATOM      3  N   UNL     1       1.340   9.972  18.663  0.00  0.00    +0.000 NA
ATOM      4  C   UNL     1       0.935   9.734  19.948  0.00  0.00    +0.000 A 
ATOM      5  C   UNL     1       0.298  10.673  20.747  0.00  0.00    +0.000 A 
ATOM      6  S   UNL     1       0.035   9.900  22.268  0.00  0.00    +0.000 S 
ATOM      7  N   UNL     1       0.733   8.455  21.905  0.00  0.00    +0.000 NA
ATOM      8  C   UNL     1       1.208   8.484  20.656  0.00  0.00    +0.000 A 
ATOM      9  C   UNL     1       1.928   7.444  20.041  0.00  0.00    +0.000 A 
ENDROOT
BRANCH   1  13
ATOM     10  C   UNL     1       4.715   4.735  16.613  0.00  0.00    +0.000 A 
ATOM     11  C   UNL     1       5.011   6.099  16.524  0.00  0.00    +0.000 A 
ATOM     12  C   UNL     1       4.288   7.039  17.255  0.00  0.00    +0.000 A 
ATOM     13  C   UNL     1       3.190   6.663  18.041  0.00  0.00    +0.000 A 
ATOM     14  C   UNL     1       2.866   5.297  18.074  0.00  0.00    +0.000 A 
ATOM     15  C   UNL     1       3.609   4.330  17.373  0.00  0.00    +0.000 A 
BRANCH  10  17
ATOM     16  C   UNL     1       6.237   4.302  14.849  0.00  0.00    +0.000 C 
ATOM     17  O   UNL     1       5.466   3.808  15.943  0.00  0.00    +0.000 OA
ENDBRANCH  10  17
BRANCH  15  18
ATOM     18  O   UNL     1       3.107   3.069  17.562  0.00  0.00    +0.000 OA
ATOM     19  C   UNL     1       1.838   2.917  18.176  0.00  0.00    +0.000 C 
ENDBRANCH  15  18
ENDBRANCH   1  13
BRANCH   5  20
ATOM     20  N   UNL     1      -0.063  11.966  20.475  0.00  0.00    +0.000 N 
ATOM     21  C   UNL     1       0.332  13.093  21.332  0.00  0.00    +0.000 C 
ATOM     22  C   UNL     1       0.856  14.271  20.470  0.00  0.00    +0.000 C 
ATOM     23  N   UNL     1      -0.130  14.602  19.430  0.00  0.00    +0.000 N 
ATOM     24  C   UNL     1      -0.485  13.465  18.552  0.00  0.00    +0.000 C 
ATOM     25  C   UNL     1      -1.016  12.294  19.404  0.00  0.00    +0.000 C 
BRANCH  23  26
ATOM     26  C   UNL     1      -0.494  15.892  19.120  0.00  0.00    +0.000 A 
ATOM     27  C   UNL     1      -1.492  16.581  19.817  0.00  0.00    +0.000 A 
ATOM     28  C   UNL     1      -1.828  17.873  19.434  0.00  0.00    +0.000 A 
ATOM     29  N   UNL     1      -1.258  18.527  18.404  0.00  0.00    +0.000 NA
ATOM     30  C   UNL     1      -0.308  17.851  17.730  0.00  0.00    +0.000 A 
ATOM     31  C   UNL     1       0.095  16.566  18.050  0.00  0.00    +0.000 A 
ENDBRANCH  23  26
ENDBRANCH   5  20
TORSDOF 5
ENDMDL
MODEL 5
REMARK VINA RESULT:      -7.7      4.601     10.791
REMARK  Name = 
REMARK  7 active torsions:
REMARK  status: ('A' for Active; 'I' for Inactive)
REMARK    1  A    between atoms: C_1  and  O_2
REMARK    2  A    between atoms: O_2  and  C_3
REMARK    3  A    between atoms: C_6  and  C_7
REMARK    4  A    between atoms: C_11  and  N_12
REMARK    5  A    between atoms: N_15  and  C_16
REMARK    6  A    between atoms: C_29  and  O_30
REMARK    7  A    between atoms: O_30  and  C_31
REMARK                            x       y       z     vdW  Elec       q    Type
REMARK                         _______ _______ _______ _____ _____    ______ ____
ROOT
ATOM      1  C   UNL     1       0.944   8.818  20.619  0.00  0.00    +0.000 A 
ATOM      2  C   UNL     1       1.576   8.939  19.357  0.00  0.00    +0.000 A 
ATOM      3  N   UNL     1       2.316   8.011  18.676  0.00  0.00    +0.000 NA
ATOM      4  C   UNL     1       2.437   6.832  19.359  0.00  0.00    +0.000 A 
ATOM      5  C   UNL     1       3.056   5.700  18.850  0.00  0.00    +0.000 A 
ATOM      6  S   UNL     1       2.911   4.489  20.072  0.00  0.00    +0.000 S 
ATOM      7  N   UNL     1       2.073   5.383  21.170  0.00  0.00    +0.000 NA
ATOM      8  C   UNL     1       1.845   6.605  20.677  0.00  0.00    +0.000 A 
ATOM      9  C   UNL     1       1.095   7.608  21.319  0.00  0.00    +0.000 A 
ENDROOT
BRANCH   1  13
ATOM     10  C   UNL     1      -1.577  11.888  22.314  0.00  0.00    +0.000 A 
ATOM     11  C   UNL     1      -1.138  10.804  23.081  0.00  0.00    +0.000 A 
ATOM     12  C   UNL     1      -0.278   9.848  22.544  0.00  0.00    +0.000 A 
ATOM     13  C   UNL     1       0.114   9.894  21.199  0.00  0.00    +0.000 A 
ATOM     14  C   UNL     1      -0.382  10.954  20.425  0.00  0.00    +0.000 A 
ATOM     15  C   UNL     1      -1.221  11.948  20.960  0.00  0.00    +0.000 A 
BRANCH  10  17
ATOM     16  C   UNL     1      -3.778  12.610  22.820  0.00  0.00    +0.000 C 
ATOM     17  O   UNL     1      -2.372  12.858  22.860  0.00  0.00    +0.000 OA
ENDBRANCH  10  17
BRANCH  15  18
ATOM     18  O   UNL     1      -1.571  12.879  20.017  0.00  0.00    +0.000 OA
ATOM     19  C   UNL     1      -0.784  13.001  18.843  0.00  0.00    +0.000 C 
ENDBRANCH  15  18
ENDBRANCH   1  13
BRANCH   5  20
ATOM     20  N   UNL     1       3.660   5.492  17.637  0.00  0.00    +0.000 N 
ATOM     21  C   UNL     1       4.318   6.572  16.887  0.00  0.00    +0.000 C 
ATOM     22  C   UNL     1       5.699   6.104  16.362  0.00  0.00    +0.000 C 
ATOM     23  N   UNL     1       5.546   4.841  15.622  0.00  0.00    +0.000 N 
ATOM     24  C   UNL     1       4.919   3.755  16.406  0.00  0.00    +0.000 C 
ATOM     25  C   UNL     1       3.540   4.213  16.922  0.00  0.00    +0.000 C 
BRANCH  23  26
ATOM     26  C   UNL     1       6.159   4.597  14.414  0.00  0.00    +0.000 A 
ATOM     27  C   UNL     1       7.305   5.283  13.999  0.00  0.00    +0.000 A 
ATOM     28  C   UNL     1       7.858   5.006  12.756  0.00  0.00    +0.000 A 
ATOM     29  N   UNL     1       7.352   4.108  11.889  0.00  0.00    +0.000 NA
ATOM     30  C   UNL     1       6.241   3.461  12.291  0.00  0.00    +0.000 A 
ATOM     31  C   UNL     1       5.631   3.669  13.517  0.00  0.00    +0.000 A 
ENDBRANCH  23  26
ENDBRANCH   5  20
TORSDOF 5
ENDMDL
MODEL 6
REMARK VINA RESULT:      -7.7      0.882      1.980
REMARK  Name = 
REMARK  7 active torsions:
REMARK  status: ('A' for Active; 'I' for Inactive)
REMARK    1  A    between atoms: C_1  and  O_2
REMARK    2  A    between atoms: O_2  and  C_3
REMARK    3  A    between atoms: C_6  and  C_7
REMARK    4  A    between atoms: C_11  and  N_12
REMARK    5  A    between atoms: N_15  and  C_16
REMARK    6  A    between atoms: C_29  and  O_30
REMARK    7  A    between atoms: O_30  and  C_31
REMARK                            x       y       z     vdW  Elec       q    Type
REMARK                         _______ _______ _______ _____ _____    ______ ____
ROOT
ATOM      1  C   UNL     1       2.566   7.619  18.470  0.00  0.00    +0.000 A 
ATOM      2  C   UNL     1       2.159   8.814  17.826  0.00  0.00    +0.000 A 
ATOM      3  N   UNL     1       1.412   9.846  18.327  0.00  0.00    +0.000 NA
ATOM      4  C   UNL     1       1.027   9.636  19.623  0.00  0.00    +0.000 A 
ATOM      5  C   UNL     1       0.345  10.569  20.391  0.00  0.00    +0.000 A 
ATOM      6  S   UNL     1       0.133   9.841  21.943  0.00  0.00    +0.000 S 
ATOM      7  N   UNL     1       0.906   8.423  21.629  0.00  0.00    +0.000 NA
ATOM      8  C   UNL     1       1.372   8.430  20.376  0.00  0.00    +0.000 A 
ATOM      9  C   UNL     1       2.144   7.408  19.795  0.00  0.00    +0.000 A 
ENDROOT
BRANCH   1  13
ATOM     10  C   UNL     1       5.134   4.652  16.667  0.00  0.00    +0.000 A 
ATOM     11  C   UNL     1       3.874   4.312  17.172  0.00  0.00    +0.000 A 
ATOM     12  C   UNL     1       3.027   5.285  17.699  0.00  0.00    +0.000 A 
ATOM     13  C   UNL     1       3.435   6.620  17.816  0.00  0.00    +0.000 A 
ATOM     14  C   UNL     1       4.725   6.937  17.360  0.00  0.00    +0.000 A 
ATOM     15  C   UNL     1       5.579   5.975  16.790  0.00  0.00    +0.000 A 
BRANCH  10  17
ATOM     16  C   UNL     1       6.123   3.815  14.682  0.00  0.00    +0.000 C 
ATOM     17  O   UNL     1       5.939   3.706  16.093  0.00  0.00    +0.000 OA
ENDBRANCH  10  17
BRANCH  15  18
ATOM     18  O   UNL     1       6.779   6.520  16.416  0.00  0.00    +0.000 OA
ATOM     19  C   UNL     1       7.544   7.229  17.378  0.00  0.00    +0.000 C 
ENDBRANCH  15  18
ENDBRANCH   1  13
BRANCH   5  20
ATOM     20  N   UNL     1      -0.087  11.829  20.073  0.00  0.00    +0.000 N 
ATOM     21  C   UNL     1      -1.491  12.125  19.751  0.00  0.00    +0.000 C 
ATOM     22  C   UNL     1      -1.963  13.396  20.502  0.00  0.00    +0.000 C 
ATOM     23  N   UNL     1      -1.024  14.500  20.247  0.00  0.00    +0.000 N 
ATOM     24  C   UNL     1       0.377  14.198  20.615  0.00  0.00    +0.000 C 
ATOM     25  C   UNL     1       0.854  12.940  19.863  0.00  0.00    +0.000 C 
BRANCH  23  26
ATOM     26  C   UNL     1      -1.430  15.781  19.949  0.00  0.00    +0.000 A 
ATOM     27  C   UNL     1      -0.775  16.578  19.004  0.00  0.00    +0.000 A 
ATOM     28  C   UNL     1      -1.221  17.872  18.770  0.00  0.00    +0.000 A 
ATOM     29  N   UNL     1      -2.260  18.439  19.413  0.00  0.00    +0.000 NA
ATOM     30  C   UNL     1      -2.876  17.669  20.332  0.00  0.00    +0.000 A 
ATOM     31  C   UNL     1      -2.503  16.367  20.619  0.00  0.00    +0.000 A 
ENDBRANCH  23  26
ENDBRANCH   5  20
TORSDOF 5
ENDMDL
MODEL 7
REMARK VINA RESULT:      -7.4      2.122      3.145
REMARK  Name = 
REMARK  7 active torsions:
REMARK  status: ('A' for Active; 'I' for Inactive)
REMARK    1  A    between atoms: C_1  and  O_2
REMARK    2  A    between atoms: O_2  and  C_3
REMARK    3  A    between atoms: C_6  and  C_7
REMARK    4  A    between atoms: C_11  and  N_12
REMARK    5  A    between atoms: N_15  and  C_16
REMARK    6  A    between atoms: C_29  and  O_30
REMARK    7  A    between atoms: O_30  and  C_31
REMARK                            x       y       z     vdW  Elec       q    Type
REMARK                         _______ _______ _______ _____ _____    ______ ____
ROOT
ATOM      1  C   UNL     1       1.546   7.523  20.344  0.00  0.00    +0.000 A 
ATOM      2  C   UNL     1       1.719   8.637  19.485  0.00  0.00    +0.000 A 
ATOM      3  N   UNL     1       1.248   9.914  19.632  0.00  0.00    +0.000 NA
ATOM      4  C   UNL     1       0.511  10.075  20.773  0.00  0.00    +0.000 A 
ATOM      5  C   UNL     1       0.002  11.292  21.203  0.00  0.00    +0.000 A 
ATOM      6  S   UNL     1      -0.807  10.967  22.694  0.00  0.00    +0.000 S 
ATOM      7  N   UNL     1      -0.484   9.356  22.774  0.00  0.00    +0.000 NA
ATOM      8  C   UNL     1       0.251   8.990  21.719  0.00  0.00    +0.000 A 
ATOM      9  C   UNL     1       0.768   7.699  21.503  0.00  0.00    +0.000 A 
ENDROOT
BRANCH   1  13
ATOM     10  C   UNL     1       3.456   3.707  19.686  0.00  0.00    +0.000 A 
ATOM     11  C   UNL     1       2.474   3.867  20.669  0.00  0.00    +0.000 A 
ATOM     12  C   UNL     1       1.820   5.086  20.836  0.00  0.00    +0.000 A 
ATOM     13  C   UNL     1       2.177   6.214  20.084  0.00  0.00    +0.000 A 
ATOM     14  C   UNL     1       3.205   6.054  19.142  0.00  0.00    +0.000 A 
ATOM     15  C   UNL     1       3.850   4.821  18.934  0.00  0.00    +0.000 A 
BRANCH  10  17
ATOM     16  C   UNL     1       3.510   1.700  18.425  0.00  0.00    +0.000 C 
ATOM     17  O   UNL     1       4.052   2.492  19.481  0.00  0.00    +0.000 OA
ENDBRANCH  10  17
BRANCH  15  18
ATOM     18  O   UNL     1       4.813   4.910  17.963  0.00  0.00    +0.000 OA
ATOM     19  C   UNL     1       6.179   4.838  18.338  0.00  0.00    +0.000 C 
ENDBRANCH  15  18
ENDBRANCH   1  13
BRANCH   5  20
ATOM     20  N   UNL     1       0.094  12.537  20.640  0.00  0.00    +0.000 N 
ATOM     21  C   UNL     1       0.390  13.742  21.429  0.00  0.00    +0.000 C 
ATOM     22  C   UNL     1       1.469  14.601  20.722  0.00  0.00    +0.000 C 
ATOM     23  N   UNL     1       1.064  14.858  19.331  0.00  0.00    +0.000 N 
ATOM     24  C   UNL     1       0.810  13.633  18.541  0.00  0.00    +0.000 C 
ATOM     25  C   UNL     1      -0.270  12.779  19.235  0.00  0.00    +0.000 C 
BRANCH  23  26
ATOM     26  C   UNL     1       1.167  16.093  18.732  0.00  0.00    +0.000 A 
ATOM     27  C   UNL     1       0.241  17.117  18.954  0.00  0.00    +0.000 A 
ATOM     28  C   UNL     1       0.390  18.331  18.297  0.00  0.00    +0.000 A 
ATOM     29  N   UNL     1       1.381  18.600  17.426  0.00  0.00    +0.000 NA
ATOM     30  C   UNL     1       2.261  17.604  17.207  0.00  0.00    +0.000 A 
ATOM     31  C   UNL     1       2.193  16.368  17.827  0.00  0.00    +0.000 A 
ENDBRANCH  23  26
ENDBRANCH   5  20
TORSDOF 5
ENDMDL
MODEL 8
REMARK VINA RESULT:      -7.3      1.920      2.920
REMARK  Name = 
REMARK  7 active torsions:
REMARK  status: ('A' for Active; 'I' for Inactive)
REMARK    1  A    between atoms: C_1  and  O_2
REMARK    2  A    between atoms: O_2  and  C_3
REMARK    3  A    between atoms: C_6  and  C_7
REMARK    4  A    between atoms: C_11  and  N_12
REMARK    5  A    between atoms: N_15  and  C_16
REMARK    6  A    between atoms: C_29  and  O_30
REMARK    7  A    between atoms: O_30  and  C_31
REMARK                            x       y       z     vdW  Elec       q    Type
REMARK                         _______ _______ _______ _____ _____    ______ ____
ROOT
ATOM      1  C   UNL     1       1.866   7.122  20.133  0.00  0.00    +0.000 A 
ATOM      2  C   UNL     1       2.145   8.164  19.214  0.00  0.00    +0.000 A 
ATOM      3  N   UNL     1       1.740   9.472  19.253  0.00  0.00    +0.000 NA
ATOM      4  C   UNL     1       0.957   9.747  20.340  0.00  0.00    +0.000 A 
ATOM      5  C   UNL     1       0.496  11.016  20.662  0.00  0.00    +0.000 A 
ATOM      6  S   UNL     1      -0.405  10.835  22.125  0.00  0.00    +0.000 S 
ATOM      7  N   UNL     1      -0.177   9.219  22.325  0.00  0.00    +0.000 NA
ATOM      8  C   UNL     1       0.588   8.744  21.337  0.00  0.00    +0.000 A 
ATOM      9  C   UNL     1       1.042   7.416  21.233  0.00  0.00    +0.000 A 
ENDROOT
BRANCH   1  13
ATOM     10  C   UNL     1       3.576   3.168  19.833  0.00  0.00    +0.000 A 
ATOM     11  C   UNL     1       2.459   3.417  20.637  0.00  0.00    +0.000 A 
ATOM     12  C   UNL     1       1.877   4.682  20.683  0.00  0.00    +0.000 A 
ATOM     13  C   UNL     1       2.434   5.766  19.992  0.00  0.00    +0.000 A 
ATOM     14  C   UNL     1       3.591   5.516  19.236  0.00  0.00    +0.000 A 
ATOM     15  C   UNL     1       4.169   4.237  19.148  0.00  0.00    +0.000 A 
BRANCH  10  17
ATOM     16  C   UNL     1       3.749   1.164  18.578  0.00  0.00    +0.000 C 
ATOM     17  O   UNL     1       4.108   1.911  19.740  0.00  0.00    +0.000 OA
ENDBRANCH  10  17
BRANCH  15  18
ATOM     18  O   UNL     1       5.284   4.238  18.350  0.00  0.00    +0.000 OA
ATOM     19  C   UNL     1       5.643   5.429  17.669  0.00  0.00    +0.000 C 
ENDBRANCH  15  18
ENDBRANCH   1  13
BRANCH   5  20
ATOM     20  N   UNL     1       0.686  12.214  20.025  0.00  0.00    +0.000 N 
ATOM     21  C   UNL     1      -0.011  12.565  18.779  0.00  0.00    +0.000 C 
ATOM     22  C   UNL     1      -0.575  14.007  18.862  0.00  0.00    +0.000 C 
ATOM     23  N   UNL     1       0.497  14.937  19.254  0.00  0.00    +0.000 N 
ATOM     24  C   UNL     1       1.159  14.589  20.531  0.00  0.00    +0.000 C 
ATOM     25  C   UNL     1       1.729  13.159  20.450  0.00  0.00    +0.000 C 
BRANCH  23  26
ATOM     26  C   UNL     1       0.696  16.156  18.648  0.00  0.00    +0.000 A 
ATOM     27  C   UNL     1      -0.261  17.175  18.675  0.00  0.00    +0.000 A 
ATOM     28  C   UNL     1      -0.006  18.373  18.020  0.00  0.00    +0.000 A 
ATOM     29  N   UNL     1       1.121  18.630  17.330  0.00  0.00    +0.000 NA
ATOM     30  C   UNL     1       2.032  17.637  17.297  0.00  0.00    +0.000 A 
ATOM     31  C   UNL     1       1.863  16.418  17.931  0.00  0.00    +0.000 A 
ENDBRANCH  23  26
ENDBRANCH   5  20
TORSDOF 5
ENDMDL
MODEL 9
REMARK VINA RESULT:      -7.1      2.541      3.772
REMARK  Name = 
REMARK  7 active torsions:
REMARK  status: ('A' for Active; 'I' for Inactive)
REMARK    1  A    between atoms: C_1  and  O_2
REMARK    2  A    between atoms: O_2  and  C_3
REMARK    3  A    between atoms: C_6  and  C_7
REMARK    4  A    between atoms: C_11  and  N_12
REMARK    5  A    between atoms: N_15  and  C_16
REMARK    6  A    between atoms: C_29  and  O_30
REMARK    7  A    between atoms: O_30  and  C_31
REMARK                            x       y       z     vdW  Elec       q    Type
REMARK                         _______ _______ _______ _____ _____    ______ ____
ROOT
ATOM      1  C   UNL     1       1.930   7.306  19.882  0.00  0.00    +0.000 A 
ATOM      2  C   UNL     1       1.066   7.737  20.919  0.00  0.00    +0.000 A 
ATOM      3  N   UNL     1       0.459   8.954  21.078  0.00  0.00    +0.000 NA
ATOM      4  C   UNL     1       0.772   9.832  20.077  0.00  0.00    +0.000 A 
ATOM      5  C   UNL     1       0.215  11.097  19.952  0.00  0.00    +0.000 A 
ATOM      6  S   UNL     1       0.905  11.780  18.524  0.00  0.00    +0.000 S 
ATOM      7  N   UNL     1       1.840  10.496  18.095  0.00  0.00    +0.000 NA
ATOM      8  C   UNL     1       1.670   9.501  18.971  0.00  0.00    +0.000 A 
ATOM      9  C   UNL     1       2.261   8.227  18.873  0.00  0.00    +0.000 A 
ENDROOT
BRANCH   1  13
ATOM     10  C   UNL     1       3.482   3.277  19.793  0.00  0.00    +0.000 A 
ATOM     11  C   UNL     1       2.164   3.539  20.180  0.00  0.00    +0.000 A 
ATOM     12  C   UNL     1       1.652   4.834  20.150  0.00  0.00    +0.000 A 
ATOM     13  C   UNL     1       2.459   5.929  19.810  0.00  0.00    +0.000 A 
ATOM     14  C   UNL     1       3.797   5.659  19.481  0.00  0.00    +0.000 A 
ATOM     15  C   UNL     1       4.320   4.353  19.470  0.00  0.00    +0.000 A 
BRANCH  10  17
ATOM     16  C   UNL     1       3.704   1.259  18.569  0.00  0.00    +0.000 C 
ATOM     17  O   UNL     1       3.964   1.996  19.763  0.00  0.00    +0.000 OA
ENDBRANCH  10  17
BRANCH  15  18
ATOM     18  O   UNL     1       5.643   4.339  19.114  0.00  0.00    +0.000 OA
ATOM     19  C   UNL     1       6.000   4.644  17.775  0.00  0.00    +0.000 C 
ENDBRANCH  15  18
ENDBRANCH   1  13
BRANCH   5  20
ATOM     20  N   UNL     1      -0.708  11.738  20.736  0.00  0.00    +0.000 N 
ATOM     21  C   UNL     1      -0.516  11.938  22.180  0.00  0.00    +0.000 C 
ATOM     22  C   UNL     1      -0.867  13.395  22.576  0.00  0.00    +0.000 C 
ATOM     23  N   UNL     1      -2.210  13.735  22.078  0.00  0.00    +0.000 N 
ATOM     24  C   UNL     1      -2.371  13.566  20.617  0.00  0.00    +0.000 C 
ATOM     25  C   UNL     1      -2.033  12.115  20.219  0.00  0.00    +0.000 C 
BRANCH  23  26
ATOM     26  C   UNL     1      -3.148  14.398  22.834  0.00  0.00    +0.000 A 
ATOM     27  C   UNL     1      -4.471  13.959  22.947  0.00  0.00    +0.000 A 
ATOM     28  C   UNL     1      -5.374  14.691  23.706  0.00  0.00    +0.000 A 
ATOM     29  N   UNL     1      -5.067  15.833  24.351  0.00  0.00    +0.000 NA
ATOM     30  C   UNL     1      -3.794  16.256  24.226  0.00  0.00    +0.000 A 
ATOM     31  C   UNL     1      -2.827  15.582  23.498  0.00  0.00    +0.000 A 
ENDBRANCH  23  26
ENDBRANCH   5  20
TORSDOF 5
ENDMDL
