MODEL 1
REMARK VINA RESULT:      -6.5      0.000      0.000
REMARK  Name = 
REMARK  10 active torsions:
REMARK  status: ('A' for Active; 'I' for Inactive)
REMARK    1  A    between atoms: C_1  and  O_2
REMARK    2  A    between atoms: O_2  and  C_3
REMARK    3  A    between atoms: C_6  and  S_7
REMARK    4  A    between atoms: S_7  and  C_8
REMARK    5  A    between atoms: C_10  and  O_11
REMARK    6  A    between atoms: O_11  and  C_12
REMARK    7  A    between atoms: C_13  and  O_14
REMARK    8  A    between atoms: O_14  and  C_15
REMARK    9  A    between atoms: C_16  and  O_17
REMARK   10  A    between atoms: O_17  and  C_18
REMARK                            x       y       z     vdW  Elec       q    Type
REMARK                         _______ _______ _______ _____ _____    ______ ____
ROOT
ATOM      1  C   UNL     1       3.048   6.485  18.049  0.00  0.00    +0.000 A 
ATOM      2  C   UNL     1       2.151   5.433  17.887  0.00  0.00    +0.000 A 
ATOM      3  C   UNL     1       2.560   4.105  18.041  0.00  0.00    +0.000 A 
ATOM      4  C   UNL     1       3.895   3.814  18.388  0.00  0.00    +0.000 A 
ATOM      5  C   UNL     1       4.815   4.870  18.555  0.00  0.00    +0.000 A 
ATOM      6  C   UNL     1       4.382   6.193  18.367  0.00  0.00    +0.000 A 
ENDROOT
BRANCH   3   7
ATOM      7  O   UNL     1       1.707   3.038  17.881  0.00  0.00    +0.000 OA
ATOM      8  C   UNL     1       0.785   2.802  18.942  0.00  0.00    +0.000 C 
ENDBRANCH   3   7
BRANCH   4   9
ATOM      9  O   UNL     1       4.163   2.482  18.608  0.00  0.00    +0.000 OA
ATOM     10  C   UNL     1       4.328   2.068  19.957  0.00  0.00    +0.000 C 
ENDBRANCH   4   9
BRANCH   5  11
ATOM     11  O   UNL     1       6.096   4.545  18.921  0.00  0.00    +0.000 OA
ATOM     12  C   UNL     1       7.166   4.926  18.066  0.00  0.00    +0.000 C 
ENDBRANCH   5  11
BRANCH   1  13
ATOM     13  S   UNL     1       2.561   8.193  17.801  0.00  0.00    +0.000 S 
BRANCH  13  17
ATOM     14  C   UNL     1       0.143   9.175  21.588  0.00  0.00    +0.000 A 
ATOM     15  C   UNL     1       1.050   8.115  21.578  0.00  0.00    +0.000 A 
ATOM     16  C   UNL     1       1.794   7.815  20.431  0.00  0.00    +0.000 A 
ATOM     17  C   UNL     1       1.625   8.576  19.272  0.00  0.00    +0.000 A 
ATOM     18  C   UNL     1       0.717   9.644  19.283  0.00  0.00    +0.000 A 
ATOM     19  C   UNL     1      -0.029   9.935  20.433  0.00  0.00    +0.000 A 
BRANCH  14  21
ATOM     20  C   UNL     1      -1.013  10.657  23.030  0.00  0.00    +0.000 C 
ATOM     21  O   UNL     1      -0.538   9.342  22.762  0.00  0.00    +0.000 OA
ENDBRANCH  14  21
ENDBRANCH  13  17
ENDBRANCH   1  13
TORSDOF 6
ENDMDL
MODEL 2
REMARK VINA RESULT:      -6.4      0.231      2.763
REMARK  Name = 
REMARK  10 active torsions:
REMARK  status: ('A' for Active; 'I' for Inactive)
REMARK    1  A    between atoms: C_1  and  O_2
REMARK    2  A    between atoms: O_2  and  C_3
REMARK    3  A    between atoms: C_6  and  S_7
REMARK    4  A    between atoms: S_7  and  C_8
REMARK    5  A    between atoms: C_10  and  O_11
REMARK    6  A    between atoms: O_11  and  C_12
REMARK    7  A    between atoms: C_13  and  O_14
REMARK    8  A    between atoms: O_14  and  C_15
REMARK    9  A    between atoms: C_16  and  O_17
REMARK   10  A    between atoms: O_17  and  C_18
REMARK                            x       y       z     vdW  Elec       q    Type
REMARK                         _______ _______ _______ _____ _____    ______ ____
ROOT
ATOM      1  C   UNL     1       3.142   6.520  18.100  0.00  0.00    +0.000 A 
ATOM      2  C   UNL     1       4.471   6.192  18.358  0.00  0.00    +0.000 A 
ATOM      3  C   UNL     1       4.850   4.875  18.631  0.00  0.00    +0.000 A 
ATOM      4  C   UNL     1       3.884   3.848  18.627  0.00  0.00    +0.000 A 
ATOM      5  C   UNL     1       2.534   4.165  18.367  0.00  0.00    +0.000 A 
ATOM      6  C   UNL     1       2.178   5.502  18.123  0.00  0.00    +0.000 A 
ENDROOT
BRANCH   3   7
ATOM      7  O   UNL     1       6.150   4.512  18.900  0.00  0.00    +0.000 OA
ATOM      8  C   UNL     1       7.098   4.752  17.864  0.00  0.00    +0.000 C 
ENDBRANCH   3   7
BRANCH   4   9
ATOM      9  O   UNL     1       4.382   2.579  18.813  0.00  0.00    +0.000 OA
ATOM     10  C   UNL     1       4.386   2.072  20.141  0.00  0.00    +0.000 C 
ENDBRANCH   4   9
BRANCH   5  11
ATOM     11  O   UNL     1       1.632   3.132  18.345  0.00  0.00    +0.000 OA
ATOM     12  C   UNL     1       0.803   2.927  19.481  0.00  0.00    +0.000 C 
ENDBRANCH   5  11
BRANCH   1  13
ATOM     13  S   UNL     1       2.622   8.210  17.803  0.00  0.00    +0.000 S 
BRANCH  13  17
ATOM     14  C   UNL     1       0.057   9.205  21.488  0.00  0.00    +0.000 A 
ATOM     15  C   UNL     1       1.005   8.183  21.536  0.00  0.00    +0.000 A 
ATOM     16  C   UNL     1       1.794   7.879  20.420  0.00  0.00    +0.000 A 
ATOM     17  C   UNL     1       1.629   8.598  19.234  0.00  0.00    +0.000 A 
ATOM     18  C   UNL     1       0.679   9.628  19.187  0.00  0.00    +0.000 A 
ATOM     19  C   UNL     1      -0.112   9.923  20.306  0.00  0.00    +0.000 A 
BRANCH  14  21
ATOM     20  C   UNL     1      -0.958  10.724  22.995  0.00  0.00    +0.000 C 
ATOM     21  O   UNL     1      -0.666   9.379  22.636  0.00  0.00    +0.000 OA
ENDBRANCH  14  21
ENDBRANCH  13  17
ENDBRANCH   1  13
TORSDOF 6
ENDMDL
MODEL 3
REMARK VINA RESULT:      -6.4      0.534      1.164
REMARK  Name = 
REMARK  10 active torsions:
REMARK  status: ('A' for Active; 'I' for Inactive)
REMARK    1  A    between atoms: C_1  and  O_2
REMARK    2  A    between atoms: O_2  and  C_3
REMARK    3  A    between atoms: C_6  and  S_7
REMARK    4  A    between atoms: S_7  and  C_8
REMARK    5  A    between atoms: C_10  and  O_11
REMARK    6  A    between atoms: O_11  and  C_12
REMARK    7  A    between atoms: C_13  and  O_14
REMARK    8  A    between atoms: O_14  and  C_15
REMARK    9  A    between atoms: C_16  and  O_17
REMARK   10  A    between atoms: O_17  and  C_18
REMARK                            x       y       z     vdW  Elec       q    Type
REMARK                         _______ _______ _______ _____ _____    ______ ____
ROOT
ATOM      1  C   UNL     1       2.862   6.387  18.140  0.00  0.00    +0.000 A 
ATOM      2  C   UNL     1       2.029   5.277  18.032  0.00  0.00    +0.000 A 
ATOM      3  C   UNL     1       2.510   3.987  18.275  0.00  0.00    +0.000 A 
ATOM      4  C   UNL     1       3.853   3.796  18.657  0.00  0.00    +0.000 A 
ATOM      5  C   UNL     1       4.709   4.912  18.770  0.00  0.00    +0.000 A 
ATOM      6  C   UNL     1       4.204   6.194  18.494  0.00  0.00    +0.000 A 
ENDROOT
BRANCH   3   7
ATOM      7  O   UNL     1       1.722   2.864  18.170  0.00  0.00    +0.000 OA
ATOM      8  C   UNL     1       0.713   2.707  19.164  0.00  0.00    +0.000 C 
ENDBRANCH   3   7
BRANCH   4   9
ATOM      9  O   UNL     1       4.194   2.498  18.963  0.00  0.00    +0.000 OA
ATOM     10  C   UNL     1       4.298   2.162  20.340  0.00  0.00    +0.000 C 
ENDBRANCH   4   9
BRANCH   5  11
ATOM     11  O   UNL     1       6.000   4.685  19.173  0.00  0.00    +0.000 OA
ATOM     12  C   UNL     1       6.957   5.724  19.011  0.00  0.00    +0.000 C 
ENDBRANCH   5  11
BRANCH   1  13
ATOM     13  S   UNL     1       2.283   8.046  17.780  0.00  0.00    +0.000 S 
BRANCH  13  17
ATOM     14  C   UNL     1       0.774   9.563  21.851  0.00  0.00    +0.000 A 
ATOM     15  C   UNL     1       0.729  10.385  20.725  0.00  0.00    +0.000 A 
ATOM     16  C   UNL     1       1.181   9.927  19.481  0.00  0.00    +0.000 A 
ATOM     17  C   UNL     1       1.694   8.634  19.360  0.00  0.00    +0.000 A 
ATOM     18  C   UNL     1       1.736   7.807  20.490  0.00  0.00    +0.000 A 
ATOM     19  C   UNL     1       1.288   8.273  21.734  0.00  0.00    +0.000 A 
BRANCH  14  21
ATOM     20  C   UNL     1      -1.010  10.620  22.995  0.00  0.00    +0.000 C 
ATOM     21  O   UNL     1       0.330  10.142  23.008  0.00  0.00    +0.000 OA
ENDBRANCH  14  21
ENDBRANCH  13  17
ENDBRANCH   1  13
TORSDOF 6
ENDMDL
MODEL 4
REMARK VINA RESULT:      -6.3      0.208      2.943
REMARK  Name = 
REMARK  10 active torsions:
REMARK  status: ('A' for Active; 'I' for Inactive)
REMARK    1  A    between atoms: C_1  and  O_2
REMARK    2  A    between atoms: O_2  and  C_3
REMARK    3  A    between atoms: C_6  and  S_7
REMARK    4  A    between atoms: S_7  and  C_8
REMARK    5  A    between atoms: C_10  and  O_11
REMARK    6  A    between atoms: O_11  and  C_12
REMARK    7  A    between atoms: C_13  and  O_14
REMARK    8  A    between atoms: O_14  and  C_15
REMARK    9  A    between atoms: C_16  and  O_17
REMARK   10  A    between atoms: O_17  and  C_18
REMARK                            x       y       z     vdW  Elec       q    Type
REMARK                         _______ _______ _______ _____ _____    ______ ____
ROOT
ATOM      1  C   UNL     1       2.986   6.628  18.092  0.00  0.00    +0.000 A 
ATOM      2  C   UNL     1       4.279   6.328  18.513  0.00  0.00    +0.000 A 
ATOM      3  C   UNL     1       4.679   5.006  18.728  0.00  0.00    +0.000 A 
ATOM      4  C   UNL     1       3.774   3.949  18.499  0.00  0.00    +0.000 A 
ATOM      5  C   UNL     1       2.461   4.239  18.073  0.00  0.00    +0.000 A 
ATOM      6  C   UNL     1       2.079   5.579  17.891  0.00  0.00    +0.000 A 
ENDROOT
BRANCH   3   7
ATOM      7  O   UNL     1       5.943   4.668  19.152  0.00  0.00    +0.000 OA
ATOM      8  C   UNL     1       6.994   4.849  18.207  0.00  0.00    +0.000 C 
ENDBRANCH   3   7
BRANCH   4   9
ATOM      9  O   UNL     1       4.301   2.687  18.651  0.00  0.00    +0.000 OA
ATOM     10  C   UNL     1       4.268   2.123  19.955  0.00  0.00    +0.000 C 
ENDBRANCH   4   9
BRANCH   5  11
ATOM     11  O   UNL     1       1.622   3.180  17.835  0.00  0.00    +0.000 OA
ATOM     12  C   UNL     1       0.812   2.701  18.899  0.00  0.00    +0.000 C 
ENDBRANCH   5  11
BRANCH   1  13
ATOM     13  S   UNL     1       2.433   8.319  17.862  0.00  0.00    +0.000 S 
BRANCH  13  17
ATOM     14  C   UNL     1       0.119   9.228  21.732  0.00  0.00    +0.000 A 
ATOM     15  C   UNL     1      -0.081   9.998  20.585  0.00  0.00    +0.000 A 
ATOM     16  C   UNL     1       0.615   9.723  19.402  0.00  0.00    +0.000 A 
ATOM     17  C   UNL     1       1.532   8.670  19.363  0.00  0.00    +0.000 A 
ATOM     18  C   UNL     1       1.730   7.894  20.514  0.00  0.00    +0.000 A 
ATOM     19  C   UNL     1       1.034   8.179  21.696  0.00  0.00    +0.000 A 
BRANCH  14  21
ATOM     20  C   UNL     1      -1.023  10.980  22.844  0.00  0.00    +0.000 C 
ATOM     21  O   UNL     1      -0.602   9.621  22.825  0.00  0.00    +0.000 OA
ENDBRANCH  14  21
ENDBRANCH  13  17
ENDBRANCH   1  13
TORSDOF 6
ENDMDL
MODEL 5
REMARK VINA RESULT:      -5.8      3.700      7.492
REMARK  Name = 
REMARK  10 active torsions:
REMARK  status: ('A' for Active; 'I' for Inactive)
REMARK    1  A    between atoms: C_1  and  O_2
REMARK    2  A    between atoms: O_2  and  C_3
REMARK    3  A    between atoms: C_6  and  S_7
REMARK    4  A    between atoms: S_7  and  C_8
REMARK    5  A    between atoms: C_10  and  O_11
REMARK    6  A    between atoms: O_11  and  C_12
REMARK    7  A    between atoms: C_13  and  O_14
REMARK    8  A    between atoms: O_14  and  C_15
REMARK    9  A    between atoms: C_16  and  O_17
REMARK   10  A    between atoms: O_17  and  C_18
REMARK                            x       y       z     vdW  Elec       q    Type
REMARK                         _______ _______ _______ _____ _____    ______ ____
ROOT
ATOM      1  C   UNL     1       5.536   5.599  17.668  0.00  0.00    +0.000 A 
ATOM      2  C   UNL     1       5.452   4.542  18.571  0.00  0.00    +0.000 A 
ATOM      3  C   UNL     1       4.324   4.370  19.378  0.00  0.00    +0.000 A 
ATOM      4  C   UNL     1       3.237   5.261  19.270  0.00  0.00    +0.000 A 
ATOM      5  C   UNL     1       3.309   6.337  18.360  0.00  0.00    +0.000 A 
ATOM      6  C   UNL     1       4.466   6.500  17.581  0.00  0.00    +0.000 A 
ENDROOT
BRANCH   3   7
ATOM      7  O   UNL     1       4.206   3.345  20.288  0.00  0.00    +0.000 OA
ATOM      8  C   UNL     1       4.358   2.025  19.774  0.00  0.00    +0.000 C 
ENDBRANCH   3   7
BRANCH   4   9
ATOM      9  O   UNL     1       2.143   4.943  20.042  0.00  0.00    +0.000 OA
ATOM     10  C   UNL     1       1.203   4.031  19.489  0.00  0.00    +0.000 C 
ENDBRANCH   4   9
BRANCH   5  11
ATOM     11  O   UNL     1       2.218   7.164  18.267  0.00  0.00    +0.000 OA
ATOM     12  C   UNL     1       2.422   8.520  17.893  0.00  0.00    +0.000 C 
ENDBRANCH   5  11
BRANCH   1  13
ATOM     13  S   UNL     1       6.995   5.873  16.662  0.00  0.00    +0.000 S 
BRANCH  13  17
ATOM     14  C   UNL     1       6.017   3.689  12.735  0.00  0.00    +0.000 A 
ATOM     15  C   UNL     1       5.135   3.640  13.815  0.00  0.00    +0.000 A 
ATOM     16  C   UNL     1       5.424   4.309  15.011  0.00  0.00    +0.000 A 
ATOM     17  C   UNL     1       6.614   5.028  15.137  0.00  0.00    +0.000 A 
ATOM     18  C   UNL     1       7.498   5.079  14.051  0.00  0.00    +0.000 A 
ATOM     19  C   UNL     1       7.206   4.403  12.858  0.00  0.00    +0.000 A 
BRANCH  14  21
ATOM     20  C   UNL     1       4.254   3.064  11.281  0.00  0.00    +0.000 C 
ATOM     21  O   UNL     1       5.628   2.970  11.638  0.00  0.00    +0.000 OA
ENDBRANCH  14  21
ENDBRANCH  13  17
ENDBRANCH   1  13
TORSDOF 6
ENDMDL
MODEL 6
REMARK VINA RESULT:      -5.8      3.510      7.291
REMARK  Name = 
REMARK  10 active torsions:
REMARK  status: ('A' for Active; 'I' for Inactive)
REMARK    1  A    between atoms: C_1  and  O_2
REMARK    2  A    between atoms: O_2  and  C_3
REMARK    3  A    between atoms: C_6  and  S_7
REMARK    4  A    between atoms: S_7  and  C_8
REMARK    5  A    between atoms: C_10  and  O_11
REMARK    6  A    between atoms: O_11  and  C_12
REMARK    7  A    between atoms: C_13  and  O_14
REMARK    8  A    between atoms: O_14  and  C_15
REMARK    9  A    between atoms: C_16  and  O_17
REMARK   10  A    between atoms: O_17  and  C_18
REMARK                            x       y       z     vdW  Elec       q    Type
REMARK                         _______ _______ _______ _____ _____    ______ ____
ROOT
ATOM      1  C   UNL     1       5.385   5.428  18.063  0.00  0.00    +0.000 A 
ATOM      2  C   UNL     1       4.400   6.296  18.527  0.00  0.00    +0.000 A 
ATOM      3  C   UNL     1       3.333   5.830  19.300  0.00  0.00    +0.000 A 
ATOM      4  C   UNL     1       3.253   4.464  19.641  0.00  0.00    +0.000 A 
ATOM      5  C   UNL     1       4.243   3.573  19.178  0.00  0.00    +0.000 A 
ATOM      6  C   UNL     1       5.290   4.066  18.380  0.00  0.00    +0.000 A 
ENDROOT
BRANCH   3   7
ATOM      7  O   UNL     1       2.336   6.653  19.769  0.00  0.00    +0.000 OA
ATOM      8  C   UNL     1       2.120   7.859  19.041  0.00  0.00    +0.000 C 
ENDBRANCH   3   7
BRANCH   4   9
ATOM      9  O   UNL     1       2.215   4.134  20.482  0.00  0.00    +0.000 OA
ATOM     10  C   UNL     1       1.056   3.562  19.890  0.00  0.00    +0.000 C 
ENDBRANCH   4   9
BRANCH   5  11
ATOM     11  O   UNL     1       4.143   2.259  19.556  0.00  0.00    +0.000 OA
ATOM     12  C   UNL     1       3.719   1.303  18.592  0.00  0.00    +0.000 C 
ENDBRANCH   5  11
BRANCH   1  13
ATOM     13  S   UNL     1       6.734   5.992  17.024  0.00  0.00    +0.000 S 
BRANCH  13  17
ATOM     14  C   UNL     1       6.010   3.797  13.047  0.00  0.00    +0.000 A 
ATOM     15  C   UNL     1       4.995   3.897  13.999  0.00  0.00    +0.000 A 
ATOM     16  C   UNL     1       5.207   4.570  15.209  0.00  0.00    +0.000 A 
ATOM     17  C   UNL     1       6.452   5.143  15.479  0.00  0.00    +0.000 A 
ATOM     18  C   UNL     1       7.470   5.045  14.520  0.00  0.00    +0.000 A 
ATOM     19  C   UNL     1       7.253   4.366  13.314  0.00  0.00    +0.000 A 
BRANCH  14  21
ATOM     20  C   UNL     1       4.349   3.253  11.448  0.00  0.00    +0.000 C 
ATOM     21  O   UNL     1       5.681   3.091  11.923  0.00  0.00    +0.000 OA
ENDBRANCH  14  21
ENDBRANCH  13  17
ENDBRANCH   1  13
TORSDOF 6
ENDMDL
MODEL 7
REMARK VINA RESULT:      -5.8      3.427      5.286
REMARK  Name = 
REMARK  10 active torsions:
REMARK  status: ('A' for Active; 'I' for Inactive)
REMARK    1  A    between atoms: C_1  and  O_2
REMARK    2  A    between atoms: O_2  and  C_3
REMARK    3  A    between atoms: C_6  and  S_7
REMARK    4  A    between atoms: S_7  and  C_8
REMARK    5  A    between atoms: C_10  and  O_11
REMARK    6  A    between atoms: O_11  and  C_12
REMARK    7  A    between atoms: C_13  and  O_14
REMARK    8  A    between atoms: O_14  and  C_15
REMARK    9  A    between atoms: C_16  and  O_17
REMARK   10  A    between atoms: O_17  and  C_18
REMARK                            x       y       z     vdW  Elec       q    Type
REMARK                         _______ _______ _______ _____ _____    ______ ____
ROOT
ATOM      1  C   UNL     1       5.023   4.059  16.518  0.00  0.00    +0.000 A 
ATOM      2  C   UNL     1       5.888   5.051  16.975  0.00  0.00    +0.000 A 
ATOM      3  C   UNL     1       6.923   5.534  16.168  0.00  0.00    +0.000 A 
ATOM      4  C   UNL     1       7.092   5.032  14.862  0.00  0.00    +0.000 A 
ATOM      5  C   UNL     1       6.224   4.027  14.386  0.00  0.00    +0.000 A 
ATOM      6  C   UNL     1       5.209   3.542  15.228  0.00  0.00    +0.000 A 
ENDROOT
BRANCH   3   7
ATOM      7  O   UNL     1       7.803   6.505  16.586  0.00  0.00    +0.000 OA
ATOM      8  C   UNL     1       7.334   7.385  17.604  0.00  0.00    +0.000 C 
ENDBRANCH   3   7
BRANCH   4   9
ATOM      9  O   UNL     1       8.080   5.644  14.125  0.00  0.00    +0.000 OA
ATOM     10  C   UNL     1       8.008   5.517  12.712  0.00  0.00    +0.000 C 
ENDBRANCH   4   9
BRANCH   5  11
ATOM     11  O   UNL     1       6.405   3.587  13.100  0.00  0.00    +0.000 OA
ATOM     12  C   UNL     1       5.259   3.300  12.310  0.00  0.00    +0.000 C 
ENDBRANCH   5  11
BRANCH   1  13
ATOM     13  S   UNL     1       3.723   3.385  17.552  0.00  0.00    +0.000 S 
BRANCH  13  17
ATOM     14  C   UNL     1       2.113   7.070  19.783  0.00  0.00    +0.000 A 
ATOM     15  C   UNL     1       2.632   7.190  18.494  0.00  0.00    +0.000 A 
ATOM     16  C   UNL     1       3.117   6.071  17.807  0.00  0.00    +0.000 A 
ATOM     17  C   UNL     1       3.095   4.815  18.417  0.00  0.00    +0.000 A 
ATOM     18  C   UNL     1       2.570   4.694  19.711  0.00  0.00    +0.000 A 
ATOM     19  C   UNL     1       2.091   5.819  20.396  0.00  0.00    +0.000 A 
BRANCH  14  21
ATOM     20  C   UNL     1       1.228   9.243  19.454  0.00  0.00    +0.000 C 
ATOM     21  O   UNL     1       1.699   8.244  20.351  0.00  0.00    +0.000 OA
ENDBRANCH  14  21
ENDBRANCH  13  17
ENDBRANCH   1  13
TORSDOF 6
ENDMDL
MODEL 8
REMARK VINA RESULT:      -5.7      2.334      7.380
REMARK  Name = 
REMARK  10 active torsions:
REMARK  status: ('A' for Active; 'I' for Inactive)
REMARK    1  A    between atoms: C_1  and  O_2
REMARK    2  A    between atoms: O_2  and  C_3
REMARK    3  A    between atoms: C_6  and  S_7
REMARK    4  A    between atoms: S_7  and  C_8
REMARK    5  A    between atoms: C_10  and  O_11
REMARK    6  A    between atoms: O_11  and  C_12
REMARK    7  A    between atoms: C_13  and  O_14
REMARK    8  A    between atoms: O_14  and  C_15
REMARK    9  A    between atoms: C_16  and  O_17
REMARK   10  A    between atoms: O_17  and  C_18
REMARK                            x       y       z     vdW  Elec       q    Type
REMARK                         _______ _______ _______ _____ _____    ______ ____
ROOT
ATOM      1  C   UNL     1       1.337   9.199  18.760  0.00  0.00    +0.000 A 
ATOM      2  C   UNL     1       1.341   9.571  20.102  0.00  0.00    +0.000 A 
ATOM      3  C   UNL     1       0.346  10.403  20.623  0.00  0.00    +0.000 A 
ATOM      4  C   UNL     1      -0.696  10.862  19.791  0.00  0.00    +0.000 A 
ATOM      5  C   UNL     1      -0.712  10.493  18.430  0.00  0.00    +0.000 A 
ATOM      6  C   UNL     1       0.316   9.678  17.928  0.00  0.00    +0.000 A 
ENDROOT
BRANCH   3   7
ATOM      7  O   UNL     1       0.319  10.801  21.939  0.00  0.00    +0.000 OA
ATOM      8  C   UNL     1       0.007   9.792  22.896  0.00  0.00    +0.000 C 
ENDBRANCH   3   7
BRANCH   4   9
ATOM      9  O   UNL     1      -1.671  11.595  20.429  0.00  0.00    +0.000 OA
ATOM     10  C   UNL     1      -1.591  13.010  20.324  0.00  0.00    +0.000 C 
ENDBRANCH   4   9
BRANCH   5  11
ATOM     11  O   UNL     1      -1.759  10.938  17.664  0.00  0.00    +0.000 OA
ATOM     12  C   UNL     1      -2.856  10.063  17.436  0.00  0.00    +0.000 C 
ENDBRANCH   5  11
BRANCH   1  13
ATOM     13  S   UNL     1       2.633   8.178  18.055  0.00  0.00    +0.000 S 
BRANCH  13  17
ATOM     14  C   UNL     1       1.799   4.020  19.834  0.00  0.00    +0.000 A 
ATOM     15  C   UNL     1       1.907   4.195  18.454  0.00  0.00    +0.000 A 
ATOM     16  C   UNL     1       2.168   5.457  17.907  0.00  0.00    +0.000 A 
ATOM     17  C   UNL     1       2.313   6.563  18.746  0.00  0.00    +0.000 A 
ATOM     18  C   UNL     1       2.208   6.387  20.133  0.00  0.00    +0.000 A 
ATOM     19  C   UNL     1       1.941   5.122  20.674  0.00  0.00    +0.000 A 
BRANCH  14  21
ATOM     20  C   UNL     1       1.528   2.509  21.638  0.00  0.00    +0.000 C 
ATOM     21  O   UNL     1       1.515   2.743  20.235  0.00  0.00    +0.000 OA
ENDBRANCH  14  21
ENDBRANCH  13  17
ENDBRANCH   1  13
TORSDOF 6
ENDMDL
MODEL 9
REMARK VINA RESULT:      -5.7      1.517      2.869
REMARK  Name = 
REMARK  10 active torsions:
REMARK  status: ('A' for Active; 'I' for Inactive)
REMARK    1  A    between atoms: C_1  and  O_2
REMARK    2  A    between atoms: O_2  and  C_3
REMARK    3  A    between atoms: C_6  and  S_7
REMARK    4  A    between atoms: S_7  and  C_8
REMARK    5  A    between atoms: C_10  and  O_11
REMARK    6  A    between atoms: O_11  and  C_12
REMARK    7  A    between atoms: C_13  and  O_14
REMARK    8  A    between atoms: O_14  and  C_15
REMARK    9  A    between atoms: C_16  and  O_17
REMARK   10  A    between atoms: O_17  and  C_18
REMARK                            x       y       z     vdW  Elec       q    Type
REMARK                         _______ _______ _______ _____ _____    ______ ____
ROOT
ATOM      1  C   UNL     1       2.654   7.120  18.525  0.00  0.00    +0.000 A 
ATOM      2  C   UNL     1       3.763   6.681  17.806  0.00  0.00    +0.000 A 
ATOM      3  C   UNL     1       4.431   5.505  18.157  0.00  0.00    +0.000 A 
ATOM      4  C   UNL     1       3.973   4.730  19.241  0.00  0.00    +0.000 A 
ATOM      5  C   UNL     1       2.851   5.162  19.979  0.00  0.00    +0.000 A 
ATOM      6  C   UNL     1       2.215   6.363  19.620  0.00  0.00    +0.000 A 
ENDROOT
BRANCH   3   7
ATOM      7  O   UNL     1       5.535   5.043  17.478  0.00  0.00    +0.000 OA
ATOM      8  C   UNL     1       5.320   4.629  16.131  0.00  0.00    +0.000 C 
ENDBRANCH   3   7
BRANCH   4   9
ATOM      9  O   UNL     1       4.646   3.546  19.438  0.00  0.00    +0.000 OA
ATOM     10  C   UNL     1       4.023   2.359  18.966  0.00  0.00    +0.000 C 
ENDBRANCH   4   9
BRANCH   5  11
ATOM     11  O   UNL     1       2.421   4.364  21.008  0.00  0.00    +0.000 OA
ATOM     12  C   UNL     1       1.199   3.654  20.853  0.00  0.00    +0.000 C 
ENDBRANCH   5  11
BRANCH   1  13
ATOM     13  S   UNL     1       1.813   8.654  18.129  0.00  0.00    +0.000 S 
BRANCH  13  17
ATOM     14  C   UNL     1       0.128  10.032  22.180  0.00  0.00    +0.000 A 
ATOM     15  C   UNL     1      -0.354  10.574  20.988  0.00  0.00    +0.000 A 
ATOM     16  C   UNL     1       0.150  10.154  19.751  0.00  0.00    +0.000 A 
ATOM     17  C   UNL     1       1.157   9.187  19.701  0.00  0.00    +0.000 A 
ATOM     18  C   UNL     1       1.638   8.640  20.899  0.00  0.00    +0.000 A 
ATOM     19  C   UNL     1       1.133   9.069  22.134  0.00  0.00    +0.000 A 
BRANCH  14  21
ATOM     20  C   UNL     1      -1.588  11.356  23.137  0.00  0.00    +0.000 C 
ATOM     21  O   UNL     1      -0.429  10.550  23.317  0.00  0.00    +0.000 OA
ENDBRANCH  14  21
ENDBRANCH  13  17
ENDBRANCH   1  13
TORSDOF 6
ENDMDL
