MODEL 1
REMARK VINA RESULT:      -8.1      0.000      0.000
REMARK  Name = 
REMARK  12 active torsions:
REMARK  status: ('A' for Active; 'I' for Inactive)
REMARK    1  A    between atoms: C_1  and  C_2
REMARK    2  A    between atoms: C_2  and  C_3
REMARK    3  A    between atoms: C_8  and  C_9
REMARK    4  A    between atoms: C_9  and  C_23
REMARK    5  A    between atoms: N_10  and  O_11
REMARK    6  A    between atoms: O_11  and  C_12
REMARK    7  A    between atoms: C_12  and  C_13
REMARK    8  A    between atoms: C_13  and  N_14
REMARK    9  A    between atoms: C_18  and  C_19
REMARK   10  A    between atoms: C_19  and  O_21
REMARK   11  A    between atoms: C_28  and  C_29
REMARK   12  A    between atoms: C_29  and  C_30
REMARK                            x       y       z     vdW  Elec       q    Type
REMARK                         _______ _______ _______ _____ _____    ______ ____
ROOT
ATOM      1  C   UNL     1       3.980   6.310  18.109  0.00  0.00    +0.000 C 
ATOM      2  N   UNL     1       3.712   7.428  17.506  0.00  0.00    +0.000 NA
ENDROOT
BRANCH   1   8
ATOM      3  C   UNL     1       2.420   4.233  18.513  0.00  0.00    +0.000 A 
ATOM      4  C   UNL     1       1.390   3.662  19.302  0.00  0.00    +0.000 A 
ATOM      5  C   UNL     1       0.896   4.296  20.436  0.00  0.00    +0.000 A 
ATOM      6  C   UNL     1       1.466   5.488  20.852  0.00  0.00    +0.000 A 
ATOM      7  C   UNL     1       2.525   6.042  20.126  0.00  0.00    +0.000 A 
ATOM      8  C   UNL     1       2.986   5.469  18.919  0.00  0.00    +0.000 A 
BRANCH   3  10
ATOM      9  C   UNL     1       3.134   2.054  17.505  0.00  0.00    +0.000 C 
ATOM     10  C   UNL     1       2.716   3.484  17.231  0.00  0.00    +0.000 C 
ENDBRANCH   3  10
ENDBRANCH   1   8
BRANCH   1  11
ATOM     11  C   UNL     1       5.403   5.784  17.912  0.00  0.00    +0.000 A 
ATOM     12  C   UNL     1       6.243   5.697  19.038  0.00  0.00    +0.000 A 
ATOM     13  C   UNL     1       7.487   5.067  18.973  0.00  0.00    +0.000 A 
ATOM     14  C   UNL     1       7.947   4.564  17.765  0.00  0.00    +0.000 A 
ATOM     15  C   UNL     1       7.171   4.710  16.619  0.00  0.00    +0.000 A 
ATOM     16  C   UNL     1       5.892   5.308  16.663  0.00  0.00    +0.000 A 
BRANCH  16  17
ATOM     17  C   UNL     1       5.156   5.374  15.336  0.00  0.00    +0.000 C 
ATOM     18  C   UNL     1       5.592   4.284  14.361  0.00  0.00    +0.000 C 
ENDBRANCH  16  17
ENDBRANCH   1  11
BRANCH   2  19
ATOM     19  O   UNL     1       2.360   7.728  17.468  0.00  0.00    +0.000 OA
BRANCH  19  20
ATOM     20  C   UNL     1       2.175   9.034  18.008  0.00  0.00    +0.000 C 
BRANCH  20  21
ATOM     21  C   UNL     1       0.704   9.400  17.803  0.00  0.00    +0.000 C 
BRANCH  21  22
ATOM     22  N   UNL     1       0.020   9.961  18.986  0.00  0.00    +0.000 NA
ATOM     23  C   UNL     1       0.054  11.430  18.916  0.00  0.00    +0.000 C 
ATOM     24  C   UNL     1      -0.701  12.052  20.101  0.00  0.00    +0.000 C 
ATOM     25  C   UNL     1      -0.294  11.458  21.419  0.00  0.00    +0.000 C 
ATOM     26  C   UNL     1       0.348  10.271  21.472  0.00  0.00    +0.000 C 
ATOM     27  C   UNL     1       0.678   9.483  20.226  0.00  0.00    +0.000 C 
BRANCH  26  28
ATOM     28  C   UNL     1       0.865   9.633  22.719  0.00  0.00    +0.000 C 
ATOM     29  O   UNL     1       0.252   9.665  23.771  0.00  0.00    +0.000 OA
BRANCH  28  30
ATOM     30  O   UNL     1       2.071   9.054  22.591  0.00  0.00    +0.000 OA
ATOM     31  H   UNL     1       2.676   9.514  21.985  0.00  0.00    +0.000 HD
ENDBRANCH  28  30
ENDBRANCH  26  28
ENDBRANCH  21  22
ENDBRANCH  20  21
ENDBRANCH  19  20
ENDBRANCH   2  19
TORSDOF 10
ENDMDL
MODEL 2
REMARK VINA RESULT:      -8.0      2.024      3.427
REMARK  Name = 
REMARK  12 active torsions:
REMARK  status: ('A' for Active; 'I' for Inactive)
REMARK    1  A    between atoms: C_1  and  C_2
REMARK    2  A    between atoms: C_2  and  C_3
REMARK    3  A    between atoms: C_8  and  C_9
REMARK    4  A    between atoms: C_9  and  C_23
REMARK    5  A    between atoms: N_10  and  O_11
REMARK    6  A    between atoms: O_11  and  C_12
REMARK    7  A    between atoms: C_12  and  C_13
REMARK    8  A    between atoms: C_13  and  N_14
REMARK    9  A    between atoms: C_18  and  C_19
REMARK   10  A    between atoms: C_19  and  O_21
REMARK   11  A    between atoms: C_28  and  C_29
REMARK   12  A    between atoms: C_29  and  C_30
REMARK                            x       y       z     vdW  Elec       q    Type
REMARK                         _______ _______ _______ _____ _____    ______ ____
ROOT
ATOM      1  C   UNL     1       3.719   6.106  17.793  0.00  0.00    +0.000 C 
ATOM      2  N   UNL     1       3.398   7.302  17.403  0.00  0.00    +0.000 NA
ENDROOT
BRANCH   1   8
ATOM      3  C   UNL     1       2.441   3.939  18.556  0.00  0.00    +0.000 A 
ATOM      4  C   UNL     1       1.589   3.346  19.521  0.00  0.00    +0.000 A 
ATOM      5  C   UNL     1       1.193   4.023  20.668  0.00  0.00    +0.000 A 
ATOM      6  C   UNL     1       1.694   5.291  20.916  0.00  0.00    +0.000 A 
ATOM      7  C   UNL     1       2.584   5.876  20.010  0.00  0.00    +0.000 A 
ATOM      8  C   UNL     1       2.932   5.250  18.792  0.00  0.00    +0.000 A 
BRANCH   3  10
ATOM      9  C   UNL     1       3.386   1.834  17.582  0.00  0.00    +0.000 C 
ATOM     10  C   UNL     1       2.634   3.118  17.298  0.00  0.00    +0.000 C 
ENDBRANCH   3  10
ENDBRANCH   1   8
BRANCH   1  11
ATOM     11  C   UNL     1       4.957   5.509  17.122  0.00  0.00    +0.000 A 
ATOM     12  C   UNL     1       4.933   5.319  15.728  0.00  0.00    +0.000 A 
ATOM     13  C   UNL     1       6.079   4.946  15.023  0.00  0.00    +0.000 A 
ATOM     14  C   UNL     1       7.260   4.695  15.703  0.00  0.00    +0.000 A 
ATOM     15  C   UNL     1       7.291   4.796  17.091  0.00  0.00    +0.000 A 
ATOM     16  C   UNL     1       6.157   5.209  17.827  0.00  0.00    +0.000 A 
BRANCH  16  17
ATOM     17  C   UNL     1       6.351   5.296  19.331  0.00  0.00    +0.000 C 
ATOM     18  C   UNL     1       7.776   5.678  19.724  0.00  0.00    +0.000 C 
ENDBRANCH  16  17
ENDBRANCH   1  11
BRANCH   2  19
ATOM     19  O   UNL     1       2.135   7.699  17.809  0.00  0.00    +0.000 OA
BRANCH  19  20
ATOM     20  C   UNL     1       2.129   9.118  17.936  0.00  0.00    +0.000 C 
BRANCH  20  21
ATOM     21  C   UNL     1       1.176   9.463  19.082  0.00  0.00    +0.000 C 
BRANCH  21  22
ATOM     22  N   UNL     1       0.186  10.517  18.787  0.00  0.00    +0.000 NA
ATOM     23  C   UNL     1      -0.633  10.765  19.984  0.00  0.00    +0.000 C 
ATOM     24  C   UNL     1      -1.639  11.899  19.735  0.00  0.00    +0.000 C 
ATOM     25  C   UNL     1      -2.403  11.720  18.455  0.00  0.00    +0.000 C 
ATOM     26  C   UNL     1      -1.954  10.886  17.493  0.00  0.00    +0.000 C 
ATOM     27  C   UNL     1      -0.669  10.105  17.647  0.00  0.00    +0.000 C 
BRANCH  26  28
ATOM     28  C   UNL     1      -2.675  10.576  16.223  0.00  0.00    +0.000 C 
ATOM     29  O   UNL     1      -2.868   9.434  15.845  0.00  0.00    +0.000 OA
BRANCH  28  30
ATOM     30  O   UNL     1      -3.058  11.656  15.522  0.00  0.00    +0.000 OA
ATOM     31  H   UNL     1      -2.355  12.309  15.369  0.00  0.00    +0.000 HD
ENDBRANCH  28  30
ENDBRANCH  26  28
ENDBRANCH  21  22
ENDBRANCH  20  21
ENDBRANCH  19  20
ENDBRANCH   2  19
TORSDOF 10
ENDMDL
MODEL 3
REMARK VINA RESULT:      -7.9      2.048      4.880
REMARK  Name = 
REMARK  12 active torsions:
REMARK  status: ('A' for Active; 'I' for Inactive)
REMARK    1  A    between atoms: C_1  and  C_2
REMARK    2  A    between atoms: C_2  and  C_3
REMARK    3  A    between atoms: C_8  and  C_9
REMARK    4  A    between atoms: C_9  and  C_23
REMARK    5  A    between atoms: N_10  and  O_11
REMARK    6  A    between atoms: O_11  and  C_12
REMARK    7  A    between atoms: C_12  and  C_13
REMARK    8  A    between atoms: C_13  and  N_14
REMARK    9  A    between atoms: C_18  and  C_19
REMARK   10  A    between atoms: C_19  and  O_21
REMARK   11  A    between atoms: C_28  and  C_29
REMARK   12  A    between atoms: C_29  and  C_30
REMARK                            x       y       z     vdW  Elec       q    Type
REMARK                         _______ _______ _______ _____ _____    ______ ____
ROOT
ATOM      1  C   UNL     1       3.383   5.720  18.128  0.00  0.00    +0.000 C 
ATOM      2  N   UNL     1       2.548   6.700  17.961  0.00  0.00    +0.000 NA
ENDROOT
BRANCH   1   8
ATOM      3  C   UNL     1       5.713   5.981  16.940  0.00  0.00    +0.000 A 
ATOM      4  C   UNL     1       7.122   5.904  17.069  0.00  0.00    +0.000 A 
ATOM      5  C   UNL     1       7.736   5.650  18.290  0.00  0.00    +0.000 A 
ATOM      6  C   UNL     1       6.958   5.534  19.431  0.00  0.00    +0.000 A 
ATOM      7  C   UNL     1       5.569   5.667  19.341  0.00  0.00    +0.000 A 
ATOM      8  C   UNL     1       4.911   5.833  18.101  0.00  0.00    +0.000 A 
BRANCH   3  10
ATOM      9  C   UNL     1       5.452   4.823  14.735  0.00  0.00    +0.000 C 
ATOM     10  C   UNL     1       5.218   6.101  15.514  0.00  0.00    +0.000 C 
ENDBRANCH   3  10
ENDBRANCH   1   8
BRANCH   1  11
ATOM     11  C   UNL     1       2.747   4.365  18.446  0.00  0.00    +0.000 A 
ATOM     12  C   UNL     1       2.645   3.418  17.410  0.00  0.00    +0.000 A 
ATOM     13  C   UNL     1       2.241   2.105  17.660  0.00  0.00    +0.000 A 
ATOM     14  C   UNL     1       1.871   1.726  18.941  0.00  0.00    +0.000 A 
ATOM     15  C   UNL     1       1.885   2.665  19.968  0.00  0.00    +0.000 A 
ATOM     16  C   UNL     1       2.325   3.990  19.753  0.00  0.00    +0.000 A 
BRANCH  16  17
ATOM     17  C   UNL     1       2.306   4.891  20.975  0.00  0.00    +0.000 C 
ATOM     18  C   UNL     1       1.235   5.976  20.896  0.00  0.00    +0.000 C 
ENDBRANCH  16  17
ENDBRANCH   1  11
BRANCH   2  19
ATOM     19  O   UNL     1       3.149   7.948  17.957  0.00  0.00    +0.000 OA
BRANCH  19  20
ATOM     20  C   UNL     1       2.146   8.930  17.711  0.00  0.00    +0.000 C 
BRANCH  20  21
ATOM     21  C   UNL     1       1.479   9.237  19.053  0.00  0.00    +0.000 C 
BRANCH  21  22
ATOM     22  N   UNL     1       0.492  10.334  19.032  0.00  0.00    +0.000 NA
ATOM     23  C   UNL     1      -0.199  10.392  20.330  0.00  0.00    +0.000 C 
ATOM     24  C   UNL     1      -1.195  11.561  20.370  0.00  0.00    +0.000 C 
ATOM     25  C   UNL     1      -2.086  11.600  19.161  0.00  0.00    +0.000 C 
ATOM     26  C   UNL     1      -1.754  10.928  18.037  0.00  0.00    +0.000 C 
ATOM     27  C   UNL     1      -0.482  10.121  17.933  0.00  0.00    +0.000 C 
BRANCH  26  28
ATOM     28  C   UNL     1      -2.604  10.835  16.813  0.00  0.00    +0.000 C 
ATOM     29  O   UNL     1      -2.498   9.923  16.013  0.00  0.00    +0.000 OA
BRANCH  28  30
ATOM     30  O   UNL     1      -3.465  11.854  16.653  0.00  0.00    +0.000 OA
ATOM     31  H   UNL     1      -4.291  11.617  16.200  0.00  0.00    +0.000 HD
ENDBRANCH  28  30
ENDBRANCH  26  28
ENDBRANCH  21  22
ENDBRANCH  20  21
ENDBRANCH  19  20
ENDBRANCH   2  19
TORSDOF 10
ENDMDL
MODEL 4
REMARK VINA RESULT:      -7.8      1.000      3.827
REMARK  Name = 
REMARK  12 active torsions:
REMARK  status: ('A' for Active; 'I' for Inactive)
REMARK    1  A    between atoms: C_1  and  C_2
REMARK    2  A    between atoms: C_2  and  C_3
REMARK    3  A    between atoms: C_8  and  C_9
REMARK    4  A    between atoms: C_9  and  C_23
REMARK    5  A    between atoms: N_10  and  O_11
REMARK    6  A    between atoms: O_11  and  C_12
REMARK    7  A    between atoms: C_12  and  C_13
REMARK    8  A    between atoms: C_13  and  N_14
REMARK    9  A    between atoms: C_18  and  C_19
REMARK   10  A    between atoms: C_19  and  O_21
REMARK   11  A    between atoms: C_28  and  C_29
REMARK   12  A    between atoms: C_29  and  C_30
REMARK                            x       y       z     vdW  Elec       q    Type
REMARK                         _______ _______ _______ _____ _____    ______ ____
ROOT
ATOM      1  C   UNL     1       3.426   5.454  18.428  0.00  0.00    +0.000 C 
ATOM      2  N   UNL     1       2.623   6.352  17.944  0.00  0.00    +0.000 NA
ENDROOT
BRANCH   1   8
ATOM      3  C   UNL     1       5.577   5.017  16.981  0.00  0.00    +0.000 A 
ATOM      4  C   UNL     1       6.985   4.844  16.976  0.00  0.00    +0.000 A 
ATOM      5  C   UNL     1       7.748   4.990  18.127  0.00  0.00    +0.000 A 
ATOM      6  C   UNL     1       7.133   5.381  19.306  0.00  0.00    +0.000 A 
ATOM      7  C   UNL     1       5.755   5.617  19.325  0.00  0.00    +0.000 A 
ATOM      8  C   UNL     1       4.940   5.387  18.194  0.00  0.00    +0.000 A 
BRANCH   3  10
ATOM      9  C   UNL     1       5.866   4.037  14.695  0.00  0.00    +0.000 C 
ATOM     10  C   UNL     1       4.895   4.659  15.678  0.00  0.00    +0.000 C 
ENDBRANCH   3  10
ENDBRANCH   1   8
BRANCH   1  11
ATOM     11  C   UNL     1       2.777   4.431  19.363  0.00  0.00    +0.000 A 
ATOM     12  C   UNL     1       2.518   4.815  20.692  0.00  0.00    +0.000 A 
ATOM     13  C   UNL     1       1.774   4.006  21.552  0.00  0.00    +0.000 A 
ATOM     14  C   UNL     1       1.324   2.767  21.123  0.00  0.00    +0.000 A 
ATOM     15  C   UNL     1       1.636   2.328  19.840  0.00  0.00    +0.000 A 
ATOM     16  C   UNL     1       2.354   3.142  18.934  0.00  0.00    +0.000 A 
BRANCH  16  17
ATOM     17  C   UNL     1       2.597   2.536  17.563  0.00  0.00    +0.000 C 
ATOM     18  C   UNL     1       3.864   1.687  17.505  0.00  0.00    +0.000 C 
ENDBRANCH  16  17
ENDBRANCH   1  11
BRANCH   2  19
ATOM     19  O   UNL     1       3.277   7.413  17.340  0.00  0.00    +0.000 OA
BRANCH  19  20
ATOM     20  C   UNL     1       2.903   8.613  18.012  0.00  0.00    +0.000 C 
BRANCH  20  21
ATOM     21  C   UNL     1       1.388   8.760  17.859  0.00  0.00    +0.000 C 
BRANCH  21  22
ATOM     22  N   UNL     1       0.747   9.712  18.789  0.00  0.00    +0.000 NA
ATOM     23  C   UNL     1       1.474  10.991  18.752  0.00  0.00    +0.000 C 
ATOM     24  C   UNL     1       0.802  12.029  19.664  0.00  0.00    +0.000 C 
ATOM     25  C   UNL     1       0.510  11.490  21.035  0.00  0.00    +0.000 C 
ATOM     26  C   UNL     1       0.488  10.159  21.262  0.00  0.00    +0.000 C 
ATOM     27  C   UNL     1       0.742   9.154  20.163  0.00  0.00    +0.000 C 
BRANCH  26  28
ATOM     28  C   UNL     1       0.289   9.522  22.598  0.00  0.00    +0.000 C 
ATOM     29  O   UNL     1       1.112   9.611  23.492  0.00  0.00    +0.000 OA
BRANCH  28  30
ATOM     30  O   UNL     1      -0.850   8.820  22.717  0.00  0.00    +0.000 OA
ATOM     31  H   UNL     1      -1.458   9.149  23.399  0.00  0.00    +0.000 HD
ENDBRANCH  28  30
ENDBRANCH  26  28
ENDBRANCH  21  22
ENDBRANCH  20  21
ENDBRANCH  19  20
ENDBRANCH   2  19
TORSDOF 10
ENDMDL
MODEL 5
REMARK VINA RESULT:      -7.8      1.957      2.528
REMARK  Name = 
REMARK  12 active torsions:
REMARK  status: ('A' for Active; 'I' for Inactive)
REMARK    1  A    between atoms: C_1  and  C_2
REMARK    2  A    between atoms: C_2  and  C_3
REMARK    3  A    between atoms: C_8  and  C_9
REMARK    4  A    between atoms: C_9  and  C_23
REMARK    5  A    between atoms: N_10  and  O_11
REMARK    6  A    between atoms: O_11  and  C_12
REMARK    7  A    between atoms: C_12  and  C_13
REMARK    8  A    between atoms: C_13  and  N_14
REMARK    9  A    between atoms: C_18  and  C_19
REMARK   10  A    between atoms: C_19  and  O_21
REMARK   11  A    between atoms: C_28  and  C_29
REMARK   12  A    between atoms: C_29  and  C_30
REMARK                            x       y       z     vdW  Elec       q    Type
REMARK                         _______ _______ _______ _____ _____    ______ ____
ROOT
ATOM      1  C   UNL     1       3.927   6.282  18.168  0.00  0.00    +0.000 C 
ATOM      2  N   UNL     1       3.645   7.419  17.608  0.00  0.00    +0.000 NA
ENDROOT
BRANCH   1   8
ATOM      3  C   UNL     1       2.415   4.152  18.465  0.00  0.00    +0.000 A 
ATOM      4  C   UNL     1       1.383   3.528  19.211  0.00  0.00    +0.000 A 
ATOM      5  C   UNL     1       0.848   4.109  20.354  0.00  0.00    +0.000 A 
ATOM      6  C   UNL     1       1.377   5.300  20.823  0.00  0.00    +0.000 A 
ATOM      7  C   UNL     1       2.436   5.907  20.140  0.00  0.00    +0.000 A 
ATOM      8  C   UNL     1       2.939   5.388  18.925  0.00  0.00    +0.000 A 
BRANCH   3  10
ATOM      9  C   UNL     1       3.724   2.310  17.386  0.00  0.00    +0.000 C 
ATOM     10  C   UNL     1       2.759   3.457  17.165  0.00  0.00    +0.000 C 
ENDBRANCH   3  10
ENDBRANCH   1   8
BRANCH   1  11
ATOM     11  C   UNL     1       5.364   5.793  17.971  0.00  0.00    +0.000 A 
ATOM     12  C   UNL     1       6.190   5.681  19.106  0.00  0.00    +0.000 A 
ATOM     13  C   UNL     1       7.448   5.080  19.034  0.00  0.00    +0.000 A 
ATOM     14  C   UNL     1       7.935   4.633  17.815  0.00  0.00    +0.000 A 
ATOM     15  C   UNL     1       7.172   4.806  16.665  0.00  0.00    +0.000 A 
ATOM     16  C   UNL     1       5.879   5.375  16.712  0.00  0.00    +0.000 A 
BRANCH  16  17
ATOM     17  C   UNL     1       5.160   5.475  15.379  0.00  0.00    +0.000 C 
ATOM     18  C   UNL     1       5.553   4.364  14.408  0.00  0.00    +0.000 C 
ENDBRANCH  16  17
ENDBRANCH   1  11
BRANCH   2  19
ATOM     19  O   UNL     1       2.289   7.693  17.561  0.00  0.00    +0.000 OA
BRANCH  19  20
ATOM     20  C   UNL     1       2.103   9.083  17.814  0.00  0.00    +0.000 C 
BRANCH  20  21
ATOM     21  C   UNL     1       1.312   9.200  19.119  0.00  0.00    +0.000 C 
BRANCH  21  22
ATOM     22  N   UNL     1       0.496  10.423  19.257  0.00  0.00    +0.000 NA
ATOM     23  C   UNL     1       0.149  10.618  20.673  0.00  0.00    +0.000 C 
ATOM     24  C   UNL     1      -0.652  11.915  20.868  0.00  0.00    +0.000 C 
ATOM     25  C   UNL     1      -1.793  12.038  19.899  0.00  0.00    +0.000 C 
ATOM     26  C   UNL     1      -1.827  11.291  18.775  0.00  0.00    +0.000 C 
ATOM     27  C   UNL     1      -0.730  10.312  18.430  0.00  0.00    +0.000 C 
BRANCH  26  28
ATOM     28  C   UNL     1      -2.949  11.279  17.789  0.00  0.00    +0.000 C 
ATOM     29  O   UNL     1      -4.015  10.737  18.022  0.00  0.00    +0.000 OA
BRANCH  28  30
ATOM     30  O   UNL     1      -2.673  11.881  16.621  0.00  0.00    +0.000 OA
ATOM     31  H   UNL     1      -1.841  12.384  16.613  0.00  0.00    +0.000 HD
ENDBRANCH  28  30
ENDBRANCH  26  28
ENDBRANCH  21  22
ENDBRANCH  20  21
ENDBRANCH  19  20
ENDBRANCH   2  19
TORSDOF 10
ENDMDL
MODEL 6
REMARK VINA RESULT:      -7.8      0.847      1.918
REMARK  Name = 
REMARK  12 active torsions:
REMARK  status: ('A' for Active; 'I' for Inactive)
REMARK    1  A    between atoms: C_1  and  C_2
REMARK    2  A    between atoms: C_2  and  C_3
REMARK    3  A    between atoms: C_8  and  C_9
REMARK    4  A    between atoms: C_9  and  C_23
REMARK    5  A    between atoms: N_10  and  O_11
REMARK    6  A    between atoms: O_11  and  C_12
REMARK    7  A    between atoms: C_12  and  C_13
REMARK    8  A    between atoms: C_13  and  N_14
REMARK    9  A    between atoms: C_18  and  C_19
REMARK   10  A    between atoms: C_19  and  O_21
REMARK   11  A    between atoms: C_28  and  C_29
REMARK   12  A    between atoms: C_29  and  C_30
REMARK                            x       y       z     vdW  Elec       q    Type
REMARK                         _______ _______ _______ _____ _____    ______ ____
ROOT
ATOM      1  C   UNL     1       3.687   6.145  17.844  0.00  0.00    +0.000 C 
ATOM      2  N   UNL     1       3.374   7.359  17.506  0.00  0.00    +0.000 NA
ENDROOT
BRANCH   1   8
ATOM      3  C   UNL     1       2.407   3.968  18.574  0.00  0.00    +0.000 A 
ATOM      4  C   UNL     1       1.575   3.354  19.543  0.00  0.00    +0.000 A 
ATOM      5  C   UNL     1       1.216   3.999  20.720  0.00  0.00    +0.000 A 
ATOM      6  C   UNL     1       1.737   5.254  20.993  0.00  0.00    +0.000 A 
ATOM      7  C   UNL     1       2.609   5.858  20.082  0.00  0.00    +0.000 A 
ATOM      8  C   UNL     1       2.918   5.266  18.836  0.00  0.00    +0.000 A 
BRANCH   3  10
ATOM      9  C   UNL     1       3.578   2.073  17.429  0.00  0.00    +0.000 C 
ATOM     10  C   UNL     1       2.558   3.184  17.287  0.00  0.00    +0.000 C 
ENDBRANCH   3  10
ENDBRANCH   1   8
BRANCH   1  11
ATOM     11  C   UNL     1       4.894   5.552  17.113  0.00  0.00    +0.000 A 
ATOM     12  C   UNL     1       4.826   5.422  15.713  0.00  0.00    +0.000 A 
ATOM     13  C   UNL     1       5.944   5.057  14.960  0.00  0.00    +0.000 A 
ATOM     14  C   UNL     1       7.139   4.755  15.595  0.00  0.00    +0.000 A 
ATOM     15  C   UNL     1       7.210   4.797  16.984  0.00  0.00    +0.000 A 
ATOM     16  C   UNL     1       6.106   5.200  17.770  0.00  0.00    +0.000 A 
BRANCH  16  17
ATOM     17  C   UNL     1       6.344   5.220  19.269  0.00  0.00    +0.000 C 
ATOM     18  C   UNL     1       7.703   5.803  19.647  0.00  0.00    +0.000 C 
ENDBRANCH  16  17
ENDBRANCH   1  11
BRANCH   2  19
ATOM     19  O   UNL     1       2.131   7.761  17.966  0.00  0.00    +0.000 OA
BRANCH  19  20
ATOM     20  C   UNL     1       2.132   9.181  18.079  0.00  0.00    +0.000 C 
BRANCH  20  21
ATOM     21  C   UNL     1       0.679   9.642  17.945  0.00  0.00    +0.000 C 
BRANCH  21  22
ATOM     22  N   UNL     1       0.258  10.691  18.895  0.00  0.00    +0.000 NA
ATOM     23  C   UNL     1       1.264  11.765  18.912  0.00  0.00    +0.000 C 
ATOM     24  C   UNL     1       0.833  12.905  19.847  0.00  0.00    +0.000 C 
ATOM     25  C   UNL     1       0.392  12.411  21.194  0.00  0.00    +0.000 C 
ATOM     26  C   UNL     1       0.054  11.116  21.378  0.00  0.00    +0.000 C 
ATOM     27  C   UNL     1       0.091  10.112  20.250  0.00  0.00    +0.000 C 
BRANCH  26  28
ATOM     28  C   UNL     1      -0.320  10.506  22.689  0.00  0.00    +0.000 C 
ATOM     29  O   UNL     1      -1.412  10.679  23.200  0.00  0.00    +0.000 OA
BRANCH  28  30
ATOM     30  O   UNL     1       0.655   9.786  23.267  0.00  0.00    +0.000 OA
ATOM     31  H   UNL     1       1.515   9.837  22.817  0.00  0.00    +0.000 HD
ENDBRANCH  28  30
ENDBRANCH  26  28
ENDBRANCH  21  22
ENDBRANCH  20  21
ENDBRANCH  19  20
ENDBRANCH   2  19
TORSDOF 10
ENDMDL
MODEL 7
REMARK VINA RESULT:      -7.7      1.416      2.550
REMARK  Name = 
REMARK  12 active torsions:
REMARK  status: ('A' for Active; 'I' for Inactive)
REMARK    1  A    between atoms: C_1  and  C_2
REMARK    2  A    between atoms: C_2  and  C_3
REMARK    3  A    between atoms: C_8  and  C_9
REMARK    4  A    between atoms: C_9  and  C_23
REMARK    5  A    between atoms: N_10  and  O_11
REMARK    6  A    between atoms: O_11  and  C_12
REMARK    7  A    between atoms: C_12  and  C_13
REMARK    8  A    between atoms: C_13  and  N_14
REMARK    9  A    between atoms: C_18  and  C_19
REMARK   10  A    between atoms: C_19  and  O_21
REMARK   11  A    between atoms: C_28  and  C_29
REMARK   12  A    between atoms: C_29  and  C_30
REMARK                            x       y       z     vdW  Elec       q    Type
REMARK                         _______ _______ _______ _____ _____    ______ ____
ROOT
ATOM      1  C   UNL     1       3.697   6.217  17.747  0.00  0.00    +0.000 C 
ATOM      2  N   UNL     1       3.414   7.427  17.371  0.00  0.00    +0.000 NA
ENDROOT
BRANCH   1   8
ATOM      3  C   UNL     1       2.372   4.072  18.492  0.00  0.00    +0.000 A 
ATOM      4  C   UNL     1       1.498   3.493  19.447  0.00  0.00    +0.000 A 
ATOM      5  C   UNL     1       1.103   4.176  20.590  0.00  0.00    +0.000 A 
ATOM      6  C   UNL     1       1.625   5.434  20.846  0.00  0.00    +0.000 A 
ATOM      7  C   UNL     1       2.536   6.004  19.951  0.00  0.00    +0.000 A 
ATOM      8  C   UNL     1       2.884   5.373  18.735  0.00  0.00    +0.000 A 
BRANCH   3  10
ATOM      9  C   UNL     1       3.529   2.106  17.459  0.00  0.00    +0.000 C 
ATOM     10  C   UNL     1       2.562   3.251  17.235  0.00  0.00    +0.000 C 
ENDBRANCH   3  10
ENDBRANCH   1   8
BRANCH   1  11
ATOM     11  C   UNL     1       4.917   5.589  17.069  0.00  0.00    +0.000 A 
ATOM     12  C   UNL     1       4.879   5.398  15.675  0.00  0.00    +0.000 A 
ATOM     13  C   UNL     1       6.011   4.997  14.963  0.00  0.00    +0.000 A 
ATOM     14  C   UNL     1       7.191   4.719  15.637  0.00  0.00    +0.000 A 
ATOM     15  C   UNL     1       7.233   4.822  17.024  0.00  0.00    +0.000 A 
ATOM     16  C   UNL     1       6.114   5.263  17.767  0.00  0.00    +0.000 A 
BRANCH  16  17
ATOM     17  C   UNL     1       6.320   5.347  19.269  0.00  0.00    +0.000 C 
ATOM     18  C   UNL     1       7.760   5.676  19.653  0.00  0.00    +0.000 C 
ENDBRANCH  16  17
ENDBRANCH   1  11
BRANCH   2  19
ATOM     19  O   UNL     1       2.163   7.857  17.782  0.00  0.00    +0.000 OA
BRANCH  19  20
ATOM     20  C   UNL     1       2.213   9.269  17.969  0.00  0.00    +0.000 C 
BRANCH  20  21
ATOM     21  C   UNL     1       0.826   9.709  18.441  0.00  0.00    +0.000 C 
BRANCH  21  22
ATOM     22  N   UNL     1       0.751  10.176  19.840  0.00  0.00    +0.000 NA
ATOM     23  C   UNL     1       0.672   9.013  20.737  0.00  0.00    +0.000 C 
ATOM     24  C   UNL     1       0.652   9.456  22.208  0.00  0.00    +0.000 C 
ATOM     25  C   UNL     1      -0.350  10.544  22.469  0.00  0.00    +0.000 C 
ATOM     26  C   UNL     1      -0.851  11.278  21.453  0.00  0.00    +0.000 C 
ATOM     27  C   UNL     1      -0.430  11.055  20.019  0.00  0.00    +0.000 C 
BRANCH  26  28
ATOM     28  C   UNL     1      -1.907  12.325  21.592  0.00  0.00    +0.000 C 
ATOM     29  O   UNL     1      -2.792  12.251  22.427  0.00  0.00    +0.000 OA
BRANCH  28  30
ATOM     30  O   UNL     1      -1.818  13.329  20.705  0.00  0.00    +0.000 OA
ATOM     31  H   UNL     1      -2.237  14.158  20.990  0.00  0.00    +0.000 HD
ENDBRANCH  28  30
ENDBRANCH  26  28
ENDBRANCH  21  22
ENDBRANCH  20  21
ENDBRANCH  19  20
ENDBRANCH   2  19
TORSDOF 10
ENDMDL
MODEL 8
REMARK VINA RESULT:      -7.7      1.957      2.481
REMARK  Name = 
REMARK  12 active torsions:
REMARK  status: ('A' for Active; 'I' for Inactive)
REMARK    1  A    between atoms: C_1  and  C_2
REMARK    2  A    between atoms: C_2  and  C_3
REMARK    3  A    between atoms: C_8  and  C_9
REMARK    4  A    between atoms: C_9  and  C_23
REMARK    5  A    between atoms: N_10  and  O_11
REMARK    6  A    between atoms: O_11  and  C_12
REMARK    7  A    between atoms: C_12  and  C_13
REMARK    8  A    between atoms: C_13  and  N_14
REMARK    9  A    between atoms: C_18  and  C_19
REMARK   10  A    between atoms: C_19  and  O_21
REMARK   11  A    between atoms: C_28  and  C_29
REMARK   12  A    between atoms: C_29  and  C_30
REMARK                            x       y       z     vdW  Elec       q    Type
REMARK                         _______ _______ _______ _____ _____    ______ ____
ROOT
ATOM      1  C   UNL     1       3.907   6.234  18.171  0.00  0.00    +0.000 C 
ATOM      2  N   UNL     1       3.614   7.366  17.608  0.00  0.00    +0.000 NA
ENDROOT
BRANCH   1   8
ATOM      3  C   UNL     1       2.417   4.093  18.497  0.00  0.00    +0.000 A 
ATOM      4  C   UNL     1       1.394   3.467  19.253  0.00  0.00    +0.000 A 
ATOM      5  C   UNL     1       0.857   4.055  20.392  0.00  0.00    +0.000 A 
ATOM      6  C   UNL     1       1.377   5.256  20.846  0.00  0.00    +0.000 A 
ATOM      7  C   UNL     1       2.427   5.866  20.154  0.00  0.00    +0.000 A 
ATOM      8  C   UNL     1       2.930   5.339  18.942  0.00  0.00    +0.000 A 
BRANCH   3  10
ATOM      9  C   UNL     1       3.586   2.139  17.453  0.00  0.00    +0.000 C 
ATOM     10  C   UNL     1       2.764   3.387  17.203  0.00  0.00    +0.000 C 
ENDBRANCH   3  10
ENDBRANCH   1   8
BRANCH   1  11
ATOM     11  C   UNL     1       5.345   5.753  17.966  0.00  0.00    +0.000 A 
ATOM     12  C   UNL     1       6.182   5.657  19.093  0.00  0.00    +0.000 A 
ATOM     13  C   UNL     1       7.444   5.064  19.016  0.00  0.00    +0.000 A 
ATOM     14  C   UNL     1       7.922   4.608  17.797  0.00  0.00    +0.000 A 
ATOM     15  C   UNL     1       7.147   4.765  16.651  0.00  0.00    +0.000 A 
ATOM     16  C   UNL     1       5.851   5.326  16.706  0.00  0.00    +0.000 A 
BRANCH  16  17
ATOM     17  C   UNL     1       5.119   5.409  15.379  0.00  0.00    +0.000 C 
ATOM     18  C   UNL     1       5.540   4.316  14.400  0.00  0.00    +0.000 C 
ENDBRANCH  16  17
ENDBRANCH   1  11
BRANCH   2  19
ATOM     19  O   UNL     1       2.255   7.633  17.570  0.00  0.00    +0.000 OA
BRANCH  19  20
ATOM     20  C   UNL     1       2.067   9.034  17.747  0.00  0.00    +0.000 C 
BRANCH  20  21
ATOM     21  C   UNL     1       1.288   9.222  19.050  0.00  0.00    +0.000 C 
BRANCH  21  22
ATOM     22  N   UNL     1       0.611  10.525  19.201  0.00  0.00    +0.000 NA
ATOM     23  C   UNL     1      -0.581  10.556  18.338  0.00  0.00    +0.000 C 
ATOM     24  C   UNL     1      -1.348  11.877  18.511  0.00  0.00    +0.000 C 
ATOM     25  C   UNL     1      -0.452  13.079  18.421  0.00  0.00    +0.000 C 
ATOM     26  C   UNL     1       0.884  12.957  18.572  0.00  0.00    +0.000 C 
ATOM     27  C   UNL     1       1.541  11.625  18.846  0.00  0.00    +0.000 C 
BRANCH  26  28
ATOM     28  C   UNL     1       1.868  14.071  18.423  0.00  0.00    +0.000 C 
ATOM     29  O   UNL     1       1.652  15.192  18.848  0.00  0.00    +0.000 OA
BRANCH  28  30
ATOM     30  O   UNL     1       2.986  13.742  17.756  0.00  0.00    +0.000 OA
ATOM     31  H   UNL     1       3.040  14.102  16.855  0.00  0.00    +0.000 HD
ENDBRANCH  28  30
ENDBRANCH  26  28
ENDBRANCH  21  22
ENDBRANCH  20  21
ENDBRANCH  19  20
ENDBRANCH   2  19
TORSDOF 10
ENDMDL
MODEL 9
REMARK VINA RESULT:      -7.7      1.085      4.153
REMARK  Name = 
REMARK  12 active torsions:
REMARK  status: ('A' for Active; 'I' for Inactive)
REMARK    1  A    between atoms: C_1  and  C_2
REMARK    2  A    between atoms: C_2  and  C_3
REMARK    3  A    between atoms: C_8  and  C_9
REMARK    4  A    between atoms: C_9  and  C_23
REMARK    5  A    between atoms: N_10  and  O_11
REMARK    6  A    between atoms: O_11  and  C_12
REMARK    7  A    between atoms: C_12  and  C_13
REMARK    8  A    between atoms: C_13  and  N_14
REMARK    9  A    between atoms: C_18  and  C_19
REMARK   10  A    between atoms: C_19  and  O_21
REMARK   11  A    between atoms: C_28  and  C_29
REMARK   12  A    between atoms: C_29  and  C_30
REMARK                            x       y       z     vdW  Elec       q    Type
REMARK                         _______ _______ _______ _____ _____    ______ ____
ROOT
ATOM      1  C   UNL     1       3.442   5.682  17.912  0.00  0.00    +0.000 C 
ATOM      2  N   UNL     1       2.630   6.679  17.737  0.00  0.00    +0.000 NA
ENDROOT
BRANCH   1   8
ATOM      3  C   UNL     1       5.820   5.832  16.802  0.00  0.00    +0.000 A 
ATOM      4  C   UNL     1       7.223   5.740  16.991  0.00  0.00    +0.000 A 
ATOM      5  C   UNL     1       7.784   5.554  18.248  0.00  0.00    +0.000 A 
ATOM      6  C   UNL     1       6.962   5.522  19.362  0.00  0.00    +0.000 A 
ATOM      7  C   UNL     1       5.580   5.671  19.211  0.00  0.00    +0.000 A 
ATOM      8  C   UNL     1       4.973   5.768  17.938  0.00  0.00    +0.000 A 
BRANCH   3  10
ATOM      9  C   UNL     1       5.678   4.561  14.648  0.00  0.00    +0.000 C 
ATOM     10  C   UNL     1       5.383   5.870  15.353  0.00  0.00    +0.000 C 
ENDBRANCH   3  10
ENDBRANCH   1   8
BRANCH   1  11
ATOM     11  C   UNL     1       2.774   4.332  18.181  0.00  0.00    +0.000 A 
ATOM     12  C   UNL     1       2.796   3.363  17.161  0.00  0.00    +0.000 A 
ATOM     13  C   UNL     1       2.366   2.054  17.389  0.00  0.00    +0.000 A 
ATOM     14  C   UNL     1       1.847   1.701  18.625  0.00  0.00    +0.000 A 
ATOM     15  C   UNL     1       1.739   2.661  19.626  0.00  0.00    +0.000 A 
ATOM     16  C   UNL     1       2.201   3.983  19.436  0.00  0.00    +0.000 A 
BRANCH  16  17
ATOM     17  C   UNL     1       2.037   4.910  20.628  0.00  0.00    +0.000 C 
ATOM     18  C   UNL     1       2.289   4.212  21.962  0.00  0.00    +0.000 C 
ENDBRANCH  16  17
ENDBRANCH   1  11
BRANCH   2  19
ATOM     19  O   UNL     1       3.251   7.916  17.778  0.00  0.00    +0.000 OA
BRANCH  19  20
ATOM     20  C   UNL     1       2.245   8.923  17.832  0.00  0.00    +0.000 C 
BRANCH  20  21
ATOM     21  C   UNL     1       1.487   8.731  19.146  0.00  0.00    +0.000 C 
BRANCH  21  22
ATOM     22  N   UNL     1       0.565   9.825  19.511  0.00  0.00    +0.000 NA
ATOM     23  C   UNL     1       1.197  11.117  19.201  0.00  0.00    +0.000 C 
ATOM     24  C   UNL     1       0.245  12.282  19.513  0.00  0.00    +0.000 C 
ATOM     25  C   UNL     1      -0.370  12.174  20.879  0.00  0.00    +0.000 C 
ATOM     26  C   UNL     1      -0.372  10.999  21.544  0.00  0.00    +0.000 C 
ATOM     27  C   UNL     1       0.226   9.744  20.953  0.00  0.00    +0.000 C 
BRANCH  26  28
ATOM     28  C   UNL     1      -0.883  10.803  22.933  0.00  0.00    +0.000 C 
ATOM     29  O   UNL     1      -1.915  11.316  23.327  0.00  0.00    +0.000 OA
BRANCH  28  30
ATOM     30  O   UNL     1      -0.096  10.046  23.715  0.00  0.00    +0.000 OA
ATOM     31  H   UNL     1       0.412   9.367  23.240  0.00  0.00    +0.000 HD
ENDBRANCH  28  30
ENDBRANCH  26  28
ENDBRANCH  21  22
ENDBRANCH  20  21
ENDBRANCH  19  20
ENDBRANCH   2  19
TORSDOF 10
ENDMDL
