MODEL 1
REMARK VINA RESULT:      -9.3      0.000      0.000
REMARK  Name = 
REMARK  9 active torsions:
REMARK  status: ('A' for Active; 'I' for Inactive)
REMARK    1  A    between atoms: C_1  and  C_2
REMARK    2  A    between atoms: C_2  and  C_3
REMARK    3  A    between atoms: C_6  and  C_7
REMARK    4  A    between atoms: C_9  and  C_10
REMARK    5  A    between atoms: N_12  and  C_13
REMARK    6  A    between atoms: C_16  and  O_17
REMARK    7  A    between atoms: O_17  and  C_18
REMARK    8  A    between atoms: C_22  and  C_23
REMARK    9  A    between atoms: N_25  and  C_26
REMARK                            x       y       z     vdW  Elec       q    Type
REMARK                         _______ _______ _______ _____ _____    ______ ____
ROOT
ATOM      1  C   UNL     1       1.817   8.561  19.044  0.00  0.00    +0.000 A 
ATOM      2  C   UNL     1       2.493   8.295  17.849  0.00  0.00    +0.000 A 
ATOM      3  C   UNL     1       3.078   7.049  17.607  0.00  0.00    +0.000 A 
ATOM      4  C   UNL     1       3.009   6.046  18.567  0.00  0.00    +0.000 A 
ATOM      5  C   UNL     1       2.376   6.331  19.783  0.00  0.00    +0.000 A 
ATOM      6  F   UNL     1       2.313   5.414  20.761  0.00  0.00    +0.000 F 
ATOM      7  C   UNL     1       1.766   7.567  20.020  0.00  0.00    +0.000 A 
ENDROOT
BRANCH   1  10
ATOM      8  C   UNL     1       0.137  10.328  18.589  0.00  0.00    +0.000 C 
ATOM      9  O   UNL     1      -0.471   9.776  17.680  0.00  0.00    +0.000 OA
ATOM     10  N   UNL     1       1.202   9.808  19.305  0.00  0.00    +0.000 N 
ATOM     11  H   UNL     1       1.501  10.351  20.109  0.00  0.00    +0.000 HD
BRANCH   8  14
ATOM     12  C   UNL     1      -1.824  12.990  20.277  0.00  0.00    +0.000 A 
ATOM     13  C   UNL     1      -1.446  11.742  19.836  0.00  0.00    +0.000 A 
ATOM     14  C   UNL     1      -0.323  11.680  19.027  0.00  0.00    +0.000 A 
ATOM     15  N   UNL     1       0.407  12.746  18.630  0.00  0.00    +0.000 NA
ATOM     16  C   UNL     1      -0.064  13.911  19.090  0.00  0.00    +0.000 A 
ATOM     17  N   UNL     1      -1.140  14.088  19.887  0.00  0.00    +0.000 NA
BRANCH  12  21
ATOM     18  C   UNL     1      -5.188  13.551  22.913  0.00  0.00    +0.000 A 
ATOM     19  C   UNL     1      -4.129  12.718  23.285  0.00  0.00    +0.000 A 
ATOM     20  C   UNL     1      -3.035  12.545  22.434  0.00  0.00    +0.000 A 
ATOM     21  C   UNL     1      -2.960  13.200  21.191  0.00  0.00    +0.000 A 
ATOM     22  C   UNL     1      -4.012  14.067  20.853  0.00  0.00    +0.000 A 
ATOM     23  C   UNL     1      -5.112  14.241  21.701  0.00  0.00    +0.000 A 
BRANCH  18  25
ATOM     24  C   UNL     1      -7.297  12.481  23.762  0.00  0.00    +0.000 C 
ATOM     25  C   UNL     1      -6.390  13.699  23.805  0.00  0.00    +0.000 C 
ENDBRANCH  18  25
ENDBRANCH  12  21
ENDBRANCH   8  14
ENDBRANCH   1  10
BRANCH   4  26
ATOM     26  O   UNL     1       3.644   4.867  18.237  0.00  0.00    +0.000 OA
BRANCH  26  27
ATOM     27  C   UNL     1       4.961   4.877  17.841  0.00  0.00    +0.000 A 
ATOM     28  C   UNL     1       6.033   4.968  18.725  0.00  0.00    +0.000 A 
ATOM     29  C   UNL     1       7.308   5.072  18.205  0.00  0.00    +0.000 A 
ATOM     30  N   UNL     1       7.595   4.999  16.889  0.00  0.00    +0.000 NA
ATOM     31  C   UNL     1       6.536   4.815  16.051  0.00  0.00    +0.000 A 
ATOM     32  C   UNL     1       5.214   4.750  16.476  0.00  0.00    +0.000 A 
BRANCH  31  33
ATOM     33  C   UNL     1       6.870   4.681  14.594  0.00  0.00    +0.000 C 
ATOM     34  O   UNL     1       7.718   5.402  14.073  0.00  0.00    +0.000 OA
ATOM     35  N   UNL     1       6.159   3.713  13.913  0.00  0.00    +0.000 N 
ATOM     36  C   UNL     1       6.335   3.443  12.507  0.00  0.00    +0.000 C 
ATOM     37  H   UNL     1       5.489   3.178  14.458  0.00  0.00    +0.000 HD
ENDBRANCH  31  33
ENDBRANCH  26  27
ENDBRANCH   4  26
TORSDOF 7
ENDMDL
MODEL 2
REMARK VINA RESULT:      -8.9      2.537      3.717
REMARK  Name = 
REMARK  9 active torsions:
REMARK  status: ('A' for Active; 'I' for Inactive)
REMARK    1  A    between atoms: C_1  and  C_2
REMARK    2  A    between atoms: C_2  and  C_3
REMARK    3  A    between atoms: C_6  and  C_7
REMARK    4  A    between atoms: C_9  and  C_10
REMARK    5  A    between atoms: N_12  and  C_13
REMARK    6  A    between atoms: C_16  and  O_17
REMARK    7  A    between atoms: O_17  and  C_18
REMARK    8  A    between atoms: C_22  and  C_23
REMARK    9  A    between atoms: N_25  and  C_26
REMARK                            x       y       z     vdW  Elec       q    Type
REMARK                         _______ _______ _______ _____ _____    ______ ____
ROOT
ATOM      1  C   UNL     1       1.580   8.024  19.875  0.00  0.00    +0.000 A 
ATOM      2  C   UNL     1       1.612   6.788  20.528  0.00  0.00    +0.000 A 
ATOM      3  C   UNL     1       2.352   5.717  20.021  0.00  0.00    +0.000 A 
ATOM      4  C   UNL     1       3.066   5.860  18.836  0.00  0.00    +0.000 A 
ATOM      5  C   UNL     1       2.992   7.081  18.158  0.00  0.00    +0.000 A 
ATOM      6  F   UNL     1       3.629   7.264  16.991  0.00  0.00    +0.000 F 
ATOM      7  C   UNL     1       2.275   8.165  18.676  0.00  0.00    +0.000 A 
ENDROOT
BRANCH   1  10
ATOM      8  C   UNL     1       0.987   9.646  21.656  0.00  0.00    +0.000 C 
ATOM      9  O   UNL     1       1.785   9.282  22.511  0.00  0.00    +0.000 OA
ATOM     10  N   UNL     1       0.853   9.128  20.379  0.00  0.00    +0.000 N 
ATOM     11  H   UNL     1       0.228   9.635  19.760  0.00  0.00    +0.000 HD
BRANCH   8  14
ATOM     12  C   UNL     1      -0.593  13.003  21.534  0.00  0.00    +0.000 A 
ATOM     13  C   UNL     1       0.280  11.972  21.270  0.00  0.00    +0.000 A 
ATOM     14  C   UNL     1       0.087  10.794  21.974  0.00  0.00    +0.000 A 
ATOM     15  N   UNL     1      -0.875  10.595  22.902  0.00  0.00    +0.000 NA
ATOM     16  C   UNL     1      -1.648  11.669  23.103  0.00  0.00    +0.000 A 
ATOM     17  N   UNL     1      -1.555  12.860  22.471  0.00  0.00    +0.000 NA
BRANCH  12  21
ATOM     18  C   UNL     1      -0.527  16.758  19.418  0.00  0.00    +0.000 A 
ATOM     19  C   UNL     1      -0.703  16.730  20.804  0.00  0.00    +0.000 A 
ATOM     20  C   UNL     1      -0.714  15.513  21.490  0.00  0.00    +0.000 A 
ATOM     21  C   UNL     1      -0.545  14.289  20.817  0.00  0.00    +0.000 A 
ATOM     22  C   UNL     1      -0.325  14.339  19.432  0.00  0.00    +0.000 A 
ATOM     23  C   UNL     1      -0.315  15.555  18.740  0.00  0.00    +0.000 A 
BRANCH  18  25
ATOM     24  C   UNL     1      -1.976  18.472  18.290  0.00  0.00    +0.000 C 
ATOM     25  C   UNL     1      -0.564  18.064  18.672  0.00  0.00    +0.000 C 
ENDBRANCH  18  25
ENDBRANCH  12  21
ENDBRANCH   8  14
ENDBRANCH   1  10
BRANCH   4  26
ATOM     26  O   UNL     1       3.738   4.732  18.411  0.00  0.00    +0.000 OA
BRANCH  26  27
ATOM     27  C   UNL     1       5.041   4.823  17.982  0.00  0.00    +0.000 A 
ATOM     28  C   UNL     1       6.126   5.007  18.835  0.00  0.00    +0.000 A 
ATOM     29  C   UNL     1       7.377   5.185  18.281  0.00  0.00    +0.000 A 
ATOM     30  N   UNL     1       7.636   5.103  16.960  0.00  0.00    +0.000 NA
ATOM     31  C   UNL     1       6.572   4.829  16.154  0.00  0.00    +0.000 A 
ATOM     32  C   UNL     1       5.269   4.684  16.614  0.00  0.00    +0.000 A 
BRANCH  31  33
ATOM     33  C   UNL     1       6.879   4.686  14.691  0.00  0.00    +0.000 C 
ATOM     34  O   UNL     1       7.707   5.413  14.147  0.00  0.00    +0.000 OA
ATOM     35  N   UNL     1       6.169   3.702  14.033  0.00  0.00    +0.000 N 
ATOM     36  C   UNL     1       6.320   3.421  12.627  0.00  0.00    +0.000 C 
ATOM     37  H   UNL     1       5.517   3.163  14.596  0.00  0.00    +0.000 HD
ENDBRANCH  31  33
ENDBRANCH  26  27
ENDBRANCH   4  26
TORSDOF 7
ENDMDL
MODEL 3
REMARK VINA RESULT:      -8.9      2.529      3.820
REMARK  Name = 
REMARK  9 active torsions:
REMARK  status: ('A' for Active; 'I' for Inactive)
REMARK    1  A    between atoms: C_1  and  C_2
REMARK    2  A    between atoms: C_2  and  C_3
REMARK    3  A    between atoms: C_6  and  C_7
REMARK    4  A    between atoms: C_9  and  C_10
REMARK    5  A    between atoms: N_12  and  C_13
REMARK    6  A    between atoms: C_16  and  O_17
REMARK    7  A    between atoms: O_17  and  C_18
REMARK    8  A    between atoms: C_22  and  C_23
REMARK    9  A    between atoms: N_25  and  C_26
REMARK                            x       y       z     vdW  Elec       q    Type
REMARK                         _______ _______ _______ _____ _____    ______ ____
ROOT
ATOM      1  C   UNL     1       1.795   7.873  19.942  0.00  0.00    +0.000 A 
ATOM      2  C   UNL     1       2.311   7.878  18.643  0.00  0.00    +0.000 A 
ATOM      3  C   UNL     1       2.860   6.726  18.075  0.00  0.00    +0.000 A 
ATOM      4  C   UNL     1       2.917   5.544  18.806  0.00  0.00    +0.000 A 
ATOM      5  C   UNL     1       2.447   5.554  20.124  0.00  0.00    +0.000 A 
ATOM      6  F   UNL     1       2.511   4.454  20.890  0.00  0.00    +0.000 F 
ATOM      7  C   UNL     1       1.871   6.698  20.688  0.00  0.00    +0.000 A 
ENDROOT
BRANCH   1  10
ATOM      8  C   UNL     1       0.067   9.019  21.304  0.00  0.00    +0.000 C 
ATOM      9  O   UNL     1      -0.581   8.037  21.645  0.00  0.00    +0.000 OA
ATOM     10  N   UNL     1       1.217   9.021  20.533  0.00  0.00    +0.000 N 
ATOM     11  H   UNL     1       1.695   9.914  20.455  0.00  0.00    +0.000 HD
BRANCH   8  14
ATOM     12  C   UNL     1      -0.501  12.684  21.458  0.00  0.00    +0.000 A 
ATOM     13  C   UNL     1      -0.040  11.462  21.023  0.00  0.00    +0.000 A 
ATOM     14  C   UNL     1      -0.373  10.359  21.793  0.00  0.00    +0.000 A 
ATOM     15  N   UNL     1      -1.095  10.401  22.936  0.00  0.00    +0.000 NA
ATOM     16  C   UNL     1      -1.467  11.638  23.282  0.00  0.00    +0.000 A 
ATOM     17  N   UNL     1      -1.206  12.779  22.607  0.00  0.00    +0.000 NA
BRANCH  12  21
ATOM     18  C   UNL     1       0.236  16.321  19.264  0.00  0.00    +0.000 A 
ATOM     19  C   UNL     1      -0.134  15.152  18.593  0.00  0.00    +0.000 A 
ATOM     20  C   UNL     1      -0.382  13.976  19.306  0.00  0.00    +0.000 A 
ATOM     21  C   UNL     1      -0.276  13.932  20.708  0.00  0.00    +0.000 A 
ATOM     22  C   UNL     1       0.053  15.126  21.369  0.00  0.00    +0.000 A 
ATOM     23  C   UNL     1       0.306  16.305  20.659  0.00  0.00    +0.000 A 
BRANCH  18  25
ATOM     24  C   UNL     1      -0.521  17.912  17.474  0.00  0.00    +0.000 C 
ATOM     25  C   UNL     1       0.552  17.574  18.494  0.00  0.00    +0.000 C 
ENDBRANCH  18  25
ENDBRANCH  12  21
ENDBRANCH   8  14
ENDBRANCH   1  10
BRANCH   4  26
ATOM     26  O   UNL     1       3.505   4.477  18.159  0.00  0.00    +0.000 OA
BRANCH  26  27
ATOM     27  C   UNL     1       4.818   4.549  17.758  0.00  0.00    +0.000 A 
ATOM     28  C   UNL     1       5.892   4.662  18.638  0.00  0.00    +0.000 A 
ATOM     29  C   UNL     1       7.158   4.828  18.114  0.00  0.00    +0.000 A 
ATOM     30  N   UNL     1       7.439   4.798  16.796  0.00  0.00    +0.000 NA
ATOM     31  C   UNL     1       6.384   4.592  15.959  0.00  0.00    +0.000 A 
ATOM     32  C   UNL     1       5.068   4.465  16.389  0.00  0.00    +0.000 A 
BRANCH  31  33
ATOM     33  C   UNL     1       6.714   4.506  14.497  0.00  0.00    +0.000 C 
ATOM     34  O   UNL     1       6.175   3.670  13.776  0.00  0.00    +0.000 OA
ATOM     35  N   UNL     1       7.652   5.416  14.051  0.00  0.00    +0.000 N 
ATOM     36  C   UNL     1       8.103   5.482  12.683  0.00  0.00    +0.000 C 
ATOM     37  H   UNL     1       8.020   6.061  14.744  0.00  0.00    +0.000 HD
ENDBRANCH  31  33
ENDBRANCH  26  27
ENDBRANCH   4  26
TORSDOF 7
ENDMDL
MODEL 4
REMARK VINA RESULT:      -8.8      7.107     12.802
REMARK  Name = 
REMARK  9 active torsions:
REMARK  status: ('A' for Active; 'I' for Inactive)
REMARK    1  A    between atoms: C_1  and  C_2
REMARK    2  A    between atoms: C_2  and  C_3
REMARK    3  A    between atoms: C_6  and  C_7
REMARK    4  A    between atoms: C_9  and  C_10
REMARK    5  A    between atoms: N_12  and  C_13
REMARK    6  A    between atoms: C_16  and  O_17
REMARK    7  A    between atoms: O_17  and  C_18
REMARK    8  A    between atoms: C_22  and  C_23
REMARK    9  A    between atoms: N_25  and  C_26
REMARK                            x       y       z     vdW  Elec       q    Type
REMARK                         _______ _______ _______ _____ _____    ______ ____
ROOT
ATOM      1  C   UNL     1       9.486  10.506  19.264  0.00  0.00    +0.000 A 
ATOM      2  C   UNL     1       9.338  11.062  20.538  0.00  0.00    +0.000 A 
ATOM      3  C   UNL     1       9.726  12.377  20.807  0.00  0.00    +0.000 A 
ATOM      4  C   UNL     1      10.286  13.160  19.802  0.00  0.00    +0.000 A 
ATOM      5  C   UNL     1      10.479  12.585  18.541  0.00  0.00    +0.000 A 
ATOM      6  F   UNL     1      11.050  13.280  17.545  0.00  0.00    +0.000 F 
ATOM      7  C   UNL     1      10.068  11.278  18.260  0.00  0.00    +0.000 A 
ENDROOT
BRANCH   1  10
ATOM      8  C   UNL     1       8.076   8.847  18.075  0.00  0.00    +0.000 C 
ATOM      9  O   UNL     1       7.431   9.619  17.376  0.00  0.00    +0.000 OA
ATOM     10  N   UNL     1       9.084   9.183  18.963  0.00  0.00    +0.000 N 
ATOM     11  H   UNL     1       9.597   8.405  19.364  0.00  0.00    +0.000 HD
BRANCH   8  14
ATOM     12  C   UNL     1       7.101   5.575  16.617  0.00  0.00    +0.000 A 
ATOM     13  C   UNL     1       7.292   6.933  16.740  0.00  0.00    +0.000 A 
ATOM     14  C   UNL     1       7.805   7.384  17.946  0.00  0.00    +0.000 A 
ATOM     15  N   UNL     1       8.110   6.597  19.002  0.00  0.00    +0.000 NA
ATOM     16  C   UNL     1       7.858   5.301  18.786  0.00  0.00    +0.000 A 
ATOM     17  N   UNL     1       7.368   4.751  17.653  0.00  0.00    +0.000 NA
BRANCH  12  21
ATOM     18  C   UNL     1       5.735   3.683  12.993  0.00  0.00    +0.000 A 
ATOM     19  C   UNL     1       4.934   3.678  14.138  0.00  0.00    +0.000 A 
ATOM     20  C   UNL     1       5.374   4.301  15.309  0.00  0.00    +0.000 A 
ATOM     21  C   UNL     1       6.620   4.950  15.372  0.00  0.00    +0.000 A 
ATOM     22  C   UNL     1       7.392   4.982  14.200  0.00  0.00    +0.000 A 
ATOM     23  C   UNL     1       6.957   4.358  13.025  0.00  0.00    +0.000 A 
BRANCH  18  25
ATOM     24  C   UNL     1       6.136   1.750  11.439  0.00  0.00    +0.000 C 
ATOM     25  C   UNL     1       5.286   2.970  11.747  0.00  0.00    +0.000 C 
ENDBRANCH  18  25
ENDBRANCH  12  21
ENDBRANCH   8  14
ENDBRANCH   1  10
BRANCH   4  26
ATOM     26  O   UNL     1      10.659  14.432  20.183  0.00  0.00    +0.000 OA
BRANCH  26  27
ATOM     27  C   UNL     1      10.107  15.529  19.566  0.00  0.00    +0.000 A 
ATOM     28  C   UNL     1      10.854  16.511  18.919  0.00  0.00    +0.000 A 
ATOM     29  C   UNL     1      10.197  17.619  18.423  0.00  0.00    +0.000 A 
ATOM     30  N   UNL     1       8.858  17.774  18.443  0.00  0.00    +0.000 NA
ATOM     31  C   UNL     1       8.142  16.756  18.997  0.00  0.00    +0.000 A 
ATOM     32  C   UNL     1       8.717  15.626  19.567  0.00  0.00    +0.000 A 
BRANCH  31  33
ATOM     33  C   UNL     1       6.649  16.913  18.966  0.00  0.00    +0.000 C 
ATOM     34  O   UNL     1       6.112  17.926  19.407  0.00  0.00    +0.000 OA
ATOM     35  N   UNL     1       5.956  15.850  18.422  0.00  0.00    +0.000 N 
ATOM     36  C   UNL     1       4.519  15.814  18.313  0.00  0.00    +0.000 C 
ATOM     37  H   UNL     1       6.516  15.071  18.085  0.00  0.00    +0.000 HD
ENDBRANCH  31  33
ENDBRANCH  26  27
ENDBRANCH   4  26
TORSDOF 7
ENDMDL
MODEL 5
REMARK VINA RESULT:      -8.7      2.552      3.874
REMARK  Name = 
REMARK  9 active torsions:
REMARK  status: ('A' for Active; 'I' for Inactive)
REMARK    1  A    between atoms: C_1  and  C_2
REMARK    2  A    between atoms: C_2  and  C_3
REMARK    3  A    between atoms: C_6  and  C_7
REMARK    4  A    between atoms: C_9  and  C_10
REMARK    5  A    between atoms: N_12  and  C_13
REMARK    6  A    between atoms: C_16  and  O_17
REMARK    7  A    between atoms: O_17  and  C_18
REMARK    8  A    between atoms: C_22  and  C_23
REMARK    9  A    between atoms: N_25  and  C_26
REMARK                            x       y       z     vdW  Elec       q    Type
REMARK                         _______ _______ _______ _____ _____    ______ ____
ROOT
ATOM      1  C   UNL     1       1.610   8.021  19.861  0.00  0.00    +0.000 A 
ATOM      2  C   UNL     1       2.288   7.984  18.639  0.00  0.00    +0.000 A 
ATOM      3  C   UNL     1       2.931   6.824  18.200  0.00  0.00    +0.000 A 
ATOM      4  C   UNL     1       2.919   5.678  18.987  0.00  0.00    +0.000 A 
ATOM      5  C   UNL     1       2.283   5.732  20.232  0.00  0.00    +0.000 A 
ATOM      6  F   UNL     1       2.272   4.669  21.050  0.00  0.00    +0.000 F 
ATOM      7  C   UNL     1       1.615   6.883  20.664  0.00  0.00    +0.000 A 
ENDROOT
BRANCH   1  10
ATOM      8  C   UNL     1       1.032   9.692  21.601  0.00  0.00    +0.000 C 
ATOM      9  O   UNL     1       1.749   9.275  22.503  0.00  0.00    +0.000 OA
ATOM     10  N   UNL     1       0.936   9.179  20.319  0.00  0.00    +0.000 N 
ATOM     11  H   UNL     1       0.388   9.726  19.663  0.00  0.00    +0.000 HD
BRANCH   8  14
ATOM     12  C   UNL     1      -0.304  13.148  21.369  0.00  0.00    +0.000 A 
ATOM     13  C   UNL     1       0.507  12.055  21.157  0.00  0.00    +0.000 A 
ATOM     14  C   UNL     1       0.200  10.904  21.864  0.00  0.00    +0.000 A 
ATOM     15  N   UNL     1      -0.815  10.784  22.749  0.00  0.00    +0.000 NA
ATOM     16  C   UNL     1      -1.520  11.911  22.901  0.00  0.00    +0.000 A 
ATOM     17  N   UNL     1      -1.316  13.084  22.262  0.00  0.00    +0.000 NA
BRANCH  12  21
ATOM     18  C   UNL     1       0.119  16.873  19.243  0.00  0.00    +0.000 A 
ATOM     19  C   UNL     1       0.300  16.825  20.628  0.00  0.00    +0.000 A 
ATOM     20  C   UNL     1       0.173  15.615  21.314  0.00  0.00    +0.000 A 
ATOM     21  C   UNL     1      -0.133  14.418  20.642  0.00  0.00    +0.000 A 
ATOM     22  C   UNL     1      -0.268  14.477  19.246  0.00  0.00    +0.000 A 
ATOM     23  C   UNL     1      -0.144  15.687  18.554  0.00  0.00    +0.000 A 
BRANCH  18  25
ATOM     24  C   UNL     1      -0.475  18.134  17.153  0.00  0.00    +0.000 C 
ATOM     25  C   UNL     1       0.207  18.183  18.509  0.00  0.00    +0.000 C 
ENDBRANCH  18  25
ENDBRANCH  12  21
ENDBRANCH   8  14
ENDBRANCH   1  10
BRANCH   4  26
ATOM     26  O   UNL     1       3.608   4.600  18.471  0.00  0.00    +0.000 OA
BRANCH  26  27
ATOM     27  C   UNL     1       4.903   4.751  18.033  0.00  0.00    +0.000 A 
ATOM     28  C   UNL     1       5.977   5.029  18.875  0.00  0.00    +0.000 A 
ATOM     29  C   UNL     1       7.215   5.260  18.308  0.00  0.00    +0.000 A 
ATOM     30  N   UNL     1       7.475   5.144  16.990  0.00  0.00    +0.000 NA
ATOM     31  C   UNL     1       6.427   4.779  16.199  0.00  0.00    +0.000 A 
ATOM     32  C   UNL     1       5.136   4.575  16.670  0.00  0.00    +0.000 A 
BRANCH  31  33
ATOM     33  C   UNL     1       6.739   4.600  14.742  0.00  0.00    +0.000 C 
ATOM     34  O   UNL     1       6.167   3.742  14.075  0.00  0.00    +0.000 OA
ATOM     35  N   UNL     1       7.699   5.454  14.235  0.00  0.00    +0.000 N 
ATOM     36  C   UNL     1       8.137   5.428  12.862  0.00  0.00    +0.000 C 
ATOM     37  H   UNL     1       8.094   6.126  14.887  0.00  0.00    +0.000 HD
ENDBRANCH  31  33
ENDBRANCH  26  27
ENDBRANCH   4  26
TORSDOF 7
ENDMDL
MODEL 6
REMARK VINA RESULT:      -8.7      4.264     11.071
REMARK  Name = 
REMARK  9 active torsions:
REMARK  status: ('A' for Active; 'I' for Inactive)
REMARK    1  A    between atoms: C_1  and  C_2
REMARK    2  A    between atoms: C_2  and  C_3
REMARK    3  A    between atoms: C_6  and  C_7
REMARK    4  A    between atoms: C_9  and  C_10
REMARK    5  A    between atoms: N_12  and  C_13
REMARK    6  A    between atoms: C_16  and  O_17
REMARK    7  A    between atoms: O_17  and  C_18
REMARK    8  A    between atoms: C_22  and  C_23
REMARK    9  A    between atoms: N_25  and  C_26
REMARK                            x       y       z     vdW  Elec       q    Type
REMARK                         _______ _______ _______ _____ _____    ______ ____
ROOT
ATOM      1  C   UNL     1       0.721  10.443  19.607  0.00  0.00    +0.000 A 
ATOM      2  C   UNL     1       1.018  11.252  20.707  0.00  0.00    +0.000 A 
ATOM      3  C   UNL     1       0.528  12.557  20.802  0.00  0.00    +0.000 A 
ATOM      4  C   UNL     1      -0.261  13.083  19.785  0.00  0.00    +0.000 A 
ATOM      5  C   UNL     1      -0.515  12.289  18.661  0.00  0.00    +0.000 A 
ATOM      6  F   UNL     1      -1.239  12.757  17.633  0.00  0.00    +0.000 F 
ATOM      7  C   UNL     1      -0.049  10.972  18.574  0.00  0.00    +0.000 A 
ENDROOT
BRANCH   1  10
ATOM      8  C   UNL     1       1.343   8.237  20.557  0.00  0.00    +0.000 C 
ATOM      9  O   UNL     1       1.039   8.447  21.726  0.00  0.00    +0.000 OA
ATOM     10  N   UNL     1       1.191   9.112  19.495  0.00  0.00    +0.000 N 
ATOM     11  H   UNL     1       1.377   8.727  18.575  0.00  0.00    +0.000 HD
BRANCH   8  14
ATOM     12  C   UNL     1       3.180   5.563  18.754  0.00  0.00    +0.000 A 
ATOM     13  C   UNL     1       2.636   6.795  19.039  0.00  0.00    +0.000 A 
ATOM     14  C   UNL     1       1.889   6.894  20.201  0.00  0.00    +0.000 A 
ATOM     15  N   UNL     1       1.646   5.875  21.056  0.00  0.00    +0.000 NA
ATOM     16  C   UNL     1       2.195   4.717  20.669  0.00  0.00    +0.000 A 
ATOM     17  N   UNL     1       2.944   4.508  19.564  0.00  0.00    +0.000 NA
BRANCH  12  21
ATOM     18  C   UNL     1       5.775   4.888  15.378  0.00  0.00    +0.000 A 
ATOM     19  C   UNL     1       5.296   3.811  16.129  0.00  0.00    +0.000 A 
ATOM     20  C   UNL     1       4.447   4.030  17.217  0.00  0.00    +0.000 A 
ATOM     21  C   UNL     1       4.046   5.327  17.585  0.00  0.00    +0.000 A 
ATOM     22  C   UNL     1       4.501   6.394  16.793  0.00  0.00    +0.000 A 
ATOM     23  C   UNL     1       5.353   6.179  15.704  0.00  0.00    +0.000 A 
BRANCH  18  25
ATOM     24  C   UNL     1       6.138   3.762  13.163  0.00  0.00    +0.000 C 
ATOM     25  C   UNL     1       6.728   4.657  14.238  0.00  0.00    +0.000 C 
ENDBRANCH  18  25
ENDBRANCH  12  21
ENDBRANCH   8  14
ENDBRANCH   1  10
BRANCH   4  26
ATOM     26  O   UNL     1      -0.667  14.389  19.968  0.00  0.00    +0.000 OA
BRANCH  26  27
ATOM     27  C   UNL     1      -0.033  15.411  19.302  0.00  0.00    +0.000 A 
ATOM     28  C   UNL     1      -0.688  16.539  18.812  0.00  0.00    +0.000 A 
ATOM     29  C   UNL     1       0.037  17.450  18.071  0.00  0.00    +0.000 A 
ATOM     30  N   UNL     1       1.367  17.368  17.863  0.00  0.00    +0.000 NA
ATOM     31  C   UNL     1       2.000  16.304  18.432  0.00  0.00    +0.000 A 
ATOM     32  C   UNL     1       1.349  15.309  19.152  0.00  0.00    +0.000 A 
BRANCH  31  33
ATOM     33  C   UNL     1       3.488  16.249  18.240  0.00  0.00    +0.000 C 
ATOM     34  O   UNL     1       4.160  17.278  18.225  0.00  0.00    +0.000 OA
ATOM     35  N   UNL     1       4.016  14.983  18.082  0.00  0.00    +0.000 N 
ATOM     36  C   UNL     1       5.420  14.731  17.879  0.00  0.00    +0.000 C 
ATOM     37  H   UNL     1       3.356  14.211  18.121  0.00  0.00    +0.000 HD
ENDBRANCH  31  33
ENDBRANCH  26  27
ENDBRANCH   4  26
TORSDOF 7
ENDMDL
MODEL 7
REMARK VINA RESULT:      -8.7      1.350      1.631
REMARK  Name = 
REMARK  9 active torsions:
REMARK  status: ('A' for Active; 'I' for Inactive)
REMARK    1  A    between atoms: C_1  and  C_2
REMARK    2  A    between atoms: C_2  and  C_3
REMARK    3  A    between atoms: C_6  and  C_7
REMARK    4  A    between atoms: C_9  and  C_10
REMARK    5  A    between atoms: N_12  and  C_13
REMARK    6  A    between atoms: C_16  and  O_17
REMARK    7  A    between atoms: O_17  and  C_18
REMARK    8  A    between atoms: C_22  and  C_23
REMARK    9  A    between atoms: N_25  and  C_26
REMARK                            x       y       z     vdW  Elec       q    Type
REMARK                         _______ _______ _______ _____ _____    ______ ____
ROOT
ATOM      1  C   UNL     1       1.798   8.704  19.494  0.00  0.00    +0.000 A 
ATOM      2  C   UNL     1       2.248   8.574  18.177  0.00  0.00    +0.000 A 
ATOM      3  C   UNL     1       2.715   7.352  17.686  0.00  0.00    +0.000 A 
ATOM      4  C   UNL     1       2.753   6.235  18.514  0.00  0.00    +0.000 A 
ATOM      5  C   UNL     1       2.349   6.379  19.846  0.00  0.00    +0.000 A 
ATOM      6  F   UNL     1       2.400   5.346  20.700  0.00  0.00    +0.000 F 
ATOM      7  C   UNL     1       1.855   7.594  20.335  0.00  0.00    +0.000 A 
ENDROOT
BRANCH   1  10
ATOM      8  C   UNL     1       0.232  10.041  20.878  0.00  0.00    +0.000 C 
ATOM      9  O   UNL     1      -0.402   9.121  21.380  0.00  0.00    +0.000 OA
ATOM     10  N   UNL     1       1.304   9.926  20.009  0.00  0.00    +0.000 N 
ATOM     11  H   UNL     1       1.791  10.790  19.792  0.00  0.00    +0.000 HD
BRANCH   8  14
ATOM     12  C   UNL     1      -1.759  12.970  21.991  0.00  0.00    +0.000 A 
ATOM     13  C   UNL     1      -1.452  11.690  21.588  0.00  0.00    +0.000 A 
ATOM     14  C   UNL     1      -0.130  11.439  21.259  0.00  0.00    +0.000 A 
ATOM     15  N   UNL     1       0.863  12.355  21.288  0.00  0.00    +0.000 NA
ATOM     16  C   UNL     1       0.451  13.571  21.664  0.00  0.00    +0.000 A 
ATOM     17  N   UNL     1      -0.805  13.926  22.013  0.00  0.00    +0.000 NA
BRANCH  12  21
ATOM     18  C   UNL     1      -5.681  14.146  23.339  0.00  0.00    +0.000 A 
ATOM     19  C   UNL     1      -4.940  14.984  22.502  0.00  0.00    +0.000 A 
ATOM     20  C   UNL     1      -3.673  14.597  22.058  0.00  0.00    +0.000 A 
ATOM     21  C   UNL     1      -3.110  13.363  22.429  0.00  0.00    +0.000 A 
ATOM     22  C   UNL     1      -3.886  12.515  23.234  0.00  0.00    +0.000 A 
ATOM     23  C   UNL     1      -5.155  12.899  23.684  0.00  0.00    +0.000 A 
BRANCH  18  25
ATOM     24  C   UNL     1      -7.394  15.982  23.400  0.00  0.00    +0.000 C 
ATOM     25  C   UNL     1      -7.024  14.582  23.858  0.00  0.00    +0.000 C 
ENDBRANCH  18  25
ENDBRANCH  12  21
ENDBRANCH   8  14
ENDBRANCH   1  10
BRANCH   4  26
ATOM     26  O   UNL     1       3.257   5.088  17.936  0.00  0.00    +0.000 OA
BRANCH  26  27
ATOM     27  C   UNL     1       4.601   4.984  17.664  0.00  0.00    +0.000 A 
ATOM     28  C   UNL     1       5.590   4.961  18.645  0.00  0.00    +0.000 A 
ATOM     29  C   UNL     1       6.912   4.956  18.247  0.00  0.00    +0.000 A 
ATOM     30  N   UNL     1       7.313   4.880  16.962  0.00  0.00    +0.000 NA
ATOM     31  C   UNL     1       6.326   4.809  16.026  0.00  0.00    +0.000 A 
ATOM     32  C   UNL     1       4.969   4.858  16.326  0.00  0.00    +0.000 A 
BRANCH  31  33
ATOM     33  C   UNL     1       6.782   4.670  14.603  0.00  0.00    +0.000 C 
ATOM     34  O   UNL     1       7.682   5.378  14.157  0.00  0.00    +0.000 OA
ATOM     35  N   UNL     1       6.120   3.711  13.862  0.00  0.00    +0.000 N 
ATOM     36  C   UNL     1       6.412   3.438  12.477  0.00  0.00    +0.000 C 
ATOM     37  H   UNL     1       5.398   3.185  14.347  0.00  0.00    +0.000 HD
ENDBRANCH  31  33
ENDBRANCH  26  27
ENDBRANCH   4  26
TORSDOF 7
ENDMDL
MODEL 8
REMARK VINA RESULT:      -8.6      3.072     11.607
REMARK  Name = 
REMARK  9 active torsions:
REMARK  status: ('A' for Active; 'I' for Inactive)
REMARK    1  A    between atoms: C_1  and  C_2
REMARK    2  A    between atoms: C_2  and  C_3
REMARK    3  A    between atoms: C_6  and  C_7
REMARK    4  A    between atoms: C_9  and  C_10
REMARK    5  A    between atoms: N_12  and  C_13
REMARK    6  A    between atoms: C_16  and  O_17
REMARK    7  A    between atoms: O_17  and  C_18
REMARK    8  A    between atoms: C_22  and  C_23
REMARK    9  A    between atoms: N_25  and  C_26
REMARK                            x       y       z     vdW  Elec       q    Type
REMARK                         _______ _______ _______ _____ _____    ______ ____
ROOT
ATOM      1  C   UNL     1       1.553   8.556  19.822  0.00  0.00    +0.000 A 
ATOM      2  C   UNL     1       0.874   8.691  21.037  0.00  0.00    +0.000 A 
ATOM      3  C   UNL     1       0.175   9.859  21.352  0.00  0.00    +0.000 A 
ATOM      4  C   UNL     1       0.153  10.924  20.457  0.00  0.00    +0.000 A 
ATOM      5  C   UNL     1       0.875  10.805  19.264  0.00  0.00    +0.000 A 
ATOM      6  F   UNL     1       0.921  11.814  18.381  0.00  0.00    +0.000 F 
ATOM      7  C   UNL     1       1.554   9.628  18.932  0.00  0.00    +0.000 A 
ENDROOT
BRANCH   1  10
ATOM      8  C   UNL     1       2.106   6.154  20.105  0.00  0.00    +0.000 C 
ATOM      9  O   UNL     1       1.316   5.887  21.003  0.00  0.00    +0.000 OA
ATOM     10  N   UNL     1       2.253   7.377  19.473  0.00  0.00    +0.000 N 
ATOM     11  H   UNL     1       2.867   7.385  18.664  0.00  0.00    +0.000 HD
BRANCH   8  14
ATOM     12  C   UNL     1       4.492   4.292  17.955  0.00  0.00    +0.000 A 
ATOM     13  C   UNL     1       3.648   5.288  18.393  0.00  0.00    +0.000 A 
ATOM     14  C   UNL     1       2.979   5.060  19.584  0.00  0.00    +0.000 A 
ATOM     15  N   UNL     1       3.081   3.935  20.328  0.00  0.00    +0.000 NA
ATOM     16  C   UNL     1       3.902   3.022  19.797  0.00  0.00    +0.000 A 
ATOM     17  N   UNL     1       4.609   3.141  18.652  0.00  0.00    +0.000 NA
BRANCH  12  21
ATOM     18  C   UNL     1       6.866   4.748  14.386  0.00  0.00    +0.000 A 
ATOM     19  C   UNL     1       7.430   4.972  15.644  0.00  0.00    +0.000 A 
ATOM     20  C   UNL     1       6.663   4.814  16.801  0.00  0.00    +0.000 A 
ATOM     21  C   UNL     1       5.313   4.423  16.739  0.00  0.00    +0.000 A 
ATOM     22  C   UNL     1       4.775   4.160  15.469  0.00  0.00    +0.000 A 
ATOM     23  C   UNL     1       5.538   4.319  14.308  0.00  0.00    +0.000 A 
BRANCH  18  25
ATOM     24  C   UNL     1       7.162   4.150  11.964  0.00  0.00    +0.000 C 
ATOM     25  C   UNL     1       7.676   4.965  13.138  0.00  0.00    +0.000 C 
ENDBRANCH  18  25
ENDBRANCH  12  21
ENDBRANCH   8  14
ENDBRANCH   1  10
BRANCH   4  26
ATOM     26  O   UNL     1      -0.543  12.037  20.881  0.00  0.00    +0.000 OA
BRANCH  26  27
ATOM     27  C   UNL     1      -1.860  12.207  20.524  0.00  0.00    +0.000 A 
ATOM     28  C   UNL     1      -2.815  12.796  21.349  0.00  0.00    +0.000 A 
ATOM     29  C   UNL     1      -4.128  12.821  20.922  0.00  0.00    +0.000 A 
ATOM     30  N   UNL     1      -4.537  12.390  19.712  0.00  0.00    +0.000 NA
ATOM     31  C   UNL     1      -3.567  11.904  18.886  0.00  0.00    +0.000 A 
ATOM     32  C   UNL     1      -2.229  11.792  19.245  0.00  0.00    +0.000 A 
BRANCH  31  33
ATOM     33  C   UNL     1      -4.023  11.477  17.521  0.00  0.00    +0.000 C 
ATOM     34  O   UNL     1      -5.211  11.258  17.293  0.00  0.00    +0.000 OA
ATOM     35  N   UNL     1      -3.023  11.351  16.578  0.00  0.00    +0.000 N 
ATOM     36  C   UNL     1      -3.264  10.944  15.217  0.00  0.00    +0.000 C 
ATOM     37  H   UNL     1      -2.080  11.568  16.889  0.00  0.00    +0.000 HD
ENDBRANCH  31  33
ENDBRANCH  26  27
ENDBRANCH   4  26
TORSDOF 7
ENDMDL
MODEL 9
REMARK VINA RESULT:      -8.5      2.214      4.272
REMARK  Name = 
REMARK  9 active torsions:
REMARK  status: ('A' for Active; 'I' for Inactive)
REMARK    1  A    between atoms: C_1  and  C_2
REMARK    2  A    between atoms: C_2  and  C_3
REMARK    3  A    between atoms: C_6  and  C_7
REMARK    4  A    between atoms: C_9  and  C_10
REMARK    5  A    between atoms: N_12  and  C_13
REMARK    6  A    between atoms: C_16  and  O_17
REMARK    7  A    between atoms: O_17  and  C_18
REMARK    8  A    between atoms: C_22  and  C_23
REMARK    9  A    between atoms: N_25  and  C_26
REMARK                            x       y       z     vdW  Elec       q    Type
REMARK                         _______ _______ _______ _____ _____    ______ ____
ROOT
ATOM      1  C   UNL     1       1.894   8.246  19.280  0.00  0.00    +0.000 A 
ATOM      2  C   UNL     1       2.538   8.076  18.051  0.00  0.00    +0.000 A 
ATOM      3  C   UNL     1       3.121   6.856  17.699  0.00  0.00    +0.000 A 
ATOM      4  C   UNL     1       3.082   5.782  18.581  0.00  0.00    +0.000 A 
ATOM      5  C   UNL     1       2.481   5.969  19.831  0.00  0.00    +0.000 A 
ATOM      6  F   UNL     1       2.447   4.980  20.737  0.00  0.00    +0.000 F 
ATOM      7  C   UNL     1       1.872   7.180  20.178  0.00  0.00    +0.000 A 
ENDROOT
BRANCH   1  10
ATOM      8  C   UNL     1       0.316  10.124  18.909  0.00  0.00    +0.000 C 
ATOM      9  O   UNL     1      -0.196   9.731  17.868  0.00  0.00    +0.000 OA
ATOM     10  N   UNL     1       1.281   9.465  19.653  0.00  0.00    +0.000 N 
ATOM     11  H   UNL     1       1.499   9.876  20.555  0.00  0.00    +0.000 HD
BRANCH   8  14
ATOM     12  C   UNL     1       0.314  13.622  20.153  0.00  0.00    +0.000 A 
ATOM     13  C   UNL     1       0.778  12.418  19.672  0.00  0.00    +0.000 A 
ATOM     14  C   UNL     1      -0.160  11.416  19.487  0.00  0.00    +0.000 A 
ATOM     15  N   UNL     1      -1.480  11.529  19.757  0.00  0.00    +0.000 NA
ATOM     16  C   UNL     1      -1.818  12.728  20.247  0.00  0.00    +0.000 A 
ATOM     17  N   UNL     1      -0.992  13.775  20.461  0.00  0.00    +0.000 NA
BRANCH  12  21
ATOM     18  C   UNL     1       2.809  17.088  20.733  0.00  0.00    +0.000 A 
ATOM     19  C   UNL     1       2.815  16.047  21.667  0.00  0.00    +0.000 A 
ATOM     20  C   UNL     1       2.013  14.920  21.472  0.00  0.00    +0.000 A 
ATOM     21  C   UNL     1       1.187  14.793  20.341  0.00  0.00    +0.000 A 
ATOM     22  C   UNL     1       1.227  15.827  19.393  0.00  0.00    +0.000 A 
ATOM     23  C   UNL     1       2.026  16.960  19.584  0.00  0.00    +0.000 A 
BRANCH  18  25
ATOM     24  C   UNL     1       5.121  18.023  21.036  0.00  0.00    +0.000 C 
ATOM     25  C   UNL     1       3.634  18.324  20.966  0.00  0.00    +0.000 C 
ENDBRANCH  18  25
ENDBRANCH  12  21
ENDBRANCH   8  14
ENDBRANCH   1  10
BRANCH   4  26
ATOM     26  O   UNL     1       3.712   4.635  18.145  0.00  0.00    +0.000 OA
BRANCH  26  27
ATOM     27  C   UNL     1       5.025   4.679  17.737  0.00  0.00    +0.000 A 
ATOM     28  C   UNL     1       6.105   4.754  18.614  0.00  0.00    +0.000 A 
ATOM     29  C   UNL     1       7.372   4.895  18.086  0.00  0.00    +0.000 A 
ATOM     30  N   UNL     1       7.647   4.874  16.766  0.00  0.00    +0.000 NA
ATOM     31  C   UNL     1       6.583   4.705  15.932  0.00  0.00    +0.000 A 
ATOM     32  C   UNL     1       5.266   4.605  16.367  0.00  0.00    +0.000 A 
BRANCH  31  33
ATOM     33  C   UNL     1       6.905   4.629  14.468  0.00  0.00    +0.000 C 
ATOM     34  O   UNL     1       7.709   5.405  13.957  0.00  0.00    +0.000 OA
ATOM     35  N   UNL     1       6.235   3.646  13.767  0.00  0.00    +0.000 N 
ATOM     36  C   UNL     1       6.405   3.424  12.353  0.00  0.00    +0.000 C 
ATOM     37  H   UNL     1       5.599   3.062  14.305  0.00  0.00    +0.000 HD
ENDBRANCH  31  33
ENDBRANCH  26  27
ENDBRANCH   4  26
TORSDOF 7
ENDMDL
