MODEL 1
REMARK VINA RESULT:      -7.8      0.000      0.000
REMARK  Name = 
REMARK  8 active torsions:
REMARK  status: ('A' for Active; 'I' for Inactive)
REMARK    1  A    between atoms: C_1  and  O_2
REMARK    2  A    between atoms: O_2  and  C_3
REMARK    3  A    between atoms: C_6  and  N_7
REMARK    4  A    between atoms: N_7  and  C_8
REMARK    5  A    between atoms: N_7  and  S_9
REMARK    6  A    between atoms: S_9  and  C_12
REMARK    7  A    between atoms: C_16  and  C_17
REMARK    8  A    between atoms: N_19  and  C_20
REMARK                            x       y       z     vdW  Elec       q    Type
REMARK                         _______ _______ _______ _____ _____    ______ ____
ROOT
ATOM      1  C   UNL     1       2.108   4.794  19.008  0.00  0.00    +0.000 A 
ATOM      2  C   UNL     1       2.037   4.752  20.406  0.00  0.00    +0.000 A 
ATOM      3  C   UNL     1       1.883   5.933  21.129  0.00  0.00    +0.000 A 
ATOM      4  C   UNL     1       1.829   7.159  20.462  0.00  0.00    +0.000 A 
ATOM      5  C   UNL     1       1.948   7.216  19.064  0.00  0.00    +0.000 A 
ATOM      6  C   UNL     1       2.087   6.023  18.334  0.00  0.00    +0.000 A 
ENDROOT
BRANCH   5   7
ATOM      7  C   UNL     1       1.855   8.513  18.329  0.00  0.00    +0.000 C 
ATOM      8  O   UNL     1       2.471   8.662  17.278  0.00  0.00    +0.000 OA
ATOM      9  N   UNL     1       1.045   9.488  18.885  0.00  0.00    +0.000 N 
ATOM     10  H   UNL     1       0.771   9.391  19.853  0.00  0.00    +0.000 HD
BRANCH   9  11
ATOM     11  C   UNL     1       0.821  10.794  18.253  0.00  0.00    +0.000 C 
ATOM     12  C   UNL     1      -0.654  11.194  18.397  0.00  0.00    +0.000 C 
ATOM     13  C   UNL     1      -1.022  11.763  19.768  0.00  0.00    +0.000 C 
ATOM     14  C   UNL     1      -0.879  13.282  19.831  0.00  0.00    +0.000 C 
ATOM     15  C   UNL     1       0.549  13.816  19.758  0.00  0.00    +0.000 C 
ATOM     16  C   UNL     1       1.408  13.293  18.604  0.00  0.00    +0.000 C 
ATOM     17  C   UNL     1       1.826  11.831  18.779  0.00  0.00    +0.000 C 
ENDBRANCH   9  11
ENDBRANCH   5   7
BRANCH   1  18
ATOM     18  S   UNL     1       2.343   3.261  18.117  0.00  0.00    +0.000 S 
ATOM     19  O   UNL     1       2.056   3.541  16.723  0.00  0.00    +0.000 OA
ATOM     20  O   UNL     1       1.594   2.244  18.827  0.00  0.00    +0.000 OA
BRANCH  18  21
ATOM     21  N   UNL     1       4.000   2.911  18.274  0.00  0.00    +0.000 N 
ATOM     22  C   UNL     1       4.396   1.969  19.332  0.00  0.00    +0.000 C 
BRANCH  21  26
ATOM     23  C   UNL     1       6.764   5.934  17.194  0.00  0.00    +0.000 A 
ATOM     24  C   UNL     1       6.184   5.133  16.205  0.00  0.00    +0.000 A 
ATOM     25  C   UNL     1       5.266   4.134  16.545  0.00  0.00    +0.000 A 
ATOM     26  C   UNL     1       4.952   3.905  17.884  0.00  0.00    +0.000 A 
ATOM     27  C   UNL     1       5.556   4.680  18.877  0.00  0.00    +0.000 A 
ATOM     28  C   UNL     1       6.455   5.697  18.534  0.00  0.00    +0.000 A 
BRANCH  23  30
ATOM     29  C   UNL     1       7.850   7.999  17.592  0.00  0.00    +0.000 C 
ATOM     30  O   UNL     1       7.635   6.882  16.735  0.00  0.00    +0.000 OA
ENDBRANCH  23  30
ENDBRANCH  21  26
ENDBRANCH  18  21
ENDBRANCH   1  18
TORSDOF 6
ENDMDL
MODEL 2
REMARK VINA RESULT:      -7.7      0.480      1.068
REMARK  Name = 
REMARK  8 active torsions:
REMARK  status: ('A' for Active; 'I' for Inactive)
REMARK    1  A    between atoms: C_1  and  O_2
REMARK    2  A    between atoms: O_2  and  C_3
REMARK    3  A    between atoms: C_6  and  N_7
REMARK    4  A    between atoms: N_7  and  C_8
REMARK    5  A    between atoms: N_7  and  S_9
REMARK    6  A    between atoms: S_9  and  C_12
REMARK    7  A    between atoms: C_16  and  C_17
REMARK    8  A    between atoms: N_19  and  C_20
REMARK                            x       y       z     vdW  Elec       q    Type
REMARK                         _______ _______ _______ _____ _____    ______ ____
ROOT
ATOM      1  C   UNL     1       2.147   4.584  18.939  0.00  0.00    +0.000 A 
ATOM      2  C   UNL     1       2.124   4.460  20.334  0.00  0.00    +0.000 A 
ATOM      3  C   UNL     1       2.000   5.596  21.130  0.00  0.00    +0.000 A 
ATOM      4  C   UNL     1       1.928   6.860  20.539  0.00  0.00    +0.000 A 
ATOM      5  C   UNL     1       2.000   6.999  19.143  0.00  0.00    +0.000 A 
ATOM      6  C   UNL     1       2.109   5.850  18.339  0.00  0.00    +0.000 A 
ENDROOT
BRANCH   5   7
ATOM      7  C   UNL     1       1.887   8.337  18.489  0.00  0.00    +0.000 C 
ATOM      8  O   UNL     1       2.371   8.512  17.374  0.00  0.00    +0.000 OA
ATOM      9  N   UNL     1       1.212   9.320  19.192  0.00  0.00    +0.000 N 
ATOM     10  H   UNL     1       1.060   9.184  20.181  0.00  0.00    +0.000 HD
BRANCH   9  11
ATOM     11  C   UNL     1       0.983  10.668  18.657  0.00  0.00    +0.000 C 
ATOM     12  C   UNL     1      -0.440  10.767  18.091  0.00  0.00    +0.000 C 
ATOM     13  C   UNL     1      -1.526  10.971  19.148  0.00  0.00    +0.000 C 
ATOM     14  C   UNL     1      -1.815  12.446  19.415  0.00  0.00    +0.000 C 
ATOM     15  C   UNL     1      -0.699  13.225  20.107  0.00  0.00    +0.000 C 
ATOM     16  C   UNL     1       0.694  13.105  19.485  0.00  0.00    +0.000 C 
ATOM     17  C   UNL     1       1.338  11.734  19.705  0.00  0.00    +0.000 C 
ENDBRANCH   9  11
ENDBRANCH   5   7
BRANCH   1  18
ATOM     18  S   UNL     1       2.345   3.106  17.952  0.00  0.00    +0.000 S 
ATOM     19  O   UNL     1       1.991   3.462  16.592  0.00  0.00    +0.000 OA
ATOM     20  O   UNL     1       1.636   2.044  18.638  0.00  0.00    +0.000 OA
BRANCH  18  21
ATOM     21  N   UNL     1       4.010   2.758  18.010  0.00  0.00    +0.000 N 
ATOM     22  C   UNL     1       4.456   1.739  18.971  0.00  0.00    +0.000 C 
BRANCH  21  26
ATOM     23  C   UNL     1       6.818   5.729  16.901  0.00  0.00    +0.000 A 
ATOM     24  C   UNL     1       6.480   5.557  18.247  0.00  0.00    +0.000 A 
ATOM     25  C   UNL     1       5.558   4.577  18.629  0.00  0.00    +0.000 A 
ATOM     26  C   UNL     1       4.939   3.789  17.660  0.00  0.00    +0.000 A 
ATOM     27  C   UNL     1       5.249   3.982  16.312  0.00  0.00    +0.000 A 
ATOM     28  C   UNL     1       6.192   4.945  15.933  0.00  0.00    +0.000 A 
BRANCH  23  30
ATOM     29  C   UNL     1       7.742   7.805  17.566  0.00  0.00    +0.000 C 
ATOM     30  O   UNL     1       7.739   6.710  16.656  0.00  0.00    +0.000 OA
ENDBRANCH  23  30
ENDBRANCH  21  26
ENDBRANCH  18  21
ENDBRANCH   1  18
TORSDOF 6
ENDMDL
MODEL 3
REMARK VINA RESULT:      -7.7      1.460      2.077
REMARK  Name = 
REMARK  8 active torsions:
REMARK  status: ('A' for Active; 'I' for Inactive)
REMARK    1  A    between atoms: C_1  and  O_2
REMARK    2  A    between atoms: O_2  and  C_3
REMARK    3  A    between atoms: C_6  and  N_7
REMARK    4  A    between atoms: N_7  and  C_8
REMARK    5  A    between atoms: N_7  and  S_9
REMARK    6  A    between atoms: S_9  and  C_12
REMARK    7  A    between atoms: C_16  and  C_17
REMARK    8  A    between atoms: N_19  and  C_20
REMARK                            x       y       z     vdW  Elec       q    Type
REMARK                         _______ _______ _______ _____ _____    ______ ____
ROOT
ATOM      1  C   UNL     1       3.339   4.782  19.066  0.00  0.00    +0.000 A 
ATOM      2  C   UNL     1       2.767   4.482  20.308  0.00  0.00    +0.000 A 
ATOM      3  C   UNL     1       1.946   5.415  20.937  0.00  0.00    +0.000 A 
ATOM      4  C   UNL     1       1.717   6.659  20.343  0.00  0.00    +0.000 A 
ATOM      5  C   UNL     1       2.325   6.987  19.120  0.00  0.00    +0.000 A 
ATOM      6  C   UNL     1       3.141   6.039  18.478  0.00  0.00    +0.000 A 
ENDROOT
BRANCH   5   7
ATOM      7  C   UNL     1       2.063   8.295  18.450  0.00  0.00    +0.000 C 
ATOM      8  O   UNL     1       2.516   8.505  17.327  0.00  0.00    +0.000 OA
ATOM      9  N   UNL     1       1.293   9.211  19.146  0.00  0.00    +0.000 N 
ATOM     10  H   UNL     1       1.165   9.074  20.139  0.00  0.00    +0.000 HD
BRANCH   9  11
ATOM     11  C   UNL     1       0.916  10.518  18.595  0.00  0.00    +0.000 C 
ATOM     12  C   UNL     1      -0.413  10.398  17.836  0.00  0.00    +0.000 C 
ATOM     13  C   UNL     1      -1.652  10.386  18.731  0.00  0.00    +0.000 C 
ATOM     14  C   UNL     1      -2.219  11.783  18.968  0.00  0.00    +0.000 C 
ATOM     15  C   UNL     1      -1.356  12.714  19.816  0.00  0.00    +0.000 C 
ATOM     16  C   UNL     1       0.110  12.847  19.395  0.00  0.00    +0.000 C 
ATOM     17  C   UNL     1       0.939  11.595  19.692  0.00  0.00    +0.000 C 
ENDBRANCH   9  11
ENDBRANCH   5   7
BRANCH   1  18
ATOM     18  S   UNL     1       4.418   3.574  18.307  0.00  0.00    +0.000 S 
ATOM     19  O   UNL     1       3.563   2.616  17.632  0.00  0.00    +0.000 OA
ATOM     20  O   UNL     1       5.342   3.133  19.333  0.00  0.00    +0.000 OA
BRANCH  18  21
ATOM     21  N   UNL     1       5.296   4.441  17.136  0.00  0.00    +0.000 N 
ATOM     22  C   UNL     1       5.625   3.747  15.883  0.00  0.00    +0.000 C 
BRANCH  21  26
ATOM     23  C   UNL     1       7.954   7.525  18.307  0.00  0.00    +0.000 A 
ATOM     24  C   UNL     1       7.993   6.287  18.956  0.00  0.00    +0.000 A 
ATOM     25  C   UNL     1       7.126   5.258  18.578  0.00  0.00    +0.000 A 
ATOM     26  C   UNL     1       6.185   5.475  17.572  0.00  0.00    +0.000 A 
ATOM     27  C   UNL     1       6.120   6.722  16.946  0.00  0.00    +0.000 A 
ATOM     28  C   UNL     1       7.007   7.744  17.307  0.00  0.00    +0.000 A 
BRANCH  23  30
ATOM     29  C   UNL     1       8.655   9.786  18.324  0.00  0.00    +0.000 C 
ATOM     30  O   UNL     1       8.859   8.446  18.759  0.00  0.00    +0.000 OA
ENDBRANCH  23  30
ENDBRANCH  21  26
ENDBRANCH  18  21
ENDBRANCH   1  18
TORSDOF 6
ENDMDL
MODEL 4
REMARK VINA RESULT:      -7.6      2.632      3.776
REMARK  Name = 
REMARK  8 active torsions:
REMARK  status: ('A' for Active; 'I' for Inactive)
REMARK    1  A    between atoms: C_1  and  O_2
REMARK    2  A    between atoms: O_2  and  C_3
REMARK    3  A    between atoms: C_6  and  N_7
REMARK    4  A    between atoms: N_7  and  C_8
REMARK    5  A    between atoms: N_7  and  S_9
REMARK    6  A    between atoms: S_9  and  C_12
REMARK    7  A    between atoms: C_16  and  C_17
REMARK    8  A    between atoms: N_19  and  C_20
REMARK                            x       y       z     vdW  Elec       q    Type
REMARK                         _______ _______ _______ _____ _____    ______ ____
ROOT
ATOM      1  C   UNL     1       2.142   7.394  19.367  0.00  0.00    +0.000 A 
ATOM      2  C   UNL     1       2.102   7.990  18.100  0.00  0.00    +0.000 A 
ATOM      3  C   UNL     1       1.601   9.282  17.956  0.00  0.00    +0.000 A 
ATOM      4  C   UNL     1       1.113   9.970  19.070  0.00  0.00    +0.000 A 
ATOM      5  C   UNL     1       1.103   9.363  20.336  0.00  0.00    +0.000 A 
ATOM      6  C   UNL     1       1.624   8.065  20.483  0.00  0.00    +0.000 A 
ENDROOT
BRANCH   5   7
ATOM      7  C   UNL     1       0.621  10.095  21.545  0.00  0.00    +0.000 C 
ATOM      8  O   UNL     1       0.925   9.689  22.663  0.00  0.00    +0.000 OA
ATOM      9  N   UNL     1      -0.146  11.225  21.325  0.00  0.00    +0.000 N 
ATOM     10  H   UNL     1      -0.555  11.358  20.410  0.00  0.00    +0.000 HD
BRANCH   9  11
ATOM     11  C   UNL     1      -0.651  12.071  22.414  0.00  0.00    +0.000 C 
ATOM     12  C   UNL     1      -0.579  13.548  22.001  0.00  0.00    +0.000 C 
ATOM     13  C   UNL     1      -1.716  14.002  21.084  0.00  0.00    +0.000 C 
ATOM     14  C   UNL     1      -2.912  14.551  21.858  0.00  0.00    +0.000 C 
ATOM     15  C   UNL     1      -3.697  13.529  22.676  0.00  0.00    +0.000 C 
ATOM     16  C   UNL     1      -2.877  12.639  23.612  0.00  0.00    +0.000 C 
ATOM     17  C   UNL     1      -2.039  11.594  22.871  0.00  0.00    +0.000 C 
ENDBRANCH   9  11
ENDBRANCH   5   7
BRANCH   1  18
ATOM     18  S   UNL     1       2.757   5.720  19.505  0.00  0.00    +0.000 S 
ATOM     19  O   UNL     1       1.802   4.990  20.317  0.00  0.00    +0.000 OA
ATOM     20  O   UNL     1       4.144   5.815  19.916  0.00  0.00    +0.000 OA
BRANCH  18  21
ATOM     21  N   UNL     1       2.712   5.102  17.921  0.00  0.00    +0.000 N 
ATOM     22  C   UNL     1       1.745   4.031  17.639  0.00  0.00    +0.000 C 
BRANCH  21  26
ATOM     23  C   UNL     1       6.299   5.112  15.668  0.00  0.00    +0.000 A 
ATOM     24  C   UNL     1       5.733   6.322  16.084  0.00  0.00    +0.000 A 
ATOM     25  C   UNL     1       4.552   6.334  16.832  0.00  0.00    +0.000 A 
ATOM     26  C   UNL     1       3.908   5.136  17.136  0.00  0.00    +0.000 A 
ATOM     27  C   UNL     1       4.452   3.928  16.693  0.00  0.00    +0.000 A 
ATOM     28  C   UNL     1       5.649   3.915  15.966  0.00  0.00    +0.000 A 
BRANCH  23  30
ATOM     29  C   UNL     1       7.391   4.846  13.585  0.00  0.00    +0.000 C 
ATOM     30  O   UNL     1       7.459   5.230  14.954  0.00  0.00    +0.000 OA
ENDBRANCH  23  30
ENDBRANCH  21  26
ENDBRANCH  18  21
ENDBRANCH   1  18
TORSDOF 6
ENDMDL
MODEL 5
REMARK VINA RESULT:      -7.4      4.784      7.216
REMARK  Name = 
REMARK  8 active torsions:
REMARK  status: ('A' for Active; 'I' for Inactive)
REMARK    1  A    between atoms: C_1  and  O_2
REMARK    2  A    between atoms: O_2  and  C_3
REMARK    3  A    between atoms: C_6  and  N_7
REMARK    4  A    between atoms: N_7  and  C_8
REMARK    5  A    between atoms: N_7  and  S_9
REMARK    6  A    between atoms: S_9  and  C_12
REMARK    7  A    between atoms: C_16  and  C_17
REMARK    8  A    between atoms: N_19  and  C_20
REMARK                            x       y       z     vdW  Elec       q    Type
REMARK                         _______ _______ _______ _____ _____    ______ ____
ROOT
ATOM      1  C   UNL     1       6.417   6.731  17.526  0.00  0.00    +0.000 A 
ATOM      2  C   UNL     1       7.047   5.733  18.280  0.00  0.00    +0.000 A 
ATOM      3  C   UNL     1       8.148   6.051  19.070  0.00  0.00    +0.000 A 
ATOM      4  C   UNL     1       8.641   7.358  19.090  0.00  0.00    +0.000 A 
ATOM      5  C   UNL     1       8.047   8.356  18.300  0.00  0.00    +0.000 A 
ATOM      6  C   UNL     1       6.926   8.037  17.513  0.00  0.00    +0.000 A 
ENDROOT
BRANCH   5   7
ATOM      7  C   UNL     1       8.535   9.767  18.334  0.00  0.00    +0.000 C 
ATOM      8  O   UNL     1       8.247  10.533  17.419  0.00  0.00    +0.000 OA
ATOM      9  N   UNL     1       9.289  10.139  19.433  0.00  0.00    +0.000 N 
ATOM     10  H   UNL     1       9.687   9.413  20.012  0.00  0.00    +0.000 HD
BRANCH   9  11
ATOM     11  C   UNL     1       9.798  11.503  19.626  0.00  0.00    +0.000 C 
ATOM     12  C   UNL     1      11.311  11.534  19.371  0.00  0.00    +0.000 C 
ATOM     13  C   UNL     1      11.700  11.568  17.892  0.00  0.00    +0.000 C 
ATOM     14  C   UNL     1      11.848  12.990  17.356  0.00  0.00    +0.000 C 
ATOM     15  C   UNL     1      10.556  13.797  17.252  0.00  0.00    +0.000 C 
ATOM     16  C   UNL     1       9.682  13.837  18.508  0.00  0.00    +0.000 C 
ATOM     17  C   UNL     1       8.981  12.508  18.798  0.00  0.00    +0.000 C 
ENDBRANCH   9  11
ENDBRANCH   5   7
BRANCH   1  18
ATOM     18  S   UNL     1       5.029   6.277  16.493  0.00  0.00    +0.000 S 
ATOM     19  O   UNL     1       5.354   6.704  15.146  0.00  0.00    +0.000 OA
ATOM     20  O   UNL     1       3.837   6.773  17.150  0.00  0.00    +0.000 OA
BRANCH  18  21
ATOM     21  N   UNL     1       4.990   4.576  16.533  0.00  0.00    +0.000 N 
ATOM     22  C   UNL     1       5.313   3.862  15.289  0.00  0.00    +0.000 C 
BRANCH  21  26
ATOM     23  C   UNL     1       2.289   2.751  19.238  0.00  0.00    +0.000 A 
ATOM     24  C   UNL     1       3.622   2.953  19.612  0.00  0.00    +0.000 A 
ATOM     25  C   UNL     1       4.524   3.558  18.732  0.00  0.00    +0.000 A 
ATOM     26  C   UNL     1       4.106   3.931  17.455  0.00  0.00    +0.000 A 
ATOM     27  C   UNL     1       2.785   3.699  17.066  0.00  0.00    +0.000 A 
ATOM     28  C   UNL     1       1.875   3.117  17.957  0.00  0.00    +0.000 A 
BRANCH  23  30
ATOM     29  C   UNL     1       1.506   2.779  21.472  0.00  0.00    +0.000 C 
ATOM     30  O   UNL     1       1.503   2.161  20.189  0.00  0.00    +0.000 OA
ENDBRANCH  23  30
ENDBRANCH  21  26
ENDBRANCH  18  21
ENDBRANCH   1  18
TORSDOF 6
ENDMDL
MODEL 6
REMARK VINA RESULT:      -7.3      3.730      9.672
REMARK  Name = 
REMARK  8 active torsions:
REMARK  status: ('A' for Active; 'I' for Inactive)
REMARK    1  A    between atoms: C_1  and  O_2
REMARK    2  A    between atoms: O_2  and  C_3
REMARK    3  A    between atoms: C_6  and  N_7
REMARK    4  A    between atoms: N_7  and  C_8
REMARK    5  A    between atoms: N_7  and  S_9
REMARK    6  A    between atoms: S_9  and  C_12
REMARK    7  A    between atoms: C_16  and  C_17
REMARK    8  A    between atoms: N_19  and  C_20
REMARK                            x       y       z     vdW  Elec       q    Type
REMARK                         _______ _______ _______ _____ _____    ______ ____
ROOT
ATOM      1  C   UNL     1       0.947   9.162  20.223  0.00  0.00    +0.000 A 
ATOM      2  C   UNL     1       0.690   9.841  19.026  0.00  0.00    +0.000 A 
ATOM      3  C   UNL     1       1.210   9.357  17.828  0.00  0.00    +0.000 A 
ATOM      4  C   UNL     1       2.010   8.212  17.825  0.00  0.00    +0.000 A 
ATOM      5  C   UNL     1       2.315   7.552  19.026  0.00  0.00    +0.000 A 
ATOM      6  C   UNL     1       1.777   8.032  20.233  0.00  0.00    +0.000 A 
ENDROOT
BRANCH   5   7
ATOM      7  C   UNL     1       3.137   6.306  19.040  0.00  0.00    +0.000 C 
ATOM      8  O   UNL     1       2.724   5.311  19.631  0.00  0.00    +0.000 OA
ATOM      9  N   UNL     1       4.339   6.343  18.356  0.00  0.00    +0.000 N 
ATOM     10  H   UNL     1       4.723   7.244  18.108  0.00  0.00    +0.000 HD
BRANCH   9  11
ATOM     11  C   UNL     1       5.230   5.181  18.245  0.00  0.00    +0.000 C 
ATOM     12  C   UNL     1       4.626   4.155  17.276  0.00  0.00    +0.000 C 
ATOM     13  C   UNL     1       4.829   4.488  15.797  0.00  0.00    +0.000 C 
ATOM     14  C   UNL     1       6.107   3.878  15.228  0.00  0.00    +0.000 C 
ATOM     15  C   UNL     1       7.414   4.464  15.757  0.00  0.00    +0.000 C 
ATOM     16  C   UNL     1       7.549   4.549  17.279  0.00  0.00    +0.000 C 
ATOM     17  C   UNL     1       6.661   5.627  17.905  0.00  0.00    +0.000 C 
ENDBRANCH   9  11
ENDBRANCH   5   7
BRANCH   1  18
ATOM     18  S   UNL     1       0.294   9.835  21.746  0.00  0.00    +0.000 S 
ATOM     19  O   UNL     1       1.393   9.874  22.691  0.00  0.00    +0.000 OA
ATOM     20  O   UNL     1      -0.908   9.087  22.054  0.00  0.00    +0.000 OA
BRANCH  18  21
ATOM     21  N   UNL     1      -0.155  11.431  21.365  0.00  0.00    +0.000 N 
ATOM     22  C   UNL     1       0.918  12.431  21.262  0.00  0.00    +0.000 C 
BRANCH  21  26
ATOM     23  C   UNL     1      -3.982  12.889  22.449  0.00  0.00    +0.000 A 
ATOM     24  C   UNL     1      -3.090  12.467  23.440  0.00  0.00    +0.000 A 
ATOM     25  C   UNL     1      -1.821  11.988  23.098  0.00  0.00    +0.000 A 
ATOM     26  C   UNL     1      -1.452  11.892  21.757  0.00  0.00    +0.000 A 
ATOM     27  C   UNL     1      -2.354  12.279  20.763  0.00  0.00    +0.000 A 
ATOM     28  C   UNL     1      -3.614  12.784  21.108  0.00  0.00    +0.000 A 
BRANCH  23  30
ATOM     29  C   UNL     1      -5.675  12.733  24.096  0.00  0.00    +0.000 C 
ATOM     30  O   UNL     1      -5.185  13.348  22.909  0.00  0.00    +0.000 OA
ENDBRANCH  23  30
ENDBRANCH  21  26
ENDBRANCH  18  21
ENDBRANCH   1  18
TORSDOF 6
ENDMDL
MODEL 7
REMARK VINA RESULT:      -7.3      3.860      9.069
REMARK  Name = 
REMARK  8 active torsions:
REMARK  status: ('A' for Active; 'I' for Inactive)
REMARK    1  A    between atoms: C_1  and  O_2
REMARK    2  A    between atoms: O_2  and  C_3
REMARK    3  A    between atoms: C_6  and  N_7
REMARK    4  A    between atoms: N_7  and  C_8
REMARK    5  A    between atoms: N_7  and  S_9
REMARK    6  A    between atoms: S_9  and  C_12
REMARK    7  A    between atoms: C_16  and  C_17
REMARK    8  A    between atoms: N_19  and  C_20
REMARK                            x       y       z     vdW  Elec       q    Type
REMARK                         _______ _______ _______ _____ _____    ______ ____
ROOT
ATOM      1  C   UNL     1       0.208  11.243  21.364  0.00  0.00    +0.000 A 
ATOM      2  C   UNL     1      -0.519  10.842  22.492  0.00  0.00    +0.000 A 
ATOM      3  C   UNL     1      -0.517   9.504  22.880  0.00  0.00    +0.000 A 
ATOM      4  C   UNL     1       0.185   8.559  22.128  0.00  0.00    +0.000 A 
ATOM      5  C   UNL     1       0.876   8.942  20.968  0.00  0.00    +0.000 A 
ATOM      6  C   UNL     1       0.887  10.295  20.585  0.00  0.00    +0.000 A 
ENDROOT
BRANCH   5   7
ATOM      7  C   UNL     1       1.664   7.955  20.171  0.00  0.00    +0.000 C 
ATOM      8  O   UNL     1       2.229   8.315  19.142  0.00  0.00    +0.000 OA
ATOM      9  N   UNL     1       1.723   6.662  20.663  0.00  0.00    +0.000 N 
ATOM     10  H   UNL     1       1.049   6.383  21.362  0.00  0.00    +0.000 HD
BRANCH   9  11
ATOM     11  C   UNL     1       2.496   5.596  20.012  0.00  0.00    +0.000 C 
ATOM     12  C   UNL     1       2.513   4.348  20.906  0.00  0.00    +0.000 C 
ATOM     13  C   UNL     1       1.238   3.505  20.836  0.00  0.00    +0.000 C 
ATOM     14  C   UNL     1       1.312   2.417  19.768  0.00  0.00    +0.000 C 
ATOM     15  C   UNL     1       1.319   2.907  18.322  0.00  0.00    +0.000 C 
ATOM     16  C   UNL     1       2.342   3.994  17.983  0.00  0.00    +0.000 C 
ATOM     17  C   UNL     1       1.993   5.359  18.580  0.00  0.00    +0.000 C 
ENDBRANCH   9  11
ENDBRANCH   5   7
BRANCH   1  18
ATOM     18  S   UNL     1       0.151  12.962  20.876  0.00  0.00    +0.000 S 
ATOM     19  O   UNL     1       1.068  13.111  19.763  0.00  0.00    +0.000 OA
ATOM     20  O   UNL     1       0.330  13.747  22.081  0.00  0.00    +0.000 OA
BRANCH  18  21
ATOM     21  N   UNL     1      -1.436  13.207  20.312  0.00  0.00    +0.000 N 
ATOM     22  C   UNL     1      -2.414  13.759  21.260  0.00  0.00    +0.000 C 
BRANCH  21  26
ATOM     23  C   UNL     1      -2.969  10.650  17.303  0.00  0.00    +0.000 A 
ATOM     24  C   UNL     1      -1.601  10.935  17.346  0.00  0.00    +0.000 A 
ATOM     25  C   UNL     1      -1.079  11.773  18.335  0.00  0.00    +0.000 A 
ATOM     26  C   UNL     1      -1.931  12.363  19.267  0.00  0.00    +0.000 A 
ATOM     27  C   UNL     1      -3.303  12.109  19.207  0.00  0.00    +0.000 A 
ATOM     28  C   UNL     1      -3.821  11.248  18.231  0.00  0.00    +0.000 A 
BRANCH  23  30
ATOM     29  C   UNL     1      -3.648  10.424  15.046  0.00  0.00    +0.000 C 
ATOM     30  O   UNL     1      -3.355   9.808  16.297  0.00  0.00    +0.000 OA
ENDBRANCH  23  30
ENDBRANCH  21  26
ENDBRANCH  18  21
ENDBRANCH   1  18
TORSDOF 6
ENDMDL
MODEL 8
REMARK VINA RESULT:      -7.3      3.925      9.000
REMARK  Name = 
REMARK  8 active torsions:
REMARK  status: ('A' for Active; 'I' for Inactive)
REMARK    1  A    between atoms: C_1  and  O_2
REMARK    2  A    between atoms: O_2  and  C_3
REMARK    3  A    between atoms: C_6  and  N_7
REMARK    4  A    between atoms: N_7  and  C_8
REMARK    5  A    between atoms: N_7  and  S_9
REMARK    6  A    between atoms: S_9  and  C_12
REMARK    7  A    between atoms: C_16  and  C_17
REMARK    8  A    between atoms: N_19  and  C_20
REMARK                            x       y       z     vdW  Elec       q    Type
REMARK                         _______ _______ _______ _____ _____    ______ ____
ROOT
ATOM      1  C   UNL     1      -0.259  11.241  21.171  0.00  0.00    +0.000 A 
ATOM      2  C   UNL     1      -0.624  10.957  22.493  0.00  0.00    +0.000 A 
ATOM      3  C   UNL     1      -0.245   9.749  23.073  0.00  0.00    +0.000 A 
ATOM      4  C   UNL     1       0.475   8.811  22.329  0.00  0.00    +0.000 A 
ATOM      5  C   UNL     1       0.803   9.066  20.988  0.00  0.00    +0.000 A 
ATOM      6  C   UNL     1       0.434  10.292  20.407  0.00  0.00    +0.000 A 
ENDROOT
BRANCH   5   7
ATOM      7  C   UNL     1       1.604   8.093  20.186  0.00  0.00    +0.000 C 
ATOM      8  O   UNL     1       2.157   8.464  19.154  0.00  0.00    +0.000 OA
ATOM      9  N   UNL     1       1.688   6.801  20.675  0.00  0.00    +0.000 N 
ATOM     10  H   UNL     1       1.023   6.509  21.377  0.00  0.00    +0.000 HD
BRANCH   9  11
ATOM     11  C   UNL     1       2.476   5.750  20.019  0.00  0.00    +0.000 C 
ATOM     12  C   UNL     1       2.467   4.480  20.883  0.00  0.00    +0.000 C 
ATOM     13  C   UNL     1       1.194   3.642  20.759  0.00  0.00    +0.000 C 
ATOM     14  C   UNL     1       1.293   2.580  19.668  0.00  0.00    +0.000 C 
ATOM     15  C   UNL     1       1.339   3.105  18.235  0.00  0.00    +0.000 C 
ATOM     16  C   UNL     1       2.372   4.197  17.948  0.00  0.00    +0.000 C 
ATOM     17  C   UNL     1       2.009   5.548  18.569  0.00  0.00    +0.000 C 
ENDBRANCH   9  11
ENDBRANCH   5   7
BRANCH   1  18
ATOM     18  S   UNL     1      -0.796  12.787  20.448  0.00  0.00    +0.000 S 
ATOM     19  O   UNL     1      -0.013  12.979  19.243  0.00  0.00    +0.000 OA
ATOM     20  O   UNL     1      -0.767  13.777  21.506  0.00  0.00    +0.000 OA
BRANCH  18  21
ATOM     21  N   UNL     1      -2.419  12.525  20.009  0.00  0.00    +0.000 N 
ATOM     22  C   UNL     1      -3.422  12.533  21.084  0.00  0.00    +0.000 C 
BRANCH  21  26
ATOM     23  C   UNL     1      -3.140  10.215  16.532  0.00  0.00    +0.000 A 
ATOM     24  C   UNL     1      -4.168  10.986  17.083  0.00  0.00    +0.000 A 
ATOM     25  C   UNL     1      -3.945  11.758  18.228  0.00  0.00    +0.000 A 
ATOM     26  C   UNL     1      -2.698  11.732  18.851  0.00  0.00    +0.000 A 
ATOM     27  C   UNL     1      -1.679  10.935  18.324  0.00  0.00    +0.000 A 
ATOM     28  C   UNL     1      -1.896  10.183  17.163  0.00  0.00    +0.000 A 
BRANCH  23  30
ATOM     29  C   UNL     1      -3.041  10.070  14.171  0.00  0.00    +0.000 C 
ATOM     30  O   UNL     1      -3.479   9.515  15.408  0.00  0.00    +0.000 OA
ENDBRANCH  23  30
ENDBRANCH  21  26
ENDBRANCH  18  21
ENDBRANCH   1  18
TORSDOF 6
ENDMDL
MODEL 9
REMARK VINA RESULT:      -7.2      1.933      2.873
REMARK  Name = 
REMARK  8 active torsions:
REMARK  status: ('A' for Active; 'I' for Inactive)
REMARK    1  A    between atoms: C_1  and  O_2
REMARK    2  A    between atoms: O_2  and  C_3
REMARK    3  A    between atoms: C_6  and  N_7
REMARK    4  A    between atoms: N_7  and  C_8
REMARK    5  A    between atoms: N_7  and  S_9
REMARK    6  A    between atoms: S_9  and  C_12
REMARK    7  A    between atoms: C_16  and  C_17
REMARK    8  A    between atoms: N_19  and  C_20
REMARK                            x       y       z     vdW  Elec       q    Type
REMARK                         _______ _______ _______ _____ _____    ______ ____
ROOT
ATOM      1  C   UNL     1       1.933   5.552  19.196  0.00  0.00    +0.000 A 
ATOM      2  C   UNL     1       2.408   6.029  17.967  0.00  0.00    +0.000 A 
ATOM      3  C   UNL     1       2.568   7.399  17.770  0.00  0.00    +0.000 A 
ATOM      4  C   UNL     1       2.229   8.296  18.786  0.00  0.00    +0.000 A 
ATOM      5  C   UNL     1       1.707   7.830  20.003  0.00  0.00    +0.000 A 
ATOM      6  C   UNL     1       1.560   6.447  20.208  0.00  0.00    +0.000 A 
ENDROOT
BRANCH   5   7
ATOM      7  C   UNL     1       1.374   8.770  21.116  0.00  0.00    +0.000 C 
ATOM      8  O   UNL     1       1.726   8.505  22.262  0.00  0.00    +0.000 OA
ATOM      9  N   UNL     1       0.684   9.920  20.775  0.00  0.00    +0.000 N 
ATOM     10  H   UNL     1       0.221   9.955  19.878  0.00  0.00    +0.000 HD
BRANCH   9  11
ATOM     11  C   UNL     1       0.329  10.956  21.754  0.00  0.00    +0.000 C 
ATOM     12  C   UNL     1       0.240  12.321  21.056  0.00  0.00    +0.000 C 
ATOM     13  C   UNL     1      -1.064  12.555  20.292  0.00  0.00    +0.000 C 
ATOM     14  C   UNL     1      -2.136  13.221  21.151  0.00  0.00    +0.000 C 
ATOM     15  C   UNL     1      -2.705  12.367  22.281  0.00  0.00    +0.000 C 
ATOM     16  C   UNL     1      -1.682  11.703  23.206  0.00  0.00    +0.000 C 
ATOM     17  C   UNL     1      -0.927  10.550  22.541  0.00  0.00    +0.000 C 
ENDBRANCH   9  11
ENDBRANCH   5   7
BRANCH   1  18
ATOM     18  S   UNL     1       1.705   3.790  19.398  0.00  0.00    +0.000 S 
ATOM     19  O   UNL     1       1.086   3.306  18.179  0.00  0.00    +0.000 OA
ATOM     20  O   UNL     1       1.051   3.596  20.677  0.00  0.00    +0.000 OA
BRANCH  18  21
ATOM     21  N   UNL     1       3.278   3.151  19.503  0.00  0.00    +0.000 N 
ATOM     22  C   UNL     1       3.714   2.633  20.808  0.00  0.00    +0.000 C 
BRANCH  21  26
ATOM     23  C   UNL     1       6.274   4.553  16.856  0.00  0.00    +0.000 A 
ATOM     24  C   UNL     1       6.320   4.901  18.209  0.00  0.00    +0.000 A 
ATOM     25  C   UNL     1       5.341   4.443  19.096  0.00  0.00    +0.000 A 
ATOM     26  C   UNL     1       4.286   3.663  18.625  0.00  0.00    +0.000 A 
ATOM     27  C   UNL     1       4.218   3.341  17.268  0.00  0.00    +0.000 A 
ATOM     28  C   UNL     1       5.213   3.780  16.385  0.00  0.00    +0.000 A 
BRANCH  23  30
ATOM     29  C   UNL     1       7.158   4.885  14.685  0.00  0.00    +0.000 C 
ATOM     30  O   UNL     1       7.293   5.052  16.093  0.00  0.00    +0.000 OA
ENDBRANCH  23  30
ENDBRANCH  21  26
ENDBRANCH  18  21
ENDBRANCH   1  18
TORSDOF 6
ENDMDL
