MODEL 1
REMARK VINA RESULT:      -8.5      0.000      0.000
REMARK  Name = 
REMARK  4 active torsions:
REMARK  status: ('A' for Active; 'I' for Inactive)
REMARK    1  A    between atoms: C_1  and  C_2
REMARK    2  A    between atoms: C_10  and  C_11
REMARK    3  A    between atoms: C_16  and  O_17
REMARK    4  A    between atoms: C_18  and  C_19
REMARK                            x       y       z     vdW  Elec       q    Type
REMARK                         _______ _______ _______ _____ _____    ______ ____
ROOT
ATOM      1  C   UNL     1       3.097   5.850  18.921  0.00  0.00    +0.000 A 
ATOM      2  C   UNL     1       2.913   5.076  20.084  0.00  0.00    +0.000 A 
ATOM      3  C   UNL     1       2.081   5.475  21.118  0.00  0.00    +0.000 A 
ATOM      4  C   UNL     1       1.481   6.721  21.066  0.00  0.00    +0.000 A 
ATOM      5  C   UNL     1       1.698   7.592  19.977  0.00  0.00    +0.000 A 
ATOM      6  C   UNL     1       1.192   8.928  19.938  0.00  0.00    +0.000 A 
ATOM      7  C   UNL     1       1.450   9.766  18.852  0.00  0.00    +0.000 A 
ATOM      8  C   UNL     1       2.174   9.217  17.816  0.00  0.00    +0.000 A 
ATOM      9  N   UNL     1       2.654   7.951  17.809  0.00  0.00    +0.000 NA
ATOM     10  C   UNL     1       2.479   7.137  18.874  0.00  0.00    +0.000 A 
ENDROOT
BRANCH   1  20
ATOM     11  C   UNL     1       2.511   3.266  17.226  0.00  0.00    +0.000 C 
ATOM     12  C   UNL     1       3.731   4.139  17.052  0.00  0.00    +0.000 A 
ATOM     13  C   UNL     1       4.639   3.698  16.049  0.00  0.00    +0.000 A 
ATOM     14  C   UNL     1       5.774   4.457  15.741  0.00  0.00    +0.000 A 
ATOM     15  C   UNL     1       6.848   4.380  14.827  0.00  0.00    +0.000 A 
ATOM     16  N   UNL     1       7.690   5.411  14.933  0.00  0.00    +0.000 NA
ATOM     17  N   UNL     1       7.150   6.148  15.923  0.00  0.00    +0.000 N 
ATOM     18  C   UNL     1       6.012   5.610  16.462  0.00  0.00    +0.000 A 
ATOM     19  C   UNL     1       5.180   6.038  17.503  0.00  0.00    +0.000 A 
ATOM     20  C   UNL     1       3.992   5.323  17.811  0.00  0.00    +0.000 A 
ATOM     21  H   UNL     1       7.603   7.019  16.180  0.00  0.00    +0.000 HD
ENDBRANCH   1  20
BRANCH   7  22
ATOM     22  C   UNL     1       1.036  11.182  18.710  0.00  0.00    +0.000 C 
ATOM     23  N   UNL     1       1.894  12.045  18.091  0.00  0.00    +0.000 N 
ATOM     24  O   UNL     1      -0.049  11.577  19.111  0.00  0.00    +0.000 OA
ATOM     25  H   UNL     1       2.787  11.723  17.739  0.00  0.00    +0.000 HD
ATOM     26  H   UNL     1       1.622  13.010  17.972  0.00  0.00    +0.000 HD
ENDBRANCH   7  22
BRANCH   6  27
ATOM     27  O   UNL     1       0.457   9.450  20.982  0.00  0.00    +0.000 OA
ATOM     28  H   UNL     1       0.967  10.116  21.466  0.00  0.00    +0.000 HD
ENDBRANCH   6  27
TORSDOF 3
ENDMDL
MODEL 2
REMARK VINA RESULT:      -8.4      4.335      7.310
REMARK  Name = 
REMARK  4 active torsions:
REMARK  status: ('A' for Active; 'I' for Inactive)
REMARK    1  A    between atoms: C_1  and  C_2
REMARK    2  A    between atoms: C_10  and  C_11
REMARK    3  A    between atoms: C_16  and  O_17
REMARK    4  A    between atoms: C_18  and  C_19
REMARK                            x       y       z     vdW  Elec       q    Type
REMARK                         _______ _______ _______ _____ _____    ______ ____
ROOT
ATOM      1  C   UNL     1       5.417   5.506  18.071  0.00  0.00    +0.000 A 
ATOM      2  C   UNL     1       6.389   6.289  18.724  0.00  0.00    +0.000 A 
ATOM      3  C   UNL     1       7.494   6.804  18.064  0.00  0.00    +0.000 A 
ATOM      4  C   UNL     1       7.717   6.463  16.742  0.00  0.00    +0.000 A 
ATOM      5  C   UNL     1       6.837   5.602  16.050  0.00  0.00    +0.000 A 
ATOM      6  C   UNL     1       7.091   5.135  14.724  0.00  0.00    +0.000 A 
ATOM      7  C   UNL     1       6.206   4.264  14.085  0.00  0.00    +0.000 A 
ATOM      8  C   UNL     1       5.068   3.927  14.785  0.00  0.00    +0.000 A 
ATOM      9  N   UNL     1       4.786   4.365  16.035  0.00  0.00    +0.000 NA
ATOM     10  C   UNL     1       5.654   5.153  16.707  0.00  0.00    +0.000 A 
ENDROOT
BRANCH   1  20
ATOM     11  C   UNL     1       2.548   6.786  17.922  0.00  0.00    +0.000 C 
ATOM     12  C   UNL     1       2.909   5.608  18.796  0.00  0.00    +0.000 A 
ATOM     13  C   UNL     1       1.840   5.104  19.586  0.00  0.00    +0.000 A 
ATOM     14  C   UNL     1       2.026   3.971  20.387  0.00  0.00    +0.000 A 
ATOM     15  C   UNL     1       1.238   3.177  21.249  0.00  0.00    +0.000 A 
ATOM     16  N   UNL     1       1.918   2.155  21.775  0.00  0.00    +0.000 NA
ATOM     17  N   UNL     1       3.148   2.301  21.246  0.00  0.00    +0.000 N 
ATOM     18  C   UNL     1       3.277   3.389  20.424  0.00  0.00    +0.000 A 
ATOM     19  C   UNL     1       4.371   3.898  19.716  0.00  0.00    +0.000 A 
ATOM     20  C   UNL     1       4.210   5.015  18.853  0.00  0.00    +0.000 A 
ATOM     21  H   UNL     1       3.858   1.614  21.477  0.00  0.00    +0.000 HD
ENDBRANCH   1  20
BRANCH   7  22
ATOM     22  C   UNL     1       6.375   3.662  12.741  0.00  0.00    +0.000 C 
ATOM     23  N   UNL     1       5.638   2.554  12.434  0.00  0.00    +0.000 N 
ATOM     24  O   UNL     1       7.131   4.145  11.911  0.00  0.00    +0.000 OA
ATOM     25  H   UNL     1       4.994   2.158  13.109  0.00  0.00    +0.000 HD
ATOM     26  H   UNL     1       5.730   2.140  11.519  0.00  0.00    +0.000 HD
ENDBRANCH   7  22
BRANCH   6  27
ATOM     27  O   UNL     1       8.230   5.498  14.038  0.00  0.00    +0.000 OA
ATOM     28  H   UNL     1       8.103   6.337  13.573  0.00  0.00    +0.000 HD
ENDBRANCH   6  27
TORSDOF 3
ENDMDL
MODEL 3
REMARK VINA RESULT:      -8.3      1.686      2.801
REMARK  Name = 
REMARK  4 active torsions:
REMARK  status: ('A' for Active; 'I' for Inactive)
REMARK    1  A    between atoms: C_1  and  C_2
REMARK    2  A    between atoms: C_10  and  C_11
REMARK    3  A    between atoms: C_16  and  O_17
REMARK    4  A    between atoms: C_18  and  C_19
REMARK                            x       y       z     vdW  Elec       q    Type
REMARK                         _______ _______ _______ _____ _____    ______ ____
ROOT
ATOM      1  C   UNL     1       4.664   4.846  17.752  0.00  0.00    +0.000 A 
ATOM      2  C   UNL     1       4.801   3.778  18.661  0.00  0.00    +0.000 A 
ATOM      3  C   UNL     1       4.026   3.671  19.805  0.00  0.00    +0.000 A 
ATOM      4  C   UNL     1       3.152   4.693  20.132  0.00  0.00    +0.000 A 
ATOM      5  C   UNL     1       3.031   5.841  19.319  0.00  0.00    +0.000 A 
ATOM      6  C   UNL     1       2.228   6.966  19.679  0.00  0.00    +0.000 A 
ATOM      7  C   UNL     1       2.156   8.093  18.858  0.00  0.00    +0.000 A 
ATOM      8  C   UNL     1       2.861   8.033  17.675  0.00  0.00    +0.000 A 
ATOM      9  N   UNL     1       3.618   6.977  17.293  0.00  0.00    +0.000 NA
ATOM     10  C   UNL     1       3.762   5.900  18.096  0.00  0.00    +0.000 A 
ENDROOT
BRANCH   1  20
ATOM     11  C   UNL     1       7.342   6.465  17.444  0.00  0.00    +0.000 C 
ATOM     12  C   UNL     1       6.730   5.618  16.353  0.00  0.00    +0.000 A 
ATOM     13  C   UNL     1       7.456   5.609  15.130  0.00  0.00    +0.000 A 
ATOM     14  C   UNL     1       7.032   4.807  14.063  0.00  0.00    +0.000 A 
ATOM     15  C   UNL     1       7.481   4.507  12.758  0.00  0.00    +0.000 A 
ATOM     16  N   UNL     1       6.692   3.629  12.131  0.00  0.00    +0.000 NA
ATOM     17  N   UNL     1       5.735   3.371  13.043  0.00  0.00    +0.000 N 
ATOM     18  C   UNL     1       5.875   4.069  14.213  0.00  0.00    +0.000 A 
ATOM     19  C   UNL     1       5.096   4.108  15.374  0.00  0.00    +0.000 A 
ATOM     20  C   UNL     1       5.520   4.869  16.497  0.00  0.00    +0.000 A 
ATOM     21  H   UNL     1       5.015   2.696  12.809  0.00  0.00    +0.000 HD
ENDBRANCH   1  20
BRANCH   7  22
ATOM     22  C   UNL     1       1.411   9.343  19.137  0.00  0.00    +0.000 C 
ATOM     23  N   UNL     1       1.129  10.172  18.088  0.00  0.00    +0.000 N 
ATOM     24  O   UNL     1       1.031   9.627  20.263  0.00  0.00    +0.000 OA
ATOM     25  H   UNL     1       1.423   9.936  17.148  0.00  0.00    +0.000 HD
ATOM     26  H   UNL     1       0.609  11.021  18.258  0.00  0.00    +0.000 HD
ENDBRANCH   7  22
BRANCH   6  27
ATOM     27  O   UNL     1       1.520   6.997  20.862  0.00  0.00    +0.000 OA
ATOM     28  H   UNL     1       1.240   6.108  21.122  0.00  0.00    +0.000 HD
ENDBRANCH   6  27
TORSDOF 3
ENDMDL
MODEL 4
REMARK VINA RESULT:      -8.1      3.060      4.923
REMARK  Name = 
REMARK  4 active torsions:
REMARK  status: ('A' for Active; 'I' for Inactive)
REMARK    1  A    between atoms: C_1  and  C_2
REMARK    2  A    between atoms: C_10  and  C_11
REMARK    3  A    between atoms: C_16  and  O_17
REMARK    4  A    between atoms: C_18  and  C_19
REMARK                            x       y       z     vdW  Elec       q    Type
REMARK                         _______ _______ _______ _____ _____    ______ ____
ROOT
ATOM      1  C   UNL     1       4.260   6.173  17.166  0.00  0.00    +0.000 A 
ATOM      2  C   UNL     1       3.729   7.467  16.990  0.00  0.00    +0.000 A 
ATOM      3  C   UNL     1       2.882   8.055  17.916  0.00  0.00    +0.000 A 
ATOM      4  C   UNL     1       2.454   7.321  19.008  0.00  0.00    +0.000 A 
ATOM      5  C   UNL     1       2.866   5.984  19.199  0.00  0.00    +0.000 A 
ATOM      6  C   UNL     1       2.359   5.157  20.247  0.00  0.00    +0.000 A 
ATOM      7  C   UNL     1       2.775   3.831  20.385  0.00  0.00    +0.000 A 
ATOM      8  C   UNL     1       3.726   3.393  19.489  0.00  0.00    +0.000 A 
ATOM      9  N   UNL     1       4.243   4.154  18.495  0.00  0.00    +0.000 NA
ATOM     10  C   UNL     1       3.811   5.418  18.293  0.00  0.00    +0.000 A 
ENDROOT
BRANCH   1  20
ATOM     11  C   UNL     1       7.395   6.348  17.346  0.00  0.00    +0.000 C 
ATOM     12  C   UNL     1       6.643   5.709  16.203  0.00  0.00    +0.000 A 
ATOM     13  C   UNL     1       7.468   5.186  15.169  0.00  0.00    +0.000 A 
ATOM     14  C   UNL     1       6.897   4.506  14.086  0.00  0.00    +0.000 A 
ATOM     15  C   UNL     1       7.358   3.838  12.930  0.00  0.00    +0.000 A 
ATOM     16  N   UNL     1       6.363   3.323  12.202  0.00  0.00    +0.000 NA
ATOM     17  N   UNL     1       5.263   3.666  12.899  0.00  0.00    +0.000 N 
ATOM     18  C   UNL     1       5.522   4.399  14.027  0.00  0.00    +0.000 A 
ATOM     19  C   UNL     1       4.676   4.962  14.988  0.00  0.00    +0.000 A 
ATOM     20  C   UNL     1       5.218   5.615  16.127  0.00  0.00    +0.000 A 
ATOM     21  H   UNL     1       4.359   3.359  12.556  0.00  0.00    +0.000 HD
ENDBRANCH   1  20
BRANCH   7  22
ATOM     22  C   UNL     1       2.289   2.853  21.387  0.00  0.00    +0.000 C 
ATOM     23  N   UNL     1       0.940   2.702  21.538  0.00  0.00    +0.000 N 
ATOM     24  O   UNL     1       3.061   2.175  22.050  0.00  0.00    +0.000 OA
ATOM     25  H   UNL     1       0.293   3.245  20.979  0.00  0.00    +0.000 HD
ATOM     26  H   UNL     1       0.592   2.029  22.205  0.00  0.00    +0.000 HD
ENDBRANCH   7  22
BRANCH   6  27
ATOM     27  O   UNL     1       1.417   5.623  21.140  0.00  0.00    +0.000 OA
ATOM     28  H   UNL     1       1.310   5.010  21.882  0.00  0.00    +0.000 HD
ENDBRANCH   6  27
TORSDOF 3
ENDMDL
MODEL 5
REMARK VINA RESULT:      -8.0      2.171      3.431
REMARK  Name = 
REMARK  4 active torsions:
REMARK  status: ('A' for Active; 'I' for Inactive)
REMARK    1  A    between atoms: C_1  and  C_2
REMARK    2  A    between atoms: C_10  and  C_11
REMARK    3  A    between atoms: C_16  and  O_17
REMARK    4  A    between atoms: C_18  and  C_19
REMARK                            x       y       z     vdW  Elec       q    Type
REMARK                         _______ _______ _______ _____ _____    ______ ____
ROOT
ATOM      1  C   UNL     1       4.295   3.828  17.339  0.00  0.00    +0.000 A 
ATOM      2  C   UNL     1       4.112   2.496  17.759  0.00  0.00    +0.000 A 
ATOM      3  C   UNL     1       3.171   2.140  18.713  0.00  0.00    +0.000 A 
ATOM      4  C   UNL     1       2.449   3.129  19.357  0.00  0.00    +0.000 A 
ATOM      5  C   UNL     1       2.650   4.494  19.058  0.00  0.00    +0.000 A 
ATOM      6  C   UNL     1       2.010   5.549  19.779  0.00  0.00    +0.000 A 
ATOM      7  C   UNL     1       2.256   6.888  19.467  0.00  0.00    +0.000 A 
ATOM      8  C   UNL     1       3.104   7.123  18.407  0.00  0.00    +0.000 A 
ATOM      9  N   UNL     1       3.714   6.148  17.690  0.00  0.00    +0.000 NA
ATOM     10  C   UNL     1       3.550   4.846  18.010  0.00  0.00    +0.000 A 
ENDROOT
BRANCH   1  20
ATOM     11  C   UNL     1       7.104   5.149  17.847  0.00  0.00    +0.000 C 
ATOM     12  C   UNL     1       6.587   4.747  16.485  0.00  0.00    +0.000 A 
ATOM     13  C   UNL     1       7.473   5.025  15.408  0.00  0.00    +0.000 A 
ATOM     14  C   UNL     1       7.142   4.638  14.104  0.00  0.00    +0.000 A 
ATOM     15  C   UNL     1       7.743   4.697  12.827  0.00  0.00    +0.000 A 
ATOM     16  N   UNL     1       6.985   4.145  11.875  0.00  0.00    +0.000 NA
ATOM     17  N   UNL     1       5.895   3.734  12.550  0.00  0.00    +0.000 N 
ATOM     18  C   UNL     1       5.923   4.026  13.888  0.00  0.00    +0.000 A 
ATOM     19  C   UNL     1       4.996   3.800  14.911  0.00  0.00    +0.000 A 
ATOM     20  C   UNL     1       5.316   4.132  16.255  0.00  0.00    +0.000 A 
ATOM     21  H   UNL     1       5.165   3.249  12.039  0.00  0.00    +0.000 HD
ENDBRANCH   1  20
BRANCH   7  22
ATOM     22  C   UNL     1       1.706   8.073  20.167  0.00  0.00    +0.000 C 
ATOM     23  N   UNL     1       1.741   8.088  21.532  0.00  0.00    +0.000 N 
ATOM     24  O   UNL     1       1.252   9.028  19.554  0.00  0.00    +0.000 OA
ATOM     25  H   UNL     1       2.132   7.310  22.049  0.00  0.00    +0.000 HD
ATOM     26  H   UNL     1       1.384   8.894  22.025  0.00  0.00    +0.000 HD
ENDBRANCH   7  22
BRANCH   6  27
ATOM     27  O   UNL     1       1.153   5.289  20.828  0.00  0.00    +0.000 OA
ATOM     28  H   UNL     1       0.244   5.528  20.601  0.00  0.00    +0.000 HD
ENDBRANCH   6  27
TORSDOF 3
ENDMDL
MODEL 6
REMARK VINA RESULT:      -8.0      1.497      2.169
REMARK  Name = 
REMARK  4 active torsions:
REMARK  status: ('A' for Active; 'I' for Inactive)
REMARK    1  A    between atoms: C_1  and  C_2
REMARK    2  A    between atoms: C_10  and  C_11
REMARK    3  A    between atoms: C_16  and  O_17
REMARK    4  A    between atoms: C_18  and  C_19
REMARK                            x       y       z     vdW  Elec       q    Type
REMARK                         _______ _______ _______ _____ _____    ______ ____
ROOT
ATOM      1  C   UNL     1       4.004   5.138  18.450  0.00  0.00    +0.000 A 
ATOM      2  C   UNL     1       3.923   4.100  19.399  0.00  0.00    +0.000 A 
ATOM      3  C   UNL     1       3.009   4.116  20.442  0.00  0.00    +0.000 A 
ATOM      4  C   UNL     1       2.211   5.230  20.628  0.00  0.00    +0.000 A 
ATOM      5  C   UNL     1       2.306   6.350  19.774  0.00  0.00    +0.000 A 
ATOM      6  C   UNL     1       1.584   7.562  20.000  0.00  0.00    +0.000 A 
ATOM      7  C   UNL     1       1.726   8.656  19.144  0.00  0.00    +0.000 A 
ATOM      8  C   UNL     1       2.558   8.480  18.060  0.00  0.00    +0.000 A 
ATOM      9  N   UNL     1       3.243   7.340  17.804  0.00  0.00    +0.000 NA
ATOM     10  C   UNL     1       3.180   6.288  18.650  0.00  0.00    +0.000 A 
ENDROOT
BRANCH   1  20
ATOM     11  C   UNL     1       7.053   5.881  18.662  0.00  0.00    +0.000 C 
ATOM     12  C   UNL     1       6.386   5.378  17.403  0.00  0.00    +0.000 A 
ATOM     13  C   UNL     1       7.247   5.273  16.277  0.00  0.00    +0.000 A 
ATOM     14  C   UNL     1       6.767   4.754  15.068  0.00  0.00    +0.000 A 
ATOM     15  C   UNL     1       7.293   4.466  13.789  0.00  0.00    +0.000 A 
ATOM     16  N   UNL     1       6.383   3.942  12.963  0.00  0.00    +0.000 NA
ATOM     17  N   UNL     1       5.271   3.897  13.721  0.00  0.00    +0.000 N 
ATOM     18  C   UNL     1       5.437   4.395  14.987  0.00  0.00    +0.000 A 
ATOM     19  C   UNL     1       4.543   4.551  16.052  0.00  0.00    +0.000 A 
ATOM     20  C   UNL     1       5.003   5.026  17.309  0.00  0.00    +0.000 A 
ATOM     21  H   UNL     1       4.427   3.504  13.319  0.00  0.00    +0.000 HD
ENDBRANCH   1  20
BRANCH   7  22
ATOM     22  C   UNL     1       1.083   9.983  19.293  0.00  0.00    +0.000 C 
ATOM     23  N   UNL     1       0.466  10.526  18.202  0.00  0.00    +0.000 N 
ATOM     24  O   UNL     1       1.077  10.578  20.361  0.00  0.00    +0.000 OA
ATOM     25  H   UNL     1       0.449  10.032  17.318  0.00  0.00    +0.000 HD
ATOM     26  H   UNL     1       0.010  11.422  18.290  0.00  0.00    +0.000 HD
ENDBRANCH   7  22
BRANCH   6  27
ATOM     27  O   UNL     1       0.746   7.710  21.085  0.00  0.00    +0.000 OA
ATOM     28  H   UNL     1       0.691   6.890  21.596  0.00  0.00    +0.000 HD
ENDBRANCH   6  27
TORSDOF 3
ENDMDL
MODEL 7
REMARK VINA RESULT:      -7.7      3.272      6.741
REMARK  Name = 
REMARK  4 active torsions:
REMARK  status: ('A' for Active; 'I' for Inactive)
REMARK    1  A    between atoms: C_1  and  C_2
REMARK    2  A    between atoms: C_10  and  C_11
REMARK    3  A    between atoms: C_16  and  O_17
REMARK    4  A    between atoms: C_18  and  C_19
REMARK                            x       y       z     vdW  Elec       q    Type
REMARK                         _______ _______ _______ _____ _____    ______ ____
ROOT
ATOM      1  C   UNL     1       2.728   5.394  18.315  0.00  0.00    +0.000 A 
ATOM      2  C   UNL     1       2.017   4.238  18.696  0.00  0.00    +0.000 A 
ATOM      3  C   UNL     1       2.418   2.964  18.328  0.00  0.00    +0.000 A 
ATOM      4  C   UNL     1       3.495   2.811  17.472  0.00  0.00    +0.000 A 
ATOM      5  C   UNL     1       4.196   3.929  16.971  0.00  0.00    +0.000 A 
ATOM      6  C   UNL     1       5.237   3.821  15.999  0.00  0.00    +0.000 A 
ATOM      7  C   UNL     1       5.888   4.955  15.510  0.00  0.00    +0.000 A 
ATOM      8  C   UNL     1       5.501   6.162  16.050  0.00  0.00    +0.000 A 
ATOM      9  N   UNL     1       4.531   6.301  16.986  0.00  0.00    +0.000 NA
ATOM     10  C   UNL     1       3.836   5.230  17.429  0.00  0.00    +0.000 A 
ENDROOT
BRANCH   1  20
ATOM     11  C   UNL     1       1.787   6.022  21.250  0.00  0.00    +0.000 C 
ATOM     12  C   UNL     1       1.807   7.034  20.128  0.00  0.00    +0.000 A 
ATOM     13  C   UNL     1       1.344   8.330  20.489  0.00  0.00    +0.000 A 
ATOM     14  C   UNL     1       1.378   9.376  19.558  0.00  0.00    +0.000 A 
ATOM     15  C   UNL     1       1.057  10.751  19.542  0.00  0.00    +0.000 A 
ATOM     16  N   UNL     1       1.302  11.323  18.360  0.00  0.00    +0.000 NA
ATOM     17  N   UNL     1       1.780  10.305  17.619  0.00  0.00    +0.000 N 
ATOM     18  C   UNL     1       1.825   9.106  18.280  0.00  0.00    +0.000 A 
ATOM     19  C   UNL     1       2.220   7.829  17.869  0.00  0.00    +0.000 A 
ATOM     20  C   UNL     1       2.249   6.753  18.797  0.00  0.00    +0.000 A 
ATOM     21  H   UNL     1       2.071  10.496  16.666  0.00  0.00    +0.000 HD
ENDBRANCH   1  20
BRANCH   7  22
ATOM     22  C   UNL     1       6.939   4.989  14.465  0.00  0.00    +0.000 C 
ATOM     23  N   UNL     1       6.742   4.258  13.329  0.00  0.00    +0.000 N 
ATOM     24  O   UNL     1       7.949   5.666  14.592  0.00  0.00    +0.000 OA
ATOM     25  H   UNL     1       5.900   3.709  13.207  0.00  0.00    +0.000 HD
ATOM     26  H   UNL     1       7.441   4.281  12.601  0.00  0.00    +0.000 HD
ENDBRANCH   7  22
BRANCH   6  27
ATOM     27  O   UNL     1       5.616   2.599  15.482  0.00  0.00    +0.000 OA
ATOM     28  H   UNL     1       6.532   2.393  15.718  0.00  0.00    +0.000 HD
ENDBRANCH   6  27
TORSDOF 3
ENDMDL
MODEL 8
REMARK VINA RESULT:      -7.7      3.830      7.403
REMARK  Name = 
REMARK  4 active torsions:
REMARK  status: ('A' for Active; 'I' for Inactive)
REMARK    1  A    between atoms: C_1  and  C_2
REMARK    2  A    between atoms: C_10  and  C_11
REMARK    3  A    between atoms: C_16  and  O_17
REMARK    4  A    between atoms: C_18  and  C_19
REMARK                            x       y       z     vdW  Elec       q    Type
REMARK                         _______ _______ _______ _____ _____    ______ ____
ROOT
ATOM      1  C   UNL     1       2.310   7.734  18.620  0.00  0.00    +0.000 A 
ATOM      2  C   UNL     1       3.326   8.081  17.707  0.00  0.00    +0.000 A 
ATOM      3  C   UNL     1       4.311   7.188  17.316  0.00  0.00    +0.000 A 
ATOM      4  C   UNL     1       4.370   5.939  17.910  0.00  0.00    +0.000 A 
ATOM      5  C   UNL     1       3.444   5.557  18.904  0.00  0.00    +0.000 A 
ATOM      6  C   UNL     1       3.540   4.325  19.622  0.00  0.00    +0.000 A 
ATOM      7  C   UNL     1       2.617   3.996  20.616  0.00  0.00    +0.000 A 
ATOM      8  C   UNL     1       1.597   4.899  20.826  0.00  0.00    +0.000 A 
ATOM      9  N   UNL     1       1.464   6.067  20.153  0.00  0.00    +0.000 NA
ATOM     10  C   UNL     1       2.379   6.445  19.233  0.00  0.00    +0.000 A 
ENDROOT
BRANCH   1  20
ATOM     11  C   UNL     1       1.690   8.764  21.527  0.00  0.00    +0.000 C 
ATOM     12  C   UNL     1       0.949   9.212  20.289  0.00  0.00    +0.000 A 
ATOM     13  C   UNL     1      -0.094  10.150  20.528  0.00  0.00    +0.000 A 
ATOM     14  C   UNL     1      -0.811  10.697  19.457  0.00  0.00    +0.000 A 
ATOM     15  C   UNL     1      -1.846  11.642  19.287  0.00  0.00    +0.000 A 
ATOM     16  N   UNL     1      -2.169  11.827  18.003  0.00  0.00    +0.000 NA
ATOM     17  N   UNL     1      -1.335  10.992  17.354  0.00  0.00    +0.000 N 
ATOM     18  C   UNL     1      -0.514  10.270  18.179  0.00  0.00    +0.000 A 
ATOM     19  C   UNL     1       0.455   9.297  17.911  0.00  0.00    +0.000 A 
ATOM     20  C   UNL     1       1.240   8.756  18.965  0.00  0.00    +0.000 A 
ATOM     21  H   UNL     1      -1.367  10.968  16.341  0.00  0.00    +0.000 HD
ENDBRANCH   1  20
BRANCH   7  22
ATOM     22  C   UNL     1       2.632   2.785  21.470  0.00  0.00    +0.000 C 
ATOM     23  N   UNL     1       1.482   2.442  22.122  0.00  0.00    +0.000 N 
ATOM     24  O   UNL     1       3.631   2.089  21.580  0.00  0.00    +0.000 OA
ATOM     25  H   UNL     1       0.644   3.002  22.022  0.00  0.00    +0.000 HD
ATOM     26  H   UNL     1       1.470   1.612  22.697  0.00  0.00    +0.000 HD
ENDBRANCH   7  22
BRANCH   6  27
ATOM     27  O   UNL     1       4.562   3.430  19.384  0.00  0.00    +0.000 OA
ATOM     28  H   UNL     1       4.217   2.537  19.246  0.00  0.00    +0.000 HD
ENDBRANCH   6  27
TORSDOF 3
ENDMDL
MODEL 9
REMARK VINA RESULT:      -7.6      3.064      6.737
REMARK  Name = 
REMARK  4 active torsions:
REMARK  status: ('A' for Active; 'I' for Inactive)
REMARK    1  A    between atoms: C_1  and  C_2
REMARK    2  A    between atoms: C_10  and  C_11
REMARK    3  A    between atoms: C_16  and  O_17
REMARK    4  A    between atoms: C_18  and  C_19
REMARK                            x       y       z     vdW  Elec       q    Type
REMARK                         _______ _______ _______ _____ _____    ______ ____
ROOT
ATOM      1  C   UNL     1       2.278   6.274  18.340  0.00  0.00    +0.000 A 
ATOM      2  C   UNL     1       1.229   5.333  18.313  0.00  0.00    +0.000 A 
ATOM      3  C   UNL     1       1.428   4.007  17.963  0.00  0.00    +0.000 A 
ATOM      4  C   UNL     1       2.677   3.600  17.527  0.00  0.00    +0.000 A 
ATOM      5  C   UNL     1       3.753   4.509  17.434  0.00  0.00    +0.000 A 
ATOM      6  C   UNL     1       5.022   4.156  16.882  0.00  0.00    +0.000 A 
ATOM      7  C   UNL     1       6.052   5.093  16.786  0.00  0.00    +0.000 A 
ATOM      8  C   UNL     1       5.787   6.347  17.292  0.00  0.00    +0.000 A 
ATOM      9  N   UNL     1       4.602   6.712  17.839  0.00  0.00    +0.000 NA
ATOM     10  C   UNL     1       3.564   5.848  17.885  0.00  0.00    +0.000 A 
ENDROOT
BRANCH   1  20
ATOM     11  C   UNL     1       1.213   7.090  21.185  0.00  0.00    +0.000 C 
ATOM     12  C   UNL     1       1.488   8.068  20.067  0.00  0.00    +0.000 A 
ATOM     13  C   UNL     1       1.213   9.426  20.385  0.00  0.00    +0.000 A 
ATOM     14  C   UNL     1       1.491  10.439  19.459  0.00  0.00    +0.000 A 
ATOM     15  C   UNL     1       1.399  11.847  19.413  0.00  0.00    +0.000 A 
ATOM     16  N   UNL     1       1.830  12.355  18.255  0.00  0.00    +0.000 NA
ATOM     17  N   UNL     1       2.196  11.262  17.558  0.00  0.00    +0.000 N 
ATOM     18  C   UNL     1       1.992  10.082  18.223  0.00  0.00    +0.000 A 
ATOM     19  C   UNL     1       2.209   8.751  17.849  0.00  0.00    +0.000 A 
ATOM     20  C   UNL     1       1.987   7.700  18.778  0.00  0.00    +0.000 A 
ATOM     21  H   UNL     1       2.591  11.389  16.633  0.00  0.00    +0.000 HD
ENDBRANCH   1  20
BRANCH   7  22
ATOM     22  C   UNL     1       7.390   4.877  16.187  0.00  0.00    +0.000 C 
ATOM     23  N   UNL     1       7.669   5.486  14.996  0.00  0.00    +0.000 N 
ATOM     24  O   UNL     1       8.240   4.195  16.741  0.00  0.00    +0.000 OA
ATOM     25  H   UNL     1       6.978   6.068  14.539  0.00  0.00    +0.000 HD
ATOM     26  H   UNL     1       8.580   5.362  14.581  0.00  0.00    +0.000 HD
ENDBRANCH   7  22
BRANCH   6  27
ATOM     27  O   UNL     1       5.269   2.890  16.394  0.00  0.00    +0.000 OA
ATOM     28  H   UNL     1       6.219   2.721  16.333  0.00  0.00    +0.000 HD
ENDBRANCH   6  27
TORSDOF 3
ENDMDL
