MODEL 1
REMARK VINA RESULT:      -8.7      0.000      0.000
REMARK  Name = 
REMARK  14 active torsions:
REMARK  status: ('A' for Active; 'I' for Inactive)
REMARK    1  A    between atoms: C_1  and  C_2
REMARK    2  A    between atoms: C_2  and  C_3
REMARK    3  A    between atoms: C_3  and  C_4
REMARK    4  A    between atoms: C_3  and  C_5
REMARK    5  A    between atoms: C_3  and  N_6
REMARK    6  A    between atoms: C_7  and  C_9
REMARK    7  A    between atoms: C_9  and  C_10
REMARK    8  A    between atoms: C_9  and  N_17
REMARK    9  A    between atoms: C_13  and  C_14
REMARK   10  A    between atoms: N_17  and  C_18
REMARK   11  A    between atoms: C_18  and  C_19
REMARK   12  A    between atoms: C_24  and  C_26
REMARK   13  A    between atoms: C_26  and  C_27
REMARK   14  A    between atoms: C_27  and  C_28
REMARK                            x       y       z     vdW  Elec       q    Type
REMARK                         _______ _______ _______ _____ _____    ______ ____
ROOT
ATOM      1  N   UNL     1       5.219   5.758  17.105  0.00  0.00    +0.000 N 
ATOM      2  C   UNL     1       6.121   5.798  18.164  0.00  0.00    +0.000 C 
ATOM      3  O   UNL     1       5.812   5.465  19.316  0.00  0.00    +0.000 OA
ENDROOT
BRANCH   1   4
ATOM      4  C   UNL     1       3.766   5.484  17.336  0.00  0.00    +0.000 C 
BRANCH   4   5
ATOM      5  C   UNL     1       3.071   6.665  18.028  0.00  0.00    +0.000 A 
ATOM      6  C   UNL     1       2.837   7.881  17.376  0.00  0.00    +0.000 A 
ATOM      7  C   UNL     1       2.160   8.929  18.012  0.00  0.00    +0.000 A 
ATOM      8  C   UNL     1       1.700   8.786  19.328  0.00  0.00    +0.000 A 
ATOM      9  C   UNL     1       0.927   9.884  20.000  0.00  0.00    +0.000 C 
ATOM     10  C   UNL     1       1.933   7.579  19.990  0.00  0.00    +0.000 A 
ATOM     11  C   UNL     1       2.611   6.533  19.352  0.00  0.00    +0.000 A 
ENDBRANCH   4   5
BRANCH   4  13
ATOM     12  N   UNL     1       3.726   3.525  18.979  0.00  0.00    +0.000 N 
ATOM     13  C   UNL     1       3.222   4.074  17.824  0.00  0.00    +0.000 C 
ATOM     14  O   UNL     1       2.276   3.559  17.219  0.00  0.00    +0.000 OA
ATOM     15  H   UNL     1       4.461   4.055  19.448  0.00  0.00    +0.000 HD
BRANCH  12  16
ATOM     16  C   UNL     1       3.253   2.259  19.585  0.00  0.00    +0.000 C 
ATOM     17  C   UNL     1       4.043   1.992  20.887  0.00  0.00    +0.000 C 
ATOM     18  C   UNL     1       3.533   1.061  18.648  0.00  0.00    +0.000 C 
BRANCH  16  20
ATOM     19  C   UNL     1       1.256   3.353  20.858  0.00  0.00    +0.000 C 
ATOM     20  C   UNL     1       1.728   2.261  19.910  0.00  0.00    +0.000 C 
ENDBRANCH  16  20
ENDBRANCH  12  16
ENDBRANCH   4  13
ENDBRANCH   1   4
BRANCH   1  21
ATOM     21  C   UNL     1       5.601   6.113  15.706  0.00  0.00    +0.000 C 
BRANCH  21  22
ATOM     22  C   UNL     1       6.011   4.882  14.883  0.00  0.00    +0.000 C 
ATOM     23  C   UNL     1       7.106   5.120  13.857  0.00  0.00    +0.000 C 
ATOM     24  C   UNL     1       6.959   3.876  13.007  0.00  0.00    +0.000 C 
ATOM     25  C   UNL     1       5.458   3.630  13.020  0.00  0.00    +0.000 C 
ATOM     26  O   UNL     1       4.907   4.399  14.103  0.00  0.00    +0.000 OA
ENDBRANCH  21  22
ENDBRANCH   1  21
BRANCH   2  27
ATOM     27  C   UNL     1       7.546   6.238  17.836  0.00  0.00    +0.000 C 
BRANCH  27  28
ATOM     28  C   UNL     1       8.189   7.178  18.857  0.00  0.00    +0.000 C 
BRANCH  28  29
ATOM     29  C   UNL     1       8.363   8.563  18.249  0.00  0.00    +0.000 C 
ATOM     30  O   UNL     1       7.907   8.846  17.145  0.00  0.00    +0.000 OA
ATOM     31  N   UNL     1       9.088   9.427  19.047  0.00  0.00    +0.000 N 
ATOM     32  C   UNL     1       9.428  10.716  18.612  0.00  0.00    +0.000 A 
ATOM     33  C   UNL     1       8.492  11.573  18.046  0.00  0.00    +0.000 A 
ATOM     34  C   UNL     1       8.914  12.818  17.588  0.00  0.00    +0.000 A 
ATOM     35  C   UNL     1      10.258  13.154  17.685  0.00  0.00    +0.000 A 
ATOM     36  C   UNL     1      11.114  12.248  18.291  0.00  0.00    +0.000 A 
ATOM     37  N   UNL     1      10.720  11.056  18.796  0.00  0.00    +0.000 NA
ATOM     38  H   UNL     1       9.794   9.020  19.647  0.00  0.00    +0.000 HD
ENDBRANCH  28  29
ENDBRANCH  27  28
ENDBRANCH   2  27
TORSDOF 10
ENDMDL
MODEL 2
REMARK VINA RESULT:      -8.4      0.740      1.068
REMARK  Name = 
REMARK  14 active torsions:
REMARK  status: ('A' for Active; 'I' for Inactive)
REMARK    1  A    between atoms: C_1  and  C_2
REMARK    2  A    between atoms: C_2  and  C_3
REMARK    3  A    between atoms: C_3  and  C_4
REMARK    4  A    between atoms: C_3  and  C_5
REMARK    5  A    between atoms: C_3  and  N_6
REMARK    6  A    between atoms: C_7  and  C_9
REMARK    7  A    between atoms: C_9  and  C_10
REMARK    8  A    between atoms: C_9  and  N_17
REMARK    9  A    between atoms: C_13  and  C_14
REMARK   10  A    between atoms: N_17  and  C_18
REMARK   11  A    between atoms: C_18  and  C_19
REMARK   12  A    between atoms: C_24  and  C_26
REMARK   13  A    between atoms: C_26  and  C_27
REMARK   14  A    between atoms: C_27  and  C_28
REMARK                            x       y       z     vdW  Elec       q    Type
REMARK                         _______ _______ _______ _____ _____    ______ ____
ROOT
ATOM      1  N   UNL     1       4.957   5.964  17.122  0.00  0.00    +0.000 N 
ATOM      2  C   UNL     1       5.922   5.683  18.085  0.00  0.00    +0.000 C 
ATOM      3  O   UNL     1       5.660   5.080  19.134  0.00  0.00    +0.000 OA
ENDROOT
BRANCH   1   4
ATOM      4  C   UNL     1       3.504   5.715  17.385  0.00  0.00    +0.000 C 
BRANCH   4   5
ATOM      5  C   UNL     1       2.856   6.890  18.132  0.00  0.00    +0.000 A 
ATOM      6  C   UNL     1       2.589   8.115  17.510  0.00  0.00    +0.000 A 
ATOM      7  C   UNL     1       1.956   9.157  18.199  0.00  0.00    +0.000 A 
ATOM      8  C   UNL     1       1.574   8.999  19.538  0.00  0.00    +0.000 A 
ATOM      9  C   UNL     1       0.846  10.091  20.268  0.00  0.00    +0.000 C 
ATOM     10  C   UNL     1       1.840   7.783  20.170  0.00  0.00    +0.000 A 
ATOM     11  C   UNL     1       2.476   6.743  19.480  0.00  0.00    +0.000 A 
ENDBRANCH   4   5
BRANCH   4  13
ATOM     12  N   UNL     1       3.015   3.954  19.174  0.00  0.00    +0.000 N 
ATOM     13  C   UNL     1       2.941   4.303  17.846  0.00  0.00    +0.000 C 
ATOM     14  O   UNL     1       2.345   3.603  17.022  0.00  0.00    +0.000 OA
ATOM     15  H   UNL     1       3.468   4.626  19.794  0.00  0.00    +0.000 HD
BRANCH  12  16
ATOM     16  C   UNL     1       2.461   2.706  19.748  0.00  0.00    +0.000 C 
ATOM     17  C   UNL     1       3.161   1.492  19.097  0.00  0.00    +0.000 C 
ATOM     18  C   UNL     1       0.955   2.571  19.422  0.00  0.00    +0.000 C 
BRANCH  16  20
ATOM     19  C   UNL     1       1.333   2.454  22.086  0.00  0.00    +0.000 C 
ATOM     20  C   UNL     1       2.622   2.614  21.296  0.00  0.00    +0.000 C 
ENDBRANCH  16  20
ENDBRANCH  12  16
ENDBRANCH   4  13
ENDBRANCH   1   4
BRANCH   1  21
ATOM     21  C   UNL     1       5.277   6.648  15.834  0.00  0.00    +0.000 C 
BRANCH  21  22
ATOM     22  C   UNL     1       5.561   5.651  14.699  0.00  0.00    +0.000 C 
ATOM     23  C   UNL     1       5.370   4.186  15.055  0.00  0.00    +0.000 C 
ATOM     24  C   UNL     1       6.097   3.527  13.902  0.00  0.00    +0.000 C 
ATOM     25  C   UNL     1       7.250   4.484  13.636  0.00  0.00    +0.000 C 
ATOM     26  O   UNL     1       6.933   5.728  14.283  0.00  0.00    +0.000 OA
ENDBRANCH  21  22
ENDBRANCH   1  21
BRANCH   2  27
ATOM     27  C   UNL     1       7.351   6.118  17.770  0.00  0.00    +0.000 C 
BRANCH  27  28
ATOM     28  C   UNL     1       8.002   7.020  18.820  0.00  0.00    +0.000 C 
BRANCH  28  29
ATOM     29  C   UNL     1       8.270   8.397  18.225  0.00  0.00    +0.000 C 
ATOM     30  O   UNL     1       7.963   8.672  17.069  0.00  0.00    +0.000 OA
ATOM     31  N   UNL     1       8.897   9.262  19.101  0.00  0.00    +0.000 N 
ATOM     32  C   UNL     1       9.305  10.542  18.701  0.00  0.00    +0.000 A 
ATOM     33  C   UNL     1       8.460  11.402  18.011  0.00  0.00    +0.000 A 
ATOM     34  C   UNL     1       8.953  12.637  17.598  0.00  0.00    +0.000 A 
ATOM     35  C   UNL     1      10.277  12.961  17.864  0.00  0.00    +0.000 A 
ATOM     36  C   UNL     1      11.037  12.052  18.583  0.00  0.00    +0.000 A 
ATOM     37  N   UNL     1      10.567  10.870  19.046  0.00  0.00    +0.000 NA
ATOM     38  H   UNL     1       9.514   8.854  19.791  0.00  0.00    +0.000 HD
ENDBRANCH  28  29
ENDBRANCH  27  28
ENDBRANCH   2  27
TORSDOF 10
ENDMDL
MODEL 3
REMARK VINA RESULT:      -8.4      0.672      1.161
REMARK  Name = 
REMARK  14 active torsions:
REMARK  status: ('A' for Active; 'I' for Inactive)
REMARK    1  A    between atoms: C_1  and  C_2
REMARK    2  A    between atoms: C_2  and  C_3
REMARK    3  A    between atoms: C_3  and  C_4
REMARK    4  A    between atoms: C_3  and  C_5
REMARK    5  A    between atoms: C_3  and  N_6
REMARK    6  A    between atoms: C_7  and  C_9
REMARK    7  A    between atoms: C_9  and  C_10
REMARK    8  A    between atoms: C_9  and  N_17
REMARK    9  A    between atoms: C_13  and  C_14
REMARK   10  A    between atoms: N_17  and  C_18
REMARK   11  A    between atoms: C_18  and  C_19
REMARK   12  A    between atoms: C_24  and  C_26
REMARK   13  A    between atoms: C_26  and  C_27
REMARK   14  A    between atoms: C_27  and  C_28
REMARK                            x       y       z     vdW  Elec       q    Type
REMARK                         _______ _______ _______ _____ _____    ______ ____
ROOT
ATOM      1  N   UNL     1       4.877   6.098  17.198  0.00  0.00    +0.000 N 
ATOM      2  C   UNL     1       5.880   6.006  18.158  0.00  0.00    +0.000 C 
ATOM      3  O   UNL     1       5.688   5.512  19.277  0.00  0.00    +0.000 OA
ENDROOT
BRANCH   1   4
ATOM      4  C   UNL     1       3.454   5.770  17.529  0.00  0.00    +0.000 C 
BRANCH   4   5
ATOM      5  C   UNL     1       2.772   6.919  18.286  0.00  0.00    +0.000 A 
ATOM      6  C   UNL     1       2.426   6.822  19.639  0.00  0.00    +0.000 A 
ATOM      7  C   UNL     1       1.846   7.899  20.320  0.00  0.00    +0.000 A 
ATOM      8  C   UNL     1       1.592   9.108  19.659  0.00  0.00    +0.000 A 
ATOM      9  C   UNL     1       1.021  10.286  20.395  0.00  0.00    +0.000 C 
ATOM     10  C   UNL     1       1.929   9.215  18.308  0.00  0.00    +0.000 A 
ATOM     11  C   UNL     1       2.507   8.136  17.628  0.00  0.00    +0.000 A 
ENDBRANCH   4   5
BRANCH   4  13
ATOM     12  N   UNL     1       3.785   3.661  18.935  0.00  0.00    +0.000 N 
ATOM     13  C   UNL     1       2.996   4.337  18.037  0.00  0.00    +0.000 C 
ATOM     14  O   UNL     1       1.884   3.916  17.703  0.00  0.00    +0.000 OA
ATOM     15  H   UNL     1       4.657   4.117  19.205  0.00  0.00    +0.000 HD
BRANCH  12  16
ATOM     16  C   UNL     1       3.439   2.356  19.545  0.00  0.00    +0.000 C 
ATOM     17  C   UNL     1       4.491   2.001  20.621  0.00  0.00    +0.000 C 
ATOM     18  C   UNL     1       3.489   1.225  18.492  0.00  0.00    +0.000 C 
BRANCH  16  20
ATOM     19  C   UNL     1       1.951   2.814  21.639  0.00  0.00    +0.000 C 
ATOM     20  C   UNL     1       2.022   2.336  20.196  0.00  0.00    +0.000 C 
ENDBRANCH  16  20
ENDBRANCH  12  16
ENDBRANCH   4  13
ENDBRANCH   1   4
BRANCH   1  21
ATOM     21  C   UNL     1       5.116   6.649  15.831  0.00  0.00    +0.000 C 
BRANCH  21  22
ATOM     22  C   UNL     1       5.446   5.551  14.808  0.00  0.00    +0.000 C 
ATOM     23  C   UNL     1       5.375   4.128  15.335  0.00  0.00    +0.000 C 
ATOM     24  C   UNL     1       6.120   3.393  14.241  0.00  0.00    +0.000 C 
ATOM     25  C   UNL     1       7.190   4.393  13.829  0.00  0.00    +0.000 C 
ATOM     26  O   UNL     1       6.797   5.678  14.340  0.00  0.00    +0.000 OA
ENDBRANCH  21  22
ENDBRANCH   1  21
BRANCH   2  27
ATOM     27  C   UNL     1       7.263   6.511  17.756  0.00  0.00    +0.000 C 
BRANCH  27  28
ATOM     28  C   UNL     1       7.986   7.345  18.815  0.00  0.00    +0.000 C 
BRANCH  28  29
ATOM     29  C   UNL     1       8.343   8.711  18.244  0.00  0.00    +0.000 C 
ATOM     30  O   UNL     1       8.076   9.017  17.086  0.00  0.00    +0.000 OA
ATOM     31  N   UNL     1       8.998   9.529  19.144  0.00  0.00    +0.000 N 
ATOM     32  C   UNL     1       9.485  10.789  18.770  0.00  0.00    +0.000 A 
ATOM     33  C   UNL     1       8.705  11.704  18.073  0.00  0.00    +0.000 A 
ATOM     34  C   UNL     1       9.275  12.914  17.687  0.00  0.00    +0.000 A 
ATOM     35  C   UNL     1      10.609  13.159  17.985  0.00  0.00    +0.000 A 
ATOM     36  C   UNL     1      11.301  12.200  18.708  0.00  0.00    +0.000 A 
ATOM     37  N   UNL     1      10.756  11.042  19.145  0.00  0.00    +0.000 NA
ATOM     38  H   UNL     1       9.577   9.079  19.841  0.00  0.00    +0.000 HD
ENDBRANCH  28  29
ENDBRANCH  27  28
ENDBRANCH   2  27
TORSDOF 10
ENDMDL
MODEL 4
REMARK VINA RESULT:      -7.8      5.127     10.210
REMARK  Name = 
REMARK  14 active torsions:
REMARK  status: ('A' for Active; 'I' for Inactive)
REMARK    1  A    between atoms: C_1  and  C_2
REMARK    2  A    between atoms: C_2  and  C_3
REMARK    3  A    between atoms: C_3  and  C_4
REMARK    4  A    between atoms: C_3  and  C_5
REMARK    5  A    between atoms: C_3  and  N_6
REMARK    6  A    between atoms: C_7  and  C_9
REMARK    7  A    between atoms: C_9  and  C_10
REMARK    8  A    between atoms: C_9  and  N_17
REMARK    9  A    between atoms: C_13  and  C_14
REMARK   10  A    between atoms: N_17  and  C_18
REMARK   11  A    between atoms: C_18  and  C_19
REMARK   12  A    between atoms: C_24  and  C_26
REMARK   13  A    between atoms: C_26  and  C_27
REMARK   14  A    between atoms: C_27  and  C_28
REMARK                            x       y       z     vdW  Elec       q    Type
REMARK                         _______ _______ _______ _____ _____    ______ ____
ROOT
ATOM      1  N   UNL     1       0.018  11.040  19.225  0.00  0.00    +0.000 N 
ATOM      2  C   UNL     1       1.220  10.599  18.680  0.00  0.00    +0.000 C 
ATOM      3  O   UNL     1       2.298  11.167  18.896  0.00  0.00    +0.000 OA
ENDROOT
BRANCH   1   4
ATOM      4  C   UNL     1      -0.068  12.343  19.958  0.00  0.00    +0.000 C 
BRANCH   4   5
ATOM      5  C   UNL     1      -1.121  12.293  21.075  0.00  0.00    +0.000 A 
ATOM      6  C   UNL     1      -0.926  11.564  22.253  0.00  0.00    +0.000 A 
ATOM      7  C   UNL     1      -1.880  11.571  23.278  0.00  0.00    +0.000 A 
ATOM      8  C   UNL     1      -3.064  12.310  23.147  0.00  0.00    +0.000 A 
ATOM      9  C   UNL     1      -4.068  12.366  24.262  0.00  0.00    +0.000 C 
ATOM     10  C   UNL     1      -3.271  13.037  21.973  0.00  0.00    +0.000 A 
ATOM     11  C   UNL     1      -2.316  13.027  20.949  0.00  0.00    +0.000 A 
ENDBRANCH   4   5
BRANCH   4  13
ATOM     12  N   UNL     1       0.501  14.835  19.895  0.00  0.00    +0.000 N 
ATOM     13  C   UNL     1      -0.011  13.750  19.224  0.00  0.00    +0.000 C 
ATOM     14  O   UNL     1      -0.318  13.811  18.029  0.00  0.00    +0.000 OA
ATOM     15  H   UNL     1       0.790  14.674  20.860  0.00  0.00    +0.000 HD
BRANCH  12  16
ATOM     16  C   UNL     1       0.682  16.181  19.305  0.00  0.00    +0.000 C 
ATOM     17  C   UNL     1       0.958  17.200  20.435  0.00  0.00    +0.000 C 
ATOM     18  C   UNL     1      -0.610  16.651  18.597  0.00  0.00    +0.000 C 
BRANCH  16  20
ATOM     19  C   UNL     1       3.212  15.823  18.778  0.00  0.00    +0.000 C 
ATOM     20  C   UNL     1       1.844  16.249  18.267  0.00  0.00    +0.000 C 
ENDBRANCH  16  20
ENDBRANCH  12  16
ENDBRANCH   4  13
ENDBRANCH   1   4
BRANCH   1  21
ATOM     21  C   UNL     1      -1.277  10.329  19.007  0.00  0.00    +0.000 C 
BRANCH  21  22
ATOM     22  C   UNL     1      -2.047  10.877  17.795  0.00  0.00    +0.000 C 
ATOM     23  C   UNL     1      -3.538  11.080  18.008  0.00  0.00    +0.000 C 
ATOM     24  C   UNL     1      -4.002  11.219  16.574  0.00  0.00    +0.000 C 
ATOM     25  C   UNL     1      -3.088  10.259  15.826  0.00  0.00    +0.000 C 
ATOM     26  O   UNL     1      -1.978   9.964  16.690  0.00  0.00    +0.000 OA
ENDBRANCH  21  22
ENDBRANCH   1  21
BRANCH   2  27
ATOM     27  C   UNL     1       1.162   9.336  17.824  0.00  0.00    +0.000 C 
BRANCH  27  28
ATOM     28  C   UNL     1       2.426   8.475  17.847  0.00  0.00    +0.000 C 
BRANCH  28  29
ATOM     29  C   UNL     1       2.300   7.397  18.916  0.00  0.00    +0.000 C 
ATOM     30  O   UNL     1       2.104   7.677  20.096  0.00  0.00    +0.000 OA
ATOM     31  N   UNL     1       2.449   6.115  18.425  0.00  0.00    +0.000 N 
ATOM     32  C   UNL     1       2.455   5.001  19.276  0.00  0.00    +0.000 A 
ATOM     33  C   UNL     1       1.488   4.817  20.257  0.00  0.00    +0.000 A 
ATOM     34  C   UNL     1       1.590   3.714  21.099  0.00  0.00    +0.000 A 
ATOM     35  C   UNL     1       2.666   2.848  20.954  0.00  0.00    +0.000 A 
ATOM     36  C   UNL     1       3.566   3.095  19.929  0.00  0.00    +0.000 A 
ATOM     37  N   UNL     1       3.459   4.126  19.060  0.00  0.00    +0.000 NA
ATOM     38  H   UNL     1       3.051   5.995  17.621  0.00  0.00    +0.000 HD
ENDBRANCH  28  29
ENDBRANCH  27  28
ENDBRANCH   2  27
TORSDOF 10
ENDMDL
MODEL 5
REMARK VINA RESULT:      -7.5      1.064      1.405
REMARK  Name = 
REMARK  14 active torsions:
REMARK  status: ('A' for Active; 'I' for Inactive)
REMARK    1  A    between atoms: C_1  and  C_2
REMARK    2  A    between atoms: C_2  and  C_3
REMARK    3  A    between atoms: C_3  and  C_4
REMARK    4  A    between atoms: C_3  and  C_5
REMARK    5  A    between atoms: C_3  and  N_6
REMARK    6  A    between atoms: C_7  and  C_9
REMARK    7  A    between atoms: C_9  and  C_10
REMARK    8  A    between atoms: C_9  and  N_17
REMARK    9  A    between atoms: C_13  and  C_14
REMARK   10  A    between atoms: N_17  and  C_18
REMARK   11  A    between atoms: C_18  and  C_19
REMARK   12  A    between atoms: C_24  and  C_26
REMARK   13  A    between atoms: C_26  and  C_27
REMARK   14  A    between atoms: C_27  and  C_28
REMARK                            x       y       z     vdW  Elec       q    Type
REMARK                         _______ _______ _______ _____ _____    ______ ____
ROOT
ATOM      1  N   UNL     1       5.242   5.965  17.181  0.00  0.00    +0.000 N 
ATOM      2  C   UNL     1       6.145   6.155  18.222  0.00  0.00    +0.000 C 
ATOM      3  O   UNL     1       5.878   5.868  19.397  0.00  0.00    +0.000 OA
ENDROOT
BRANCH   1   4
ATOM      4  C   UNL     1       3.823   5.570  17.448  0.00  0.00    +0.000 C 
BRANCH   4   5
ATOM      5  C   UNL     1       3.058   6.678  18.187  0.00  0.00    +0.000 A 
ATOM      6  C   UNL     1       2.699   7.880  17.566  0.00  0.00    +0.000 A 
ATOM      7  C   UNL     1       1.962   8.857  18.246  0.00  0.00    +0.000 A 
ATOM      8  C   UNL     1       1.566   8.657  19.575  0.00  0.00    +0.000 A 
ATOM      9  C   UNL     1       0.730   9.675  20.295  0.00  0.00    +0.000 C 
ATOM     10  C   UNL     1       1.923   7.463  20.206  0.00  0.00    +0.000 A 
ATOM     11  C   UNL     1       2.662   6.488  19.525  0.00  0.00    +0.000 A 
ENDBRANCH   4   5
BRANCH   4  13
ATOM     12  N   UNL     1       2.469   3.972  18.915  0.00  0.00    +0.000 N 
ATOM     13  C   UNL     1       3.408   4.112  17.921  0.00  0.00    +0.000 C 
ATOM     14  O   UNL     1       3.850   3.138  17.303  0.00  0.00    +0.000 OA
ATOM     15  H   UNL     1       2.110   4.836  19.323  0.00  0.00    +0.000 HD
BRANCH  12  16
ATOM     16  C   UNL     1       1.938   2.675  19.395  0.00  0.00    +0.000 C 
ATOM     17  C   UNL     1       3.006   1.578  19.184  0.00  0.00    +0.000 C 
ATOM     18  C   UNL     1       0.701   2.248  18.571  0.00  0.00    +0.000 C 
BRANCH  16  20
ATOM     19  C   UNL     1       2.277   3.682  21.778  0.00  0.00    +0.000 C 
ATOM     20  C   UNL     1       1.523   2.696  20.898  0.00  0.00    +0.000 C 
ENDBRANCH  16  20
ENDBRANCH  12  16
ENDBRANCH   4  13
ENDBRANCH   1   4
BRANCH   1  21
ATOM     21  C   UNL     1       5.576   6.265  15.757  0.00  0.00    +0.000 C 
BRANCH  21  22
ATOM     22  C   UNL     1       6.045   5.017  14.991  0.00  0.00    +0.000 C 
ATOM     23  C   UNL     1       7.130   5.258  13.956  0.00  0.00    +0.000 C 
ATOM     24  C   UNL     1       7.044   3.970  13.165  0.00  0.00    +0.000 C 
ATOM     25  C   UNL     1       5.555   3.656  13.189  0.00  0.00    +0.000 C 
ATOM     26  O   UNL     1       4.966   4.448  14.234  0.00  0.00    +0.000 OA
ENDBRANCH  21  22
ENDBRANCH   1  21
BRANCH   2  27
ATOM     27  C   UNL     1       7.518   6.705  17.847  0.00  0.00    +0.000 C 
BRANCH  27  28
ATOM     28  C   UNL     1       7.528   8.154  17.356  0.00  0.00    +0.000 C 
BRANCH  28  29
ATOM     29  C   UNL     1       8.433   8.996  18.247  0.00  0.00    +0.000 C 
ATOM     30  O   UNL     1       8.925   8.546  19.278  0.00  0.00    +0.000 OA
ATOM     31  N   UNL     1       8.610  10.287  17.788  0.00  0.00    +0.000 N 
ATOM     32  C   UNL     1       9.335  11.234  18.524  0.00  0.00    +0.000 A 
ATOM     33  C   UNL     1      10.586  10.951  19.058  0.00  0.00    +0.000 A 
ATOM     34  C   UNL     1      11.223  11.923  19.824  0.00  0.00    +0.000 A 
ATOM     35  C   UNL     1      10.580  13.133  20.053  0.00  0.00    +0.000 A 
ATOM     36  C   UNL     1       9.346  13.337  19.456  0.00  0.00    +0.000 A 
ATOM     37  N   UNL     1       8.731  12.432  18.660  0.00  0.00    +0.000 NA
ATOM     38  H   UNL     1       7.848  10.700  17.265  0.00  0.00    +0.000 HD
ENDBRANCH  28  29
ENDBRANCH  27  28
ENDBRANCH   2  27
TORSDOF 10
ENDMDL
MODEL 6
REMARK VINA RESULT:      -7.5      5.693     10.637
REMARK  Name = 
REMARK  14 active torsions:
REMARK  status: ('A' for Active; 'I' for Inactive)
REMARK    1  A    between atoms: C_1  and  C_2
REMARK    2  A    between atoms: C_2  and  C_3
REMARK    3  A    between atoms: C_3  and  C_4
REMARK    4  A    between atoms: C_3  and  C_5
REMARK    5  A    between atoms: C_3  and  N_6
REMARK    6  A    between atoms: C_7  and  C_9
REMARK    7  A    between atoms: C_9  and  C_10
REMARK    8  A    between atoms: C_9  and  N_17
REMARK    9  A    between atoms: C_13  and  C_14
REMARK   10  A    between atoms: N_17  and  C_18
REMARK   11  A    between atoms: C_18  and  C_19
REMARK   12  A    between atoms: C_24  and  C_26
REMARK   13  A    between atoms: C_26  and  C_27
REMARK   14  A    between atoms: C_27  and  C_28
REMARK                            x       y       z     vdW  Elec       q    Type
REMARK                         _______ _______ _______ _____ _____    ______ ____
ROOT
ATOM      1  N   UNL     1      -0.254  11.385  21.543  0.00  0.00    +0.000 N 
ATOM      2  C   UNL     1      -0.322  10.238  22.328  0.00  0.00    +0.000 C 
ATOM      3  O   UNL     1      -0.639  10.268  23.525  0.00  0.00    +0.000 OA
ENDROOT
BRANCH   1   4
ATOM      4  C   UNL     1      -0.384  12.748  22.149  0.00  0.00    +0.000 C 
BRANCH   4   5
ATOM      5  C   UNL     1      -1.828  13.039  22.581  0.00  0.00    +0.000 A 
ATOM      6  C   UNL     1      -2.130  13.768  23.736  0.00  0.00    +0.000 A 
ATOM      7  C   UNL     1      -3.455  14.061  24.086  0.00  0.00    +0.000 A 
ATOM      8  C   UNL     1      -4.518  13.624  23.284  0.00  0.00    +0.000 A 
ATOM      9  C   UNL     1      -5.937  13.979  23.622  0.00  0.00    +0.000 C 
ATOM     10  C   UNL     1      -4.228  12.891  22.131  0.00  0.00    +0.000 A 
ATOM     11  C   UNL     1      -2.903  12.598  21.785  0.00  0.00    +0.000 A 
ENDBRANCH   4   5
BRANCH   4  13
ATOM     12  N   UNL     1      -0.277  14.786  20.608  0.00  0.00    +0.000 N 
ATOM     13  C   UNL     1       0.356  14.026  21.563  0.00  0.00    +0.000 C 
ATOM     14  O   UNL     1       1.430  14.372  22.063  0.00  0.00    +0.000 OA
ATOM     15  H   UNL     1      -1.193  14.458  20.302  0.00  0.00    +0.000 HD
BRANCH  12  16
ATOM     16  C   UNL     1       0.265  16.041  20.037  0.00  0.00    +0.000 C 
ATOM     17  C   UNL     1       0.298  17.128  21.135  0.00  0.00    +0.000 C 
ATOM     18  C   UNL     1      -0.653  16.577  18.915  0.00  0.00    +0.000 C 
BRANCH  16  20
ATOM     19  C   UNL     1       2.676  17.000  19.759  0.00  0.00    +0.000 C 
ATOM     20  C   UNL     1       1.698  15.879  19.441  0.00  0.00    +0.000 C 
ENDBRANCH  16  20
ENDBRANCH  12  16
ENDBRANCH   4  13
ENDBRANCH   1   4
BRANCH   1  21
ATOM     21  C   UNL     1       0.081  11.349  20.088  0.00  0.00    +0.000 C 
BRANCH  21  22
ATOM     22  C   UNL     1      -1.115  10.918  19.224  0.00  0.00    +0.000 C 
ATOM     23  C   UNL     1      -0.785   9.975  18.079  0.00  0.00    +0.000 C 
ATOM     24  C   UNL     1      -2.047  10.096  17.253  0.00  0.00    +0.000 C 
ATOM     25  C   UNL     1      -2.436  11.555  17.438  0.00  0.00    +0.000 C 
ATOM     26  O   UNL     1      -1.711  12.051  18.576  0.00  0.00    +0.000 OA
ENDBRANCH  21  22
ENDBRANCH   1  21
BRANCH   2  27
ATOM     27  C   UNL     1      -0.024   8.913  21.633  0.00  0.00    +0.000 C 
BRANCH  27  28
ATOM     28  C   UNL     1       1.436   8.460  21.691  0.00  0.00    +0.000 C 
BRANCH  28  29
ATOM     29  C   UNL     1       1.786   7.674  20.434  0.00  0.00    +0.000 C 
ATOM     30  O   UNL     1       1.895   8.220  19.340  0.00  0.00    +0.000 OA
ATOM     31  N   UNL     1       1.937   6.319  20.657  0.00  0.00    +0.000 N 
ATOM     32  C   UNL     1       2.169   5.424  19.604  0.00  0.00    +0.000 A 
ATOM     33  C   UNL     1       3.138   5.660  18.636  0.00  0.00    +0.000 A 
ATOM     34  C   UNL     1       3.274   4.753  17.589  0.00  0.00    +0.000 A 
ATOM     35  C   UNL     1       2.423   3.657  17.528  0.00  0.00    +0.000 A 
ATOM     36  C   UNL     1       1.507   3.487  18.553  0.00  0.00    +0.000 A 
ATOM     37  N   UNL     1       1.392   4.322  19.612  0.00  0.00    +0.000 NA
ATOM     38  H   UNL     1       1.389   5.909  21.403  0.00  0.00    +0.000 HD
ENDBRANCH  28  29
ENDBRANCH  27  28
ENDBRANCH   2  27
TORSDOF 10
ENDMDL
MODEL 7
REMARK VINA RESULT:      -7.4      1.333      1.652
REMARK  Name = 
REMARK  14 active torsions:
REMARK  status: ('A' for Active; 'I' for Inactive)
REMARK    1  A    between atoms: C_1  and  C_2
REMARK    2  A    between atoms: C_2  and  C_3
REMARK    3  A    between atoms: C_3  and  C_4
REMARK    4  A    between atoms: C_3  and  C_5
REMARK    5  A    between atoms: C_3  and  N_6
REMARK    6  A    between atoms: C_7  and  C_9
REMARK    7  A    between atoms: C_9  and  C_10
REMARK    8  A    between atoms: C_9  and  N_17
REMARK    9  A    between atoms: C_13  and  C_14
REMARK   10  A    between atoms: N_17  and  C_18
REMARK   11  A    between atoms: C_18  and  C_19
REMARK   12  A    between atoms: C_24  and  C_26
REMARK   13  A    between atoms: C_26  and  C_27
REMARK   14  A    between atoms: C_27  and  C_28
REMARK                            x       y       z     vdW  Elec       q    Type
REMARK                         _______ _______ _______ _____ _____    ______ ____
ROOT
ATOM      1  N   UNL     1       5.039   6.357  17.530  0.00  0.00    +0.000 N 
ATOM      2  C   UNL     1       6.142   6.342  18.378  0.00  0.00    +0.000 C 
ATOM      3  O   UNL     1       6.093   5.882  19.527  0.00  0.00    +0.000 OA
ENDROOT
BRANCH   1   4
ATOM      4  C   UNL     1       3.676   5.984  18.024  0.00  0.00    +0.000 C 
BRANCH   4   5
ATOM      5  C   UNL     1       2.866   7.223  18.432  0.00  0.00    +0.000 A 
ATOM      6  C   UNL     1       2.626   8.283  17.551  0.00  0.00    +0.000 A 
ATOM      7  C   UNL     1       1.845   9.381  17.931  0.00  0.00    +0.000 A 
ATOM      8  C   UNL     1       1.284   9.449  19.213  0.00  0.00    +0.000 A 
ATOM      9  C   UNL     1       0.401  10.597  19.611  0.00  0.00    +0.000 C 
ATOM     10  C   UNL     1       1.521   8.399  20.102  0.00  0.00    +0.000 A 
ATOM     11  C   UNL     1       2.303   7.302  19.721  0.00  0.00    +0.000 A 
ENDBRANCH   4   5
BRANCH   4  13
ATOM     12  N   UNL     1       3.482   3.468  18.438  0.00  0.00    +0.000 N 
ATOM     13  C   UNL     1       3.414   4.734  18.968  0.00  0.00    +0.000 C 
ATOM     14  O   UNL     1       3.271   4.924  20.180  0.00  0.00    +0.000 OA
ATOM     15  H   UNL     1       3.670   3.406  17.437  0.00  0.00    +0.000 HD
BRANCH  12  16
ATOM     16  C   UNL     1       3.335   2.219  19.219  0.00  0.00    +0.000 C 
ATOM     17  C   UNL     1       4.320   2.245  20.411  0.00  0.00    +0.000 C 
ATOM     18  C   UNL     1       3.712   0.986  18.365  0.00  0.00    +0.000 C 
BRANCH  16  20
ATOM     19  C   UNL     1       0.763   2.405  18.825  0.00  0.00    +0.000 C 
ATOM     20  C   UNL     1       1.890   1.996  19.761  0.00  0.00    +0.000 C 
ENDBRANCH  16  20
ENDBRANCH  12  16
ENDBRANCH   4  13
ENDBRANCH   1   4
BRANCH   1  21
ATOM     21  C   UNL     1       5.106   6.865  16.127  0.00  0.00    +0.000 C 
BRANCH  21  22
ATOM     22  C   UNL     1       5.380   5.744  15.112  0.00  0.00    +0.000 C 
ATOM     23  C   UNL     1       5.244   4.330  15.651  0.00  0.00    +0.000 C 
ATOM     24  C   UNL     1       5.950   3.553  14.560  0.00  0.00    +0.000 C 
ATOM     25  C   UNL     1       7.064   4.498  14.136  0.00  0.00    +0.000 C 
ATOM     26  O   UNL     1       6.734   5.804  14.638  0.00  0.00    +0.000 OA
ENDBRANCH  21  22
ENDBRANCH   1  21
BRANCH   2  27
ATOM     27  C   UNL     1       7.451   6.886  17.811  0.00  0.00    +0.000 C 
BRANCH  27  28
ATOM     28  C   UNL     1       7.427   8.366  17.425  0.00  0.00    +0.000 C 
BRANCH  28  29
ATOM     29  C   UNL     1       8.420   9.142  18.280  0.00  0.00    +0.000 C 
ATOM     30  O   UNL     1       8.992   8.624  19.235  0.00  0.00    +0.000 OA
ATOM     31  N   UNL     1       8.580  10.455  17.884  0.00  0.00    +0.000 N 
ATOM     32  C   UNL     1       9.384  11.347  18.607  0.00  0.00    +0.000 A 
ATOM     33  C   UNL     1      10.671  11.016  19.013  0.00  0.00    +0.000 A 
ATOM     34  C   UNL     1      11.390  11.932  19.775  0.00  0.00    +0.000 A 
ATOM     35  C   UNL     1      10.792  13.134  20.130  0.00  0.00    +0.000 A 
ATOM     36  C   UNL     1       9.515  13.390  19.657  0.00  0.00    +0.000 A 
ATOM     37  N   UNL     1       8.816  12.542  18.866  0.00  0.00    +0.000 NA
ATOM     38  H   UNL     1       7.784  10.909  17.455  0.00  0.00    +0.000 HD
ENDBRANCH  28  29
ENDBRANCH  27  28
ENDBRANCH   2  27
TORSDOF 10
ENDMDL
MODEL 8
REMARK VINA RESULT:      -7.3      5.454     10.218
REMARK  Name = 
REMARK  14 active torsions:
REMARK  status: ('A' for Active; 'I' for Inactive)
REMARK    1  A    between atoms: C_1  and  C_2
REMARK    2  A    between atoms: C_2  and  C_3
REMARK    3  A    between atoms: C_3  and  C_4
REMARK    4  A    between atoms: C_3  and  C_5
REMARK    5  A    between atoms: C_3  and  N_6
REMARK    6  A    between atoms: C_7  and  C_9
REMARK    7  A    between atoms: C_9  and  C_10
REMARK    8  A    between atoms: C_9  and  N_17
REMARK    9  A    between atoms: C_13  and  C_14
REMARK   10  A    between atoms: N_17  and  C_18
REMARK   11  A    between atoms: C_18  and  C_19
REMARK   12  A    between atoms: C_24  and  C_26
REMARK   13  A    between atoms: C_26  and  C_27
REMARK   14  A    between atoms: C_27  and  C_28
REMARK                            x       y       z     vdW  Elec       q    Type
REMARK                         _______ _______ _______ _____ _____    ______ ____
ROOT
ATOM      1  N   UNL     1      -0.235  11.137  21.272  0.00  0.00    +0.000 N 
ATOM      2  C   UNL     1      -0.245   9.950  21.999  0.00  0.00    +0.000 C 
ATOM      3  O   UNL     1      -0.553   9.906  23.197  0.00  0.00    +0.000 OA
ENDROOT
BRANCH   1   4
ATOM      4  C   UNL     1      -0.419  12.461  21.946  0.00  0.00    +0.000 C 
BRANCH   4   5
ATOM      5  C   UNL     1      -1.889  12.706  22.316  0.00  0.00    +0.000 A 
ATOM      6  C   UNL     1      -2.928  12.556  21.390  0.00  0.00    +0.000 A 
ATOM      7  C   UNL     1      -4.265  12.741  21.762  0.00  0.00    +0.000 A 
ATOM      8  C   UNL     1      -4.598  13.087  23.079  0.00  0.00    +0.000 A 
ATOM      9  C   UNL     1      -6.032  13.234  23.500  0.00  0.00    +0.000 C 
ATOM     10  C   UNL     1      -3.569  13.244  24.009  0.00  0.00    +0.000 A 
ATOM     11  C   UNL     1      -2.233  13.061  23.635  0.00  0.00    +0.000 A 
ENDBRANCH   4   5
BRANCH   4  13
ATOM     12  N   UNL     1      -0.201  14.517  20.442  0.00  0.00    +0.000 N 
ATOM     13  C   UNL     1       0.329  13.780  21.474  0.00  0.00    +0.000 C 
ATOM     14  O   UNL     1       1.303  14.175  22.121  0.00  0.00    +0.000 OA
ATOM     15  H   UNL     1      -1.047  14.146  20.009  0.00  0.00    +0.000 HD
BRANCH  12  16
ATOM     16  C   UNL     1       0.350  15.803  19.956  0.00  0.00    +0.000 C 
ATOM     17  C   UNL     1       0.083  16.902  21.009  0.00  0.00    +0.000 C 
ATOM     18  C   UNL     1      -0.363  16.254  18.660  0.00  0.00    +0.000 C 
BRANCH  16  20
ATOM     19  C   UNL     1       2.297  14.850  18.503  0.00  0.00    +0.000 C 
ATOM     20  C   UNL     1       1.881  15.745  19.660  0.00  0.00    +0.000 C 
ENDBRANCH  16  20
ENDBRANCH  12  16
ENDBRANCH   4  13
ENDBRANCH   1   4
BRANCH   1  21
ATOM     21  C   UNL     1       0.089  11.188  19.815  0.00  0.00    +0.000 C 
BRANCH  21  22
ATOM     22  C   UNL     1      -1.113  10.806  18.936  0.00  0.00    +0.000 C 
ATOM     23  C   UNL     1      -0.815   9.822  17.817  0.00  0.00    +0.000 C 
ATOM     24  C   UNL     1      -2.053   9.996  16.963  0.00  0.00    +0.000 C 
ATOM     25  C   UNL     1      -2.363  11.479  17.112  0.00  0.00    +0.000 C 
ATOM     26  O   UNL     1      -1.632  11.957  18.253  0.00  0.00    +0.000 OA
ENDBRANCH  21  22
ENDBRANCH   1  21
BRANCH   2  27
ATOM     27  C   UNL     1       0.104   8.675  21.236  0.00  0.00    +0.000 C 
BRANCH  27  28
ATOM     28  C   UNL     1       1.592   8.319  21.211  0.00  0.00    +0.000 C 
BRANCH  28  29
ATOM     29  C   UNL     1       1.797   7.001  20.475  0.00  0.00    +0.000 C 
ATOM     30  O   UNL     1       1.451   5.928  20.963  0.00  0.00    +0.000 OA
ATOM     31  N   UNL     1       2.415   7.146  19.248  0.00  0.00    +0.000 N 
ATOM     32  C   UNL     1       2.768   6.035  18.469  0.00  0.00    +0.000 A 
ATOM     33  C   UNL     1       1.877   5.000  18.216  0.00  0.00    +0.000 A 
ATOM     34  C   UNL     1       2.316   3.903  17.479  0.00  0.00    +0.000 A 
ATOM     35  C   UNL     1       3.634   3.864  17.044  0.00  0.00    +0.000 A 
ATOM     36  C   UNL     1       4.443   4.955  17.320  0.00  0.00    +0.000 A 
ATOM     37  N   UNL     1       4.026   6.059  17.983  0.00  0.00    +0.000 NA
ATOM     38  H   UNL     1       3.063   7.916  19.146  0.00  0.00    +0.000 HD
ENDBRANCH  28  29
ENDBRANCH  27  28
ENDBRANCH   2  27
TORSDOF 10
ENDMDL
MODEL 9
REMARK VINA RESULT:      -7.3      0.777      1.284
REMARK  Name = 
REMARK  14 active torsions:
REMARK  status: ('A' for Active; 'I' for Inactive)
REMARK    1  A    between atoms: C_1  and  C_2
REMARK    2  A    between atoms: C_2  and  C_3
REMARK    3  A    between atoms: C_3  and  C_4
REMARK    4  A    between atoms: C_3  and  C_5
REMARK    5  A    between atoms: C_3  and  N_6
REMARK    6  A    between atoms: C_7  and  C_9
REMARK    7  A    between atoms: C_9  and  C_10
REMARK    8  A    between atoms: C_9  and  N_17
REMARK    9  A    between atoms: C_13  and  C_14
REMARK   10  A    between atoms: N_17  and  C_18
REMARK   11  A    between atoms: C_18  and  C_19
REMARK   12  A    between atoms: C_24  and  C_26
REMARK   13  A    between atoms: C_26  and  C_27
REMARK   14  A    between atoms: C_27  and  C_28
REMARK                            x       y       z     vdW  Elec       q    Type
REMARK                         _______ _______ _______ _____ _____    ______ ____
ROOT
ATOM      1  N   UNL     1       4.769   5.985  17.297  0.00  0.00    +0.000 N 
ATOM      2  C   UNL     1       5.691   5.820  18.326  0.00  0.00    +0.000 C 
ATOM      3  O   UNL     1       5.367   5.427  19.454  0.00  0.00    +0.000 OA
ENDROOT
BRANCH   1   4
ATOM      4  C   UNL     1       3.298   5.871  17.549  0.00  0.00    +0.000 C 
BRANCH   4   5
ATOM      5  C   UNL     1       2.741   7.135  18.220  0.00  0.00    +0.000 A 
ATOM      6  C   UNL     1       2.593   8.344  17.531  0.00  0.00    +0.000 A 
ATOM      7  C   UNL     1       2.040   9.471  18.150  0.00  0.00    +0.000 A 
ATOM      8  C   UNL     1       1.621   9.418  19.487  0.00  0.00    +0.000 A 
ATOM      9  C   UNL     1       0.977  10.605  20.143  0.00  0.00    +0.000 C 
ATOM     10  C   UNL     1       1.768   8.218  20.185  0.00  0.00    +0.000 A 
ATOM     11  C   UNL     1       2.323   7.093  19.564  0.00  0.00    +0.000 A 
ENDBRANCH   4   5
BRANCH   4  13
ATOM     12  N   UNL     1       2.913   4.088  19.341  0.00  0.00    +0.000 N 
ATOM     13  C   UNL     1       2.614   4.538  18.077  0.00  0.00    +0.000 C 
ATOM     14  O   UNL     1       1.742   4.003  17.386  0.00  0.00    +0.000 OA
ATOM     15  H   UNL     1       3.598   4.633  19.865  0.00  0.00    +0.000 HD
BRANCH  12  16
ATOM     16  C   UNL     1       2.291   2.907  19.983  0.00  0.00    +0.000 C 
ATOM     17  C   UNL     1       0.778   3.165  20.165  0.00  0.00    +0.000 C 
ATOM     18  C   UNL     1       2.871   2.679  21.398  0.00  0.00    +0.000 C 
BRANCH  16  20
ATOM     19  C   UNL     1       3.763   1.502  18.350  0.00  0.00    +0.000 C 
ATOM     20  C   UNL     1       2.486   1.589  19.172  0.00  0.00    +0.000 C 
ENDBRANCH  16  20
ENDBRANCH  12  16
ENDBRANCH   4  13
ENDBRANCH   1   4
BRANCH   1  21
ATOM     21  C   UNL     1       5.162   6.412  15.921  0.00  0.00    +0.000 C 
BRANCH  21  22
ATOM     22  C   UNL     1       5.932   5.317  15.167  0.00  0.00    +0.000 C 
ATOM     23  C   UNL     1       5.638   5.221  13.679  0.00  0.00    +0.000 C 
ATOM     24  C   UNL     1       6.217   3.856  13.373  0.00  0.00    +0.000 C 
ATOM     25  C   UNL     1       5.912   3.067  14.638  0.00  0.00    +0.000 C 
ATOM     26  O   UNL     1       5.593   4.016  15.669  0.00  0.00    +0.000 OA
ENDBRANCH  21  22
ENDBRANCH   1  21
BRANCH   2  27
ATOM     27  C   UNL     1       7.152   6.109  17.990  0.00  0.00    +0.000 C 
BRANCH  27  28
ATOM     28  C   UNL     1       7.879   7.023  18.979  0.00  0.00    +0.000 C 
BRANCH  28  29
ATOM     29  C   UNL     1       8.165   8.369  18.327  0.00  0.00    +0.000 C 
ATOM     30  O   UNL     1       7.826   8.613  17.172  0.00  0.00    +0.000 OA
ATOM     31  N   UNL     1       8.847   9.245  19.149  0.00  0.00    +0.000 N 
ATOM     32  C   UNL     1       9.277  10.497  18.690  0.00  0.00    +0.000 A 
ATOM     33  C   UNL     1       8.434  11.358  17.998  0.00  0.00    +0.000 A 
ATOM     34  C   UNL     1       8.947  12.563  17.525  0.00  0.00    +0.000 A 
ATOM     35  C   UNL     1      10.289  12.855  17.734  0.00  0.00    +0.000 A 
ATOM     36  C   UNL     1      11.047  11.950  18.459  0.00  0.00    +0.000 A 
ATOM     37  N   UNL     1      10.559  10.800  18.980  0.00  0.00    +0.000 NA
ATOM     38  H   UNL     1       9.476   8.843  19.832  0.00  0.00    +0.000 HD
ENDBRANCH  28  29
ENDBRANCH  27  28
ENDBRANCH   2  27
TORSDOF 10
ENDMDL
