MODEL 1
REMARK VINA RESULT:      -6.5      0.000      0.000
REMARK  Name = 
REMARK  3 active torsions:
REMARK  status: ('A' for Active; 'I' for Inactive)
REMARK    1  A    between atoms: C_1  and  O_2
REMARK    2  A    between atoms: O_2  and  C_3
REMARK    3  A    between atoms: C_9  and  C_10
REMARK                            x       y       z     vdW  Elec       q    Type
REMARK                         _______ _______ _______ _____ _____    ______ ____
ROOT
ATOM      1  C   UNL     1       5.260   5.158  16.201  0.00  0.00    +0.000 C 
ATOM      2  C   UNL     1       5.147   3.822  16.361  0.00  0.00    +0.000 C 
ATOM      3  C   UNL     1       4.243   3.196  17.352  0.00  0.00    +0.000 C 
ATOM      4  O   UNL     1       4.192   1.977  17.453  0.00  0.00    +0.000 OA
ATOM      5  C   UNL     1       3.484   4.118  18.130  0.00  0.00    +0.000 A 
ATOM      6  C   UNL     1       3.552   5.501  18.016  0.00  0.00    +0.000 A 
ATOM      7  C   UNL     1       2.637   6.071  18.979  0.00  0.00    +0.000 A 
ATOM      8  C   UNL     1       2.066   4.989  19.617  0.00  0.00    +0.000 A 
ATOM      9  N   UNL     1       2.590   3.847  19.096  0.00  0.00    +0.000 N 
ATOM     10  C   UNL     1       2.066   2.634  19.692  0.00  0.00    +0.000 C 
ATOM     11  C   UNL     1       0.826   3.159  20.429  0.00  0.00    +0.000 C 
ATOM     12  C   UNL     1       1.082   4.669  20.676  0.00  0.00    +0.000 C 
ATOM     13  C   UNL     1       4.441   6.134  17.050  0.00  0.00    +0.000 C 
ATOM     14  O   UNL     1       4.522   7.348  16.929  0.00  0.00    +0.000 OA
ENDROOT
BRANCH   1  16
ATOM     15  C   UNL     1       7.029   4.922  14.583  0.00  0.00    +0.000 C 
ATOM     16  O   UNL     1       6.108   5.757  15.278  0.00  0.00    +0.000 OA
ENDBRANCH   1  16
BRANCH   7  17
ATOM     17  C   UNL     1       2.350   7.470  19.254  0.00  0.00    +0.000 C 
ATOM     18  O   UNL     1       1.918   7.872  20.332  0.00  0.00    +0.000 OA
ENDBRANCH   7  17
TORSDOF 2
ENDMDL
MODEL 2
REMARK VINA RESULT:      -6.5      1.206      1.299
REMARK  Name = 
REMARK  3 active torsions:
REMARK  status: ('A' for Active; 'I' for Inactive)
REMARK    1  A    between atoms: C_1  and  O_2
REMARK    2  A    between atoms: O_2  and  C_3
REMARK    3  A    between atoms: C_9  and  C_10
REMARK                            x       y       z     vdW  Elec       q    Type
REMARK                         _______ _______ _______ _____ _____    ______ ____
ROOT
ATOM      1  C   UNL     1       5.457   4.719  15.724  0.00  0.00    +0.000 C 
ATOM      2  C   UNL     1       5.226   3.518  16.296  0.00  0.00    +0.000 C 
ATOM      3  C   UNL     1       4.355   3.334  17.478  0.00  0.00    +0.000 C 
ATOM      4  O   UNL     1       4.191   2.218  17.954  0.00  0.00    +0.000 OA
ATOM      5  C   UNL     1       3.763   4.534  17.972  0.00  0.00    +0.000 A 
ATOM      6  C   UNL     1       3.959   5.798  17.432  0.00  0.00    +0.000 A 
ATOM      7  C   UNL     1       3.194   6.739  18.219  0.00  0.00    +0.000 A 
ATOM      8  C   UNL     1       2.575   5.977  19.189  0.00  0.00    +0.000 A 
ATOM      9  N   UNL     1       2.935   4.677  19.020  0.00  0.00    +0.000 N 
ATOM     10  C   UNL     1       2.347   3.773  19.990  0.00  0.00    +0.000 C 
ATOM     11  C   UNL     1       1.235   4.643  20.592  0.00  0.00    +0.000 C 
ATOM     12  C   UNL     1       1.661   6.114  20.346  0.00  0.00    +0.000 C 
ATOM     13  C   UNL     1       4.818   5.998  16.272  0.00  0.00    +0.000 C 
ATOM     14  O   UNL     1       5.009   7.100  15.778  0.00  0.00    +0.000 OA
ENDROOT
BRANCH   1  16
ATOM     15  C   UNL     1       6.259   3.904  13.604  0.00  0.00    +0.000 C 
ATOM     16  O   UNL     1       6.276   4.905  14.618  0.00  0.00    +0.000 OA
ENDBRANCH   1  16
BRANCH   7  17
ATOM     17  C   UNL     1       3.073   8.180  18.063  0.00  0.00    +0.000 C 
ATOM     18  O   UNL     1       2.269   8.712  17.301  0.00  0.00    +0.000 OA
ENDBRANCH   7  17
TORSDOF 2
ENDMDL
MODEL 3
REMARK VINA RESULT:      -6.4      1.586      1.723
REMARK  Name = 
REMARK  3 active torsions:
REMARK  status: ('A' for Active; 'I' for Inactive)
REMARK    1  A    between atoms: C_1  and  O_2
REMARK    2  A    between atoms: O_2  and  C_3
REMARK    3  A    between atoms: C_9  and  C_10
REMARK                            x       y       z     vdW  Elec       q    Type
REMARK                         _______ _______ _______ _____ _____    ______ ____
ROOT
ATOM      1  C   UNL     1       6.294   5.417  16.554  0.00  0.00    +0.000 C 
ATOM      2  C   UNL     1       6.372   4.409  17.449  0.00  0.00    +0.000 C 
ATOM      3  C   UNL     1       5.417   4.239  18.567  0.00  0.00    +0.000 C 
ATOM      4  O   UNL     1       5.546   3.307  19.350  0.00  0.00    +0.000 OA
ATOM      5  C   UNL     1       4.389   5.226  18.625  0.00  0.00    +0.000 A 
ATOM      6  C   UNL     1       4.252   6.286  17.738  0.00  0.00    +0.000 A 
ATOM      7  C   UNL     1       3.097   7.055  18.142  0.00  0.00    +0.000 A 
ATOM      8  C   UNL     1       2.602   6.404  19.253  0.00  0.00    +0.000 A 
ATOM      9  N   UNL     1       3.390   5.329  19.518  0.00  0.00    +0.000 N 
ATOM     10  C   UNL     1       2.970   4.561  20.675  0.00  0.00    +0.000 C 
ATOM     11  C   UNL     1       1.548   5.094  20.901  0.00  0.00    +0.000 C 
ATOM     12  C   UNL     1       1.507   6.499  20.245  0.00  0.00    +0.000 C 
ATOM     13  C   UNL     1       5.187   6.472  16.636  0.00  0.00    +0.000 C 
ATOM     14  O   UNL     1       5.091   7.396  15.841  0.00  0.00    +0.000 OA
ENDROOT
BRANCH   1  16
ATOM     15  C   UNL     1       7.025   4.767  14.352  0.00  0.00    +0.000 C 
ATOM     16  O   UNL     1       7.187   5.590  15.504  0.00  0.00    +0.000 OA
ENDBRANCH   1  16
BRANCH   7  17
ATOM     17  C   UNL     1       2.541   8.258  17.542  0.00  0.00    +0.000 C 
ATOM     18  O   UNL     1       2.029   9.164  18.195  0.00  0.00    +0.000 OA
ENDBRANCH   7  17
TORSDOF 2
ENDMDL
MODEL 4
REMARK VINA RESULT:      -6.3      1.820      4.740
REMARK  Name = 
REMARK  3 active torsions:
REMARK  status: ('A' for Active; 'I' for Inactive)
REMARK    1  A    between atoms: C_1  and  O_2
REMARK    2  A    between atoms: O_2  and  C_3
REMARK    3  A    between atoms: C_9  and  C_10
REMARK                            x       y       z     vdW  Elec       q    Type
REMARK                         _______ _______ _______ _____ _____    ______ ____
ROOT
ATOM      1  C   UNL     1       1.981   3.590  19.944  0.00  0.00    +0.000 C 
ATOM      2  C   UNL     1       2.550   2.542  19.312  0.00  0.00    +0.000 C 
ATOM      3  C   UNL     1       3.475   2.689  18.166  0.00  0.00    +0.000 C 
ATOM      4  O   UNL     1       3.954   1.698  17.631  0.00  0.00    +0.000 OA
ATOM      5  C   UNL     1       3.731   4.038  17.778  0.00  0.00    +0.000 A 
ATOM      6  C   UNL     1       3.179   5.159  18.385  0.00  0.00    +0.000 A 
ATOM      7  C   UNL     1       3.682   6.327  17.698  0.00  0.00    +0.000 A 
ATOM      8  C   UNL     1       4.516   5.835  16.715  0.00  0.00    +0.000 A 
ATOM      9  N   UNL     1       4.521   4.477  16.785  0.00  0.00    +0.000 N 
ATOM     10  C   UNL     1       5.365   3.840  15.792  0.00  0.00    +0.000 C 
ATOM     11  C   UNL     1       6.214   5.021  15.301  0.00  0.00    +0.000 C 
ATOM     12  C   UNL     1       5.394   6.300  15.617  0.00  0.00    +0.000 C 
ATOM     13  C   UNL     1       2.262   5.032  19.510  0.00  0.00    +0.000 C 
ATOM     14  O   UNL     1       1.761   6.001  20.062  0.00  0.00    +0.000 OA
ENDROOT
BRANCH   1  16
ATOM     15  C   UNL     1       1.412   2.490  22.010  0.00  0.00    +0.000 C 
ATOM     16  O   UNL     1       1.107   3.465  21.017  0.00  0.00    +0.000 OA
ENDBRANCH   1  16
BRANCH   7  17
ATOM     17  C   UNL     1       3.399   7.732  17.950  0.00  0.00    +0.000 C 
ATOM     18  O   UNL     1       2.326   8.264  17.676  0.00  0.00    +0.000 OA
ENDBRANCH   7  17
TORSDOF 2
ENDMDL
MODEL 5
REMARK VINA RESULT:      -6.3      1.958      5.546
REMARK  Name = 
REMARK  3 active torsions:
REMARK  status: ('A' for Active; 'I' for Inactive)
REMARK    1  A    between atoms: C_1  and  O_2
REMARK    2  A    between atoms: O_2  and  C_3
REMARK    3  A    between atoms: C_9  and  C_10
REMARK                            x       y       z     vdW  Elec       q    Type
REMARK                         _______ _______ _______ _____ _____    ______ ____
ROOT
ATOM      1  C   UNL     1       1.986   6.930  20.026  0.00  0.00    +0.000 C 
ATOM      2  C   UNL     1       2.253   7.833  19.059  0.00  0.00    +0.000 C 
ATOM      3  C   UNL     1       3.125   7.547  17.898  0.00  0.00    +0.000 C 
ATOM      4  O   UNL     1       3.334   8.412  17.057  0.00  0.00    +0.000 OA
ATOM      5  C   UNL     1       3.663   6.226  17.871  0.00  0.00    +0.000 A 
ATOM      6  C   UNL     1       3.428   5.251  18.831  0.00  0.00    +0.000 A 
ATOM      7  C   UNL     1       4.154   4.063  18.443  0.00  0.00    +0.000 A 
ATOM      8  C   UNL     1       4.783   4.396  17.261  0.00  0.00    +0.000 A 
ATOM      9  N   UNL     1       4.477   5.684  16.950  0.00  0.00    +0.000 N 
ATOM     10  C   UNL     1       5.087   6.153  15.721  0.00  0.00    +0.000 C 
ATOM     11  C   UNL     1       5.539   4.836  15.075  0.00  0.00    +0.000 C 
ATOM     12  C   UNL     1       5.678   3.815  16.234  0.00  0.00    +0.000 C 
ATOM     13  C   UNL     1       2.578   5.518  19.984  0.00  0.00    +0.000 C 
ATOM     14  O   UNL     1       2.355   4.679  20.845  0.00  0.00    +0.000 OA
ENDROOT
BRANCH   1  16
ATOM     15  C   UNL     1       1.000   8.547  21.515  0.00  0.00    +0.000 C 
ATOM     16  O   UNL     1       1.173   7.188  21.123  0.00  0.00    +0.000 OA
ENDBRANCH   1  16
BRANCH   7  17
ATOM     17  C   UNL     1       4.237   2.777  19.119  0.00  0.00    +0.000 C 
ATOM     18  O   UNL     1       5.021   2.545  20.035  0.00  0.00    +0.000 OA
ENDBRANCH   7  17
TORSDOF 2
ENDMDL
MODEL 6
REMARK VINA RESULT:      -6.2      2.138      3.512
REMARK  Name = 
REMARK  3 active torsions:
REMARK  status: ('A' for Active; 'I' for Inactive)
REMARK    1  A    between atoms: C_1  and  O_2
REMARK    2  A    between atoms: O_2  and  C_3
REMARK    3  A    between atoms: C_9  and  C_10
REMARK                            x       y       z     vdW  Elec       q    Type
REMARK                         _______ _______ _______ _____ _____    ______ ____
ROOT
ATOM      1  C   UNL     1       5.904   6.112  17.647  0.00  0.00    +0.000 C 
ATOM      2  C   UNL     1       4.744   6.791  17.512  0.00  0.00    +0.000 C 
ATOM      3  C   UNL     1       3.451   6.304  18.042  0.00  0.00    +0.000 C 
ATOM      4  O   UNL     1       2.432   6.964  17.881  0.00  0.00    +0.000 OA
ATOM      5  C   UNL     1       3.521   5.053  18.723  0.00  0.00    +0.000 A 
ATOM      6  C   UNL     1       4.679   4.305  18.897  0.00  0.00    +0.000 A 
ATOM      7  C   UNL     1       4.328   3.108  19.628  0.00  0.00    +0.000 A 
ATOM      8  C   UNL     1       2.971   3.211  19.855  0.00  0.00    +0.000 A 
ATOM      9  N   UNL     1       2.521   4.370  19.304  0.00  0.00    +0.000 N 
ATOM     10  C   UNL     1       1.098   4.590  19.477  0.00  0.00    +0.000 C 
ATOM     11  C   UNL     1       0.754   3.566  20.567  0.00  0.00    +0.000 C 
ATOM     12  C   UNL     1       1.855   2.476  20.493  0.00  0.00    +0.000 C 
ATOM     13  C   UNL     1       5.959   4.766  18.375  0.00  0.00    +0.000 C 
ATOM     14  O   UNL     1       6.993   4.128  18.513  0.00  0.00    +0.000 OA
ENDROOT
BRANCH   1  16
ATOM     15  C   UNL     1       7.698   7.716  17.742  0.00  0.00    +0.000 C 
ATOM     16  O   UNL     1       7.122   6.556  17.149  0.00  0.00    +0.000 OA
ENDBRANCH   1  16
BRANCH   7  17
ATOM     17  C   UNL     1       5.181   2.009  20.050  0.00  0.00    +0.000 C 
ATOM     18  O   UNL     1       5.262   1.626  21.215  0.00  0.00    +0.000 OA
ENDBRANCH   7  17
TORSDOF 2
ENDMDL
MODEL 7
REMARK VINA RESULT:      -6.0      1.251      3.400
REMARK  Name = 
REMARK  3 active torsions:
REMARK  status: ('A' for Active; 'I' for Inactive)
REMARK    1  A    between atoms: C_1  and  O_2
REMARK    2  A    between atoms: O_2  and  C_3
REMARK    3  A    between atoms: C_9  and  C_10
REMARK                            x       y       z     vdW  Elec       q    Type
REMARK                         _______ _______ _______ _____ _____    ______ ____
ROOT
ATOM      1  C   UNL     1       5.786   5.477  15.867  0.00  0.00    +0.000 C 
ATOM      2  C   UNL     1       5.308   6.642  16.353  0.00  0.00    +0.000 C 
ATOM      3  C   UNL     1       4.239   6.720  17.374  0.00  0.00    +0.000 C 
ATOM      4  O   UNL     1       3.844   7.809  17.770  0.00  0.00    +0.000 OA
ATOM      5  C   UNL     1       3.750   5.456  17.818  0.00  0.00    +0.000 A 
ATOM      6  C   UNL     1       4.197   4.223  17.360  0.00  0.00    +0.000 A 
ATOM      7  C   UNL     1       3.450   3.196  18.050  0.00  0.00    +0.000 A 
ATOM      8  C   UNL     1       2.594   3.878  18.892  0.00  0.00    +0.000 A 
ATOM      9  N   UNL     1       2.792   5.213  18.729  0.00  0.00    +0.000 N 
ATOM     10  C   UNL     1       1.942   6.040  19.564  0.00  0.00    +0.000 C 
ATOM     11  C   UNL     1       1.418   5.019  20.583  0.00  0.00    +0.000 C 
ATOM     12  C   UNL     1       1.539   3.631  19.900  0.00  0.00    +0.000 C 
ATOM     13  C   UNL     1       5.244   4.129  16.351  0.00  0.00    +0.000 C 
ATOM     14  O   UNL     1       5.656   3.058  15.929  0.00  0.00    +0.000 OA
ENDROOT
BRANCH   1  16
ATOM     15  C   UNL     1       6.512   4.636  13.730  0.00  0.00    +0.000 C 
ATOM     16  O   UNL     1       6.786   5.392  14.906  0.00  0.00    +0.000 OA
ENDBRANCH   1  16
BRANCH   7  17
ATOM     17  C   UNL     1       3.542   1.750  17.919  0.00  0.00    +0.000 C 
ATOM     18  O   UNL     1       4.007   1.021  18.791  0.00  0.00    +0.000 OA
ENDBRANCH   7  17
TORSDOF 2
ENDMDL
MODEL 8
REMARK VINA RESULT:      -5.9      1.416      3.374
REMARK  Name = 
REMARK  3 active torsions:
REMARK  status: ('A' for Active; 'I' for Inactive)
REMARK    1  A    between atoms: C_1  and  O_2
REMARK    2  A    between atoms: O_2  and  C_3
REMARK    3  A    between atoms: C_9  and  C_10
REMARK                            x       y       z     vdW  Elec       q    Type
REMARK                         _______ _______ _______ _____ _____    ______ ____
ROOT
ATOM      1  C   UNL     1       5.121   4.224  16.350  0.00  0.00    +0.000 C 
ATOM      2  C   UNL     1       5.107   5.571  16.270  0.00  0.00    +0.000 C 
ATOM      3  C   UNL     1       4.292   6.430  17.158  0.00  0.00    +0.000 C 
ATOM      4  O   UNL     1       4.319   7.647  17.031  0.00  0.00    +0.000 OA
ATOM      5  C   UNL     1       3.516   5.721  18.122  0.00  0.00    +0.000 A 
ATOM      6  C   UNL     1       3.484   4.338  18.257  0.00  0.00    +0.000 A 
ATOM      7  C   UNL     1       2.578   4.019  19.337  0.00  0.00    +0.000 A 
ATOM      8  C   UNL     1       2.120   5.238  19.794  0.00  0.00    +0.000 A 
ATOM      9  N   UNL     1       2.689   6.226  19.052  0.00  0.00    +0.000 N 
ATOM     10  C   UNL     1       2.278   7.562  19.438  0.00  0.00    +0.000 C 
ATOM     11  C   UNL     1       1.637   7.307  20.809  0.00  0.00    +0.000 C 
ATOM     12  C   UNL     1       1.215   5.815  20.814  0.00  0.00    +0.000 C 
ATOM     13  C   UNL     1       4.276   3.478  17.387  0.00  0.00    +0.000 C 
ATOM     14  O   UNL     1       4.266   2.259  17.483  0.00  0.00    +0.000 OA
ENDROOT
BRANCH   1  16
ATOM     15  C   UNL     1       6.294   3.940  14.265  0.00  0.00    +0.000 C 
ATOM     16  O   UNL     1       5.878   3.407  15.520  0.00  0.00    +0.000 OA
ENDBRANCH   1  16
BRANCH   7  17
ATOM     17  C   UNL     1       2.199   2.717  19.862  0.00  0.00    +0.000 C 
ATOM     18  O   UNL     1       1.451   1.942  19.271  0.00  0.00    +0.000 OA
ENDBRANCH   7  17
TORSDOF 2
ENDMDL
MODEL 9
REMARK VINA RESULT:      -5.9      1.269      3.476
REMARK  Name = 
REMARK  3 active torsions:
REMARK  status: ('A' for Active; 'I' for Inactive)
REMARK    1  A    between atoms: C_1  and  O_2
REMARK    2  A    between atoms: O_2  and  C_3
REMARK    3  A    between atoms: C_9  and  C_10
REMARK                            x       y       z     vdW  Elec       q    Type
REMARK                         _______ _______ _______ _____ _____    ______ ____
ROOT
ATOM      1  C   UNL     1       4.930   6.179  16.903  0.00  0.00    +0.000 C 
ATOM      2  C   UNL     1       4.168   7.010  17.646  0.00  0.00    +0.000 C 
ATOM      3  C   UNL     1       3.137   6.535  18.596  0.00  0.00    +0.000 C 
ATOM      4  O   UNL     1       2.473   7.340  19.236  0.00  0.00    +0.000 OA
ATOM      5  C   UNL     1       3.011   5.116  18.676  0.00  0.00    +0.000 A 
ATOM      6  C   UNL     1       3.763   4.208  17.941  0.00  0.00    +0.000 A 
ATOM      7  C   UNL     1       3.330   2.878  18.306  0.00  0.00    +0.000 A 
ATOM      8  C   UNL     1       2.340   3.067  19.249  0.00  0.00    +0.000 A 
ATOM      9  N   UNL     1       2.171   4.402  19.443  0.00  0.00    +0.000 N 
ATOM     10  C   UNL     1       1.147   4.730  20.417  0.00  0.00    +0.000 C 
ATOM     11  C   UNL     1       0.935   3.378  21.112  0.00  0.00    +0.000 C 
ATOM     12  C   UNL     1       1.408   2.298  20.104  0.00  0.00    +0.000 C 
ATOM     13  C   UNL     1       4.777   4.658  16.997  0.00  0.00    +0.000 C 
ATOM     14  O   UNL     1       5.452   3.881  16.337  0.00  0.00    +0.000 OA
ENDROOT
BRANCH   1  16
ATOM     15  C   UNL     1       7.207   6.860  16.508  0.00  0.00    +0.000 C 
ATOM     16  O   UNL     1       5.897   6.613  16.005  0.00  0.00    +0.000 OA
ENDBRANCH   1  16
BRANCH   7  17
ATOM     17  C   UNL     1       3.802   1.593  17.813  0.00  0.00    +0.000 C 
ATOM     18  O   UNL     1       4.137   0.669  18.550  0.00  0.00    +0.000 OA
ENDBRANCH   7  17
TORSDOF 2
ENDMDL
