MODEL 1
REMARK VINA RESULT:      -7.7      0.000      0.000
REMARK  Name = 
REMARK  4 active torsions:
REMARK  status: ('A' for Active; 'I' for Inactive)
REMARK    1  A    between atoms: C_1  and  C_2
REMARK    2  A    between atoms: C_5  and  C_6
REMARK    3  A    between atoms: C_12  and  C_13
REMARK    4  A    between atoms: C_18  and  C_20
REMARK                            x       y       z     vdW  Elec       q    Type
REMARK                         _______ _______ _______ _____ _____    ______ ____
ROOT
ATOM      1  C   UNL     1       0.304   2.047  18.943  0.00  0.00    +0.000 C 
ATOM      2  C   UNL     1       1.490   2.801  18.425  0.00  0.00    +0.000 A 
ATOM      3  N   UNL     1       2.264   2.194  17.523  0.00  0.00    +0.000 NA
ATOM      4  C   UNL     1       3.366   2.869  17.141  0.00  0.00    +0.000 A 
ATOM      5  C   UNL     1       3.770   4.109  17.630  0.00  0.00    +0.000 A 
ATOM      6  C   UNL     1       2.897   4.643  18.596  0.00  0.00    +0.000 A 
ATOM      7  N   UNL     1       1.743   4.015  18.953  0.00  0.00    +0.000 NA
ENDROOT
BRANCH   6   8
ATOM      8  C   UNL     1       3.275   5.841  19.475  0.00  0.00    +0.000 C 
ATOM      9  C   UNL     1       2.582   5.754  20.849  0.00  0.00    +0.000 C 
ATOM     10  C   UNL     1       1.281   6.535  20.914  0.00  0.00    +0.000 C 
ATOM     11  C   UNL     1       1.523   7.979  20.525  0.00  0.00    +0.000 C 
ATOM     12  N   UNL     1       1.994   8.071  19.150  0.00  0.00    +0.000 N 
ATOM     13  C   UNL     1       1.644   9.111  18.264  0.00  0.00    +0.000 C 
ATOM     14  O   UNL     1       2.104   9.131  17.120  0.00  0.00    +0.000 OA
ATOM     15  C   UNL     1       3.143   7.228  18.794  0.00  0.00    +0.000 C 
BRANCH  13  16
ATOM     16  C   UNL     1       0.719  10.142  18.695  0.00  0.00    +0.000 A 
ATOM     17  C   UNL     1      -0.641  10.278  18.510  0.00  0.00    +0.000 A 
ATOM     18  C   UNL     1      -0.964  11.482  19.157  0.00  0.00    +0.000 A 
ATOM     19  N   UNL     1       0.114  12.086  19.656  0.00  0.00    +0.000 NA
ATOM     20  O   UNL     1       1.177  11.258  19.329  0.00  0.00    +0.000 OA
ENDBRANCH  13  16
ENDBRANCH   6   8
BRANCH   5  21
ATOM     21  C   UNL     1       5.046   4.703  17.168  0.00  0.00    +0.000 A 
ATOM     22  C   UNL     1       6.205   4.680  17.949  0.00  0.00    +0.000 A 
ATOM     23  C   UNL     1       7.377   5.238  17.455  0.00  0.00    +0.000 A 
ATOM     24  N   UNL     1       7.466   5.858  16.265  0.00  0.00    +0.000 NA
ATOM     25  C   UNL     1       6.338   5.918  15.532  0.00  0.00    +0.000 A 
ATOM     26  C   UNL     1       5.132   5.356  15.927  0.00  0.00    +0.000 A 
ENDBRANCH   5  21
TORSDOF 3
ENDMDL
MODEL 2
REMARK VINA RESULT:      -6.9      3.246      9.412
REMARK  Name = 
REMARK  4 active torsions:
REMARK  status: ('A' for Active; 'I' for Inactive)
REMARK    1  A    between atoms: C_1  and  C_2
REMARK    2  A    between atoms: C_5  and  C_6
REMARK    3  A    between atoms: C_12  and  C_13
REMARK    4  A    between atoms: C_18  and  C_20
REMARK                            x       y       z     vdW  Elec       q    Type
REMARK                         _______ _______ _______ _____ _____    ______ ____
ROOT
ATOM      1  C   UNL     1       3.321  13.747  21.032  0.00  0.00    +0.000 C 
ATOM      2  C   UNL     1       1.860  13.531  21.284  0.00  0.00    +0.000 A 
ATOM      3  N   UNL     1       1.200  14.480  21.953  0.00  0.00    +0.000 NA
ATOM      4  C   UNL     1      -0.092  14.215  22.232  0.00  0.00    +0.000 A 
ATOM      5  C   UNL     1      -0.767  13.040  21.913  0.00  0.00    +0.000 A 
ATOM      6  C   UNL     1       0.030  12.099  21.235  0.00  0.00    +0.000 A 
ATOM      7  N   UNL     1       1.318  12.365  20.882  0.00  0.00    +0.000 NA
ENDROOT
BRANCH   6   8
ATOM      8  C   UNL     1      -0.402  10.642  21.040  0.00  0.00    +0.000 C 
ATOM      9  C   UNL     1      -0.024   9.788  22.266  0.00  0.00    +0.000 C 
ATOM     10  C   UNL     1       1.306   9.071  22.109  0.00  0.00    +0.000 C 
ATOM     11  C   UNL     1       1.295   8.228  20.851  0.00  0.00    +0.000 C 
ATOM     12  N   UNL     1       1.134   9.065  19.671  0.00  0.00    +0.000 N 
ATOM     13  C   UNL     1       1.762   8.815  18.433  0.00  0.00    +0.000 C 
ATOM     14  O   UNL     1       1.557   9.559  17.471  0.00  0.00    +0.000 OA
ATOM     15  C   UNL     1       0.006  10.007  19.685  0.00  0.00    +0.000 C 
BRANCH  13  16
ATOM     16  C   UNL     1       2.675   7.695  18.303  0.00  0.00    +0.000 A 
ATOM     17  C   UNL     1       2.641   6.427  18.845  0.00  0.00    +0.000 A 
ATOM     18  C   UNL     1       3.801   5.805  18.355  0.00  0.00    +0.000 A 
ATOM     19  N   UNL     1       4.537   6.633  17.615  0.00  0.00    +0.000 NA
ATOM     20  O   UNL     1       3.844   7.833  17.617  0.00  0.00    +0.000 OA
ENDBRANCH  13  16
ENDBRANCH   6   8
BRANCH   5  21
ATOM     21  C   UNL     1      -2.173  12.858  22.345  0.00  0.00    +0.000 A 
ATOM     22  C   UNL     1      -3.251  13.048  21.476  0.00  0.00    +0.000 A 
ATOM     23  C   UNL     1      -4.546  12.846  21.933  0.00  0.00    +0.000 A 
ATOM     24  N   UNL     1      -4.848  12.517  23.202  0.00  0.00    +0.000 NA
ATOM     25  C   UNL     1      -3.811  12.376  24.050  0.00  0.00    +0.000 A 
ATOM     26  C   UNL     1      -2.483  12.520  23.673  0.00  0.00    +0.000 A 
ENDBRANCH   5  21
TORSDOF 3
ENDMDL
MODEL 3
REMARK VINA RESULT:      -6.8      3.165      9.338
REMARK  Name = 
REMARK  4 active torsions:
REMARK  status: ('A' for Active; 'I' for Inactive)
REMARK    1  A    between atoms: C_1  and  C_2
REMARK    2  A    between atoms: C_5  and  C_6
REMARK    3  A    between atoms: C_12  and  C_13
REMARK    4  A    between atoms: C_18  and  C_20
REMARK                            x       y       z     vdW  Elec       q    Type
REMARK                         _______ _______ _______ _____ _____    ______ ____
ROOT
ATOM      1  C   UNL     1       3.300  13.765  20.688  0.00  0.00    +0.000 C 
ATOM      2  C   UNL     1       1.850  13.542  20.993  0.00  0.00    +0.000 A 
ATOM      3  N   UNL     1       1.199  14.508  21.644  0.00  0.00    +0.000 NA
ATOM      4  C   UNL     1      -0.079  14.240  21.974  0.00  0.00    +0.000 A 
ATOM      5  C   UNL     1      -0.749  13.044  21.724  0.00  0.00    +0.000 A 
ATOM      6  C   UNL     1       0.039  12.086  21.060  0.00  0.00    +0.000 A 
ATOM      7  N   UNL     1       1.312  12.353  20.656  0.00  0.00    +0.000 NA
ENDROOT
BRANCH   6   8
ATOM      8  C   UNL     1      -0.379  10.618  20.937  0.00  0.00    +0.000 C 
ATOM      9  C   UNL     1       0.028   9.823  22.194  0.00  0.00    +0.000 C 
ATOM     10  C   UNL     1       1.364   9.114  22.047  0.00  0.00    +0.000 C 
ATOM     11  C   UNL     1       1.342   8.216  20.828  0.00  0.00    +0.000 C 
ATOM     12  N   UNL     1       1.152   8.998  19.614  0.00  0.00    +0.000 N 
ATOM     13  C   UNL     1       1.764   8.699  18.379  0.00  0.00    +0.000 C 
ATOM     14  O   UNL     1       1.535   9.397  17.389  0.00  0.00    +0.000 OA
ATOM     15  C   UNL     1       0.015   9.927  19.605  0.00  0.00    +0.000 C 
BRANCH  13  16
ATOM     16  C   UNL     1       2.687   7.584  18.285  0.00  0.00    +0.000 A 
ATOM     17  C   UNL     1       3.939   7.486  17.714  0.00  0.00    +0.000 A 
ATOM     18  C   UNL     1       4.325   6.154  17.942  0.00  0.00    +0.000 A 
ATOM     19  N   UNL     1       3.369   5.455  18.552  0.00  0.00    +0.000 NA
ATOM     20  O   UNL     1       2.325   6.349  18.731  0.00  0.00    +0.000 OA
ENDBRANCH  13  16
ENDBRANCH   6   8
BRANCH   5  21
ATOM     21  C   UNL     1      -2.138  12.863  22.208  0.00  0.00    +0.000 A 
ATOM     22  C   UNL     1      -2.429  12.533  23.534  0.00  0.00    +0.000 A 
ATOM     23  C   UNL     1      -3.752  12.393  23.933  0.00  0.00    +0.000 A 
ATOM     24  N   UNL     1      -4.800  12.510  23.098  0.00  0.00    +0.000 NA
ATOM     25  C   UNL     1      -4.517  12.786  21.811  0.00  0.00    +0.000 A 
ATOM     26  C   UNL     1      -3.229  12.980  21.331  0.00  0.00    +0.000 A 
ENDBRANCH   5  21
TORSDOF 3
ENDMDL
MODEL 4
REMARK VINA RESULT:      -6.7      2.105      4.516
REMARK  Name = 
REMARK  4 active torsions:
REMARK  status: ('A' for Active; 'I' for Inactive)
REMARK    1  A    between atoms: C_1  and  C_2
REMARK    2  A    between atoms: C_5  and  C_6
REMARK    3  A    between atoms: C_12  and  C_13
REMARK    4  A    between atoms: C_18  and  C_20
REMARK                            x       y       z     vdW  Elec       q    Type
REMARK                         _______ _______ _______ _____ _____    ______ ____
ROOT
ATOM      1  C   UNL     1       7.151   7.313  17.360  0.00  0.00    +0.000 C 
ATOM      2  C   UNL     1       6.095   6.529  18.077  0.00  0.00    +0.000 A 
ATOM      3  N   UNL     1       6.436   5.335  18.567  0.00  0.00    +0.000 NA
ATOM      4  C   UNL     1       5.441   4.623  19.133  0.00  0.00    +0.000 A 
ATOM      5  C   UNL     1       4.107   5.014  19.214  0.00  0.00    +0.000 A 
ATOM      6  C   UNL     1       3.855   6.275  18.642  0.00  0.00    +0.000 A 
ATOM      7  N   UNL     1       4.851   7.044  18.122  0.00  0.00    +0.000 NA
ENDROOT
BRANCH   6   8
ATOM      8  C   UNL     1       2.437   6.781  18.357  0.00  0.00    +0.000 C 
ATOM      9  C   UNL     1       2.439   7.802  17.203  0.00  0.00    +0.000 C 
ATOM     10  C   UNL     1       2.505   9.244  17.680  0.00  0.00    +0.000 C 
ATOM     11  C   UNL     1       1.369   9.524  18.641  0.00  0.00    +0.000 C 
ATOM     12  N   UNL     1       1.482   8.689  19.829  0.00  0.00    +0.000 N 
ATOM     13  C   UNL     1       1.136   9.114  21.129  0.00  0.00    +0.000 C 
ATOM     14  O   UNL     1       1.238   8.339  22.083  0.00  0.00    +0.000 OA
ATOM     15  C   UNL     1       1.638   7.246  19.603  0.00  0.00    +0.000 C 
BRANCH  13  16
ATOM     16  C   UNL     1       0.689  10.477  21.344  0.00  0.00    +0.000 A 
ATOM     17  C   UNL     1      -0.570  10.997  21.560  0.00  0.00    +0.000 A 
ATOM     18  C   UNL     1      -0.360  12.380  21.693  0.00  0.00    +0.000 A 
ATOM     19  N   UNL     1       0.918  12.710  21.516  0.00  0.00    +0.000 NA
ATOM     20  O   UNL     1       1.569  11.514  21.258  0.00  0.00    +0.000 OA
ENDBRANCH  13  16
ENDBRANCH   6   8
BRANCH   5  21
ATOM     21  C   UNL     1       3.106   4.096  19.804  0.00  0.00    +0.000 A 
ATOM     22  C   UNL     1       2.710   4.185  21.142  0.00  0.00    +0.000 A 
ATOM     23  C   UNL     1       1.753   3.307  21.636  0.00  0.00    +0.000 A 
ATOM     24  N   UNL     1       1.200   2.319  20.909  0.00  0.00    +0.000 NA
ATOM     25  C   UNL     1       1.613   2.207  19.632  0.00  0.00    +0.000 A 
ATOM     26  C   UNL     1       2.535   3.062  19.044  0.00  0.00    +0.000 A 
ENDBRANCH   5  21
TORSDOF 3
ENDMDL
MODEL 5
REMARK VINA RESULT:      -6.5      2.713      8.250
REMARK  Name = 
REMARK  4 active torsions:
REMARK  status: ('A' for Active; 'I' for Inactive)
REMARK    1  A    between atoms: C_1  and  C_2
REMARK    2  A    between atoms: C_5  and  C_6
REMARK    3  A    between atoms: C_12  and  C_13
REMARK    4  A    between atoms: C_18  and  C_20
REMARK                            x       y       z     vdW  Elec       q    Type
REMARK                         _______ _______ _______ _____ _____    ______ ____
ROOT
ATOM      1  C   UNL     1      -2.533   9.676  15.959  0.00  0.00    +0.000 C 
ATOM      2  C   UNL     1      -2.166  10.256  17.291  0.00  0.00    +0.000 A 
ATOM      3  N   UNL     1      -3.007  11.138  17.836  0.00  0.00    +0.000 NA
ATOM      4  C   UNL     1      -2.606  11.699  18.993  0.00  0.00    +0.000 A 
ATOM      5  C   UNL     1      -1.393  11.460  19.634  0.00  0.00    +0.000 A 
ATOM      6  C   UNL     1      -0.573  10.536  18.960  0.00  0.00    +0.000 A 
ATOM      7  N   UNL     1      -0.979   9.905  17.824  0.00  0.00    +0.000 NA
ENDROOT
BRANCH   6   8
ATOM      8  C   UNL     1       0.905  10.335  19.313  0.00  0.00    +0.000 C 
ATOM      9  C   UNL     1       1.798  10.531  18.072  0.00  0.00    +0.000 C 
ATOM     10  C   UNL     1       2.129   9.228  17.363  0.00  0.00    +0.000 C 
ATOM     11  C   UNL     1       2.765   8.256  18.334  0.00  0.00    +0.000 C 
ATOM     12  N   UNL     1       1.840   7.920  19.407  0.00  0.00    +0.000 N 
ATOM     13  C   UNL     1       1.751   6.643  20.002  0.00  0.00    +0.000 C 
ATOM     14  O   UNL     1       0.956   6.443  20.923  0.00  0.00    +0.000 OA
ATOM     15  C   UNL     1       1.223   9.047  20.118  0.00  0.00    +0.000 C 
BRANCH  13  16
ATOM     16  C   UNL     1       2.577   5.560  19.505  0.00  0.00    +0.000 A 
ATOM     17  C   UNL     1       2.299   4.533  18.627  0.00  0.00    +0.000 A 
ATOM     18  C   UNL     1       3.498   3.806  18.546  0.00  0.00    +0.000 A 
ATOM     19  N   UNL     1       4.436   4.299  19.354  0.00  0.00    +0.000 NA
ATOM     20  O   UNL     1       3.839   5.379  19.985  0.00  0.00    +0.000 OA
ENDBRANCH  13  16
ENDBRANCH   6   8
BRANCH   5  21
ATOM     21  C   UNL     1      -1.054  12.203  20.870  0.00  0.00    +0.000 A 
ATOM     22  C   UNL     1      -1.629  11.896  22.107  0.00  0.00    +0.000 A 
ATOM     23  C   UNL     1      -1.259  12.616  23.235  0.00  0.00    +0.000 A 
ATOM     24  N   UNL     1      -0.398  13.649  23.212  0.00  0.00    +0.000 NA
ATOM     25  C   UNL     1       0.123  13.973  22.014  0.00  0.00    +0.000 A 
ATOM     26  C   UNL     1      -0.159  13.285  20.841  0.00  0.00    +0.000 A 
ENDBRANCH   5  21
TORSDOF 3
ENDMDL
MODEL 6
REMARK VINA RESULT:      -6.3      2.259      4.540
REMARK  Name = 
REMARK  4 active torsions:
REMARK  status: ('A' for Active; 'I' for Inactive)
REMARK    1  A    between atoms: C_1  and  C_2
REMARK    2  A    between atoms: C_5  and  C_6
REMARK    3  A    between atoms: C_12  and  C_13
REMARK    4  A    between atoms: C_18  and  C_20
REMARK                            x       y       z     vdW  Elec       q    Type
REMARK                         _______ _______ _______ _____ _____    ______ ____
ROOT
ATOM      1  C   UNL     1       7.917   8.378  17.352  0.00  0.00    +0.000 C 
ATOM      2  C   UNL     1       7.059   7.200  17.700  0.00  0.00    +0.000 A 
ATOM      3  N   UNL     1       7.658   6.014  17.830  0.00  0.00    +0.000 NA
ATOM      4  C   UNL     1       6.846   4.965  18.063  0.00  0.00    +0.000 A 
ATOM      5  C   UNL     1       5.456   5.015  18.141  0.00  0.00    +0.000 A 
ATOM      6  C   UNL     1       4.929   6.307  17.961  0.00  0.00    +0.000 A 
ATOM      7  N   UNL     1       5.729   7.396  17.790  0.00  0.00    +0.000 NA
ENDROOT
BRANCH   6   8
ATOM      8  C   UNL     1       3.437   6.562  17.721  0.00  0.00    +0.000 C 
ATOM      9  C   UNL     1       3.220   7.896  16.981  0.00  0.00    +0.000 C 
ATOM     10  C   UNL     1       2.932   9.059  17.916  0.00  0.00    +0.000 C 
ATOM     11  C   UNL     1       1.744   8.735  18.797  0.00  0.00    +0.000 C 
ATOM     12  N   UNL     1       2.028   7.583  19.642  0.00  0.00    +0.000 N 
ATOM     13  C   UNL     1       1.567   7.444  20.968  0.00  0.00    +0.000 C 
ATOM     14  O   UNL     1       1.830   6.427  21.613  0.00  0.00    +0.000 OA
ATOM     15  C   UNL     1       2.527   6.380  18.964  0.00  0.00    +0.000 C 
BRANCH  13  16
ATOM     16  C   UNL     1       0.804   8.516  21.580  0.00  0.00    +0.000 A 
ATOM     17  C   UNL     1      -0.544   8.804  21.551  0.00  0.00    +0.000 A 
ATOM     18  C   UNL     1      -0.671   9.966  22.329  0.00  0.00    +0.000 A 
ATOM     19  N   UNL     1       0.508  10.409  22.763  0.00  0.00    +0.000 NA
ATOM     20  O   UNL     1       1.438   9.515  22.256  0.00  0.00    +0.000 OA
ENDBRANCH  13  16
ENDBRANCH   6   8
BRANCH   5  21
ATOM     21  C   UNL     1       4.684   3.765  18.334  0.00  0.00    +0.000 A 
ATOM     22  C   UNL     1       3.966   3.165  17.296  0.00  0.00    +0.000 A 
ATOM     23  C   UNL     1       3.274   1.984  17.531  0.00  0.00    +0.000 A 
ATOM     24  N   UNL     1       3.206   1.386  18.734  0.00  0.00    +0.000 NA
ATOM     25  C   UNL     1       3.863   1.987  19.744  0.00  0.00    +0.000 A 
ATOM     26  C   UNL     1       4.611   3.147  19.593  0.00  0.00    +0.000 A 
ENDBRANCH   5  21
TORSDOF 3
ENDMDL
MODEL 7
REMARK VINA RESULT:      -6.1      2.790      9.132
REMARK  Name = 
REMARK  4 active torsions:
REMARK  status: ('A' for Active; 'I' for Inactive)
REMARK    1  A    between atoms: C_1  and  C_2
REMARK    2  A    between atoms: C_5  and  C_6
REMARK    3  A    between atoms: C_12  and  C_13
REMARK    4  A    between atoms: C_18  and  C_20
REMARK                            x       y       z     vdW  Elec       q    Type
REMARK                         _______ _______ _______ _____ _____    ______ ____
ROOT
ATOM      1  C   UNL     1       3.121  13.701  18.823  0.00  0.00    +0.000 C 
ATOM      2  C   UNL     1       1.790  13.469  19.469  0.00  0.00    +0.000 A 
ATOM      3  N   UNL     1       1.279  14.457  20.208  0.00  0.00    +0.000 NA
ATOM      4  C   UNL     1       0.121  14.183  20.839  0.00  0.00    +0.000 A 
ATOM      5  C   UNL     1      -0.553  12.965  20.809  0.00  0.00    +0.000 A 
ATOM      6  C   UNL     1       0.087  11.987  20.025  0.00  0.00    +0.000 A 
ATOM      7  N   UNL     1       1.223  12.255  19.324  0.00  0.00    +0.000 NA
ENDROOT
BRANCH   6   8
ATOM      8  C   UNL     1      -0.305  10.507  20.073  0.00  0.00    +0.000 C 
ATOM      9  C   UNL     1      -0.100   9.930  21.487  0.00  0.00    +0.000 C 
ATOM     10  C   UNL     1       1.244   9.241  21.663  0.00  0.00    +0.000 C 
ATOM     11  C   UNL     1       1.415   8.163  20.613  0.00  0.00    +0.000 C 
ATOM     12  N   UNL     1       1.418   8.741  19.277  0.00  0.00    +0.000 N 
ATOM     13  C   UNL     1       2.217   8.269  18.214  0.00  0.00    +0.000 C 
ATOM     14  O   UNL     1       2.145   8.798  17.102  0.00  0.00    +0.000 OA
ATOM     15  C   UNL     1       0.295   9.628  18.944  0.00  0.00    +0.000 C 
BRANCH  13  16
ATOM     16  C   UNL     1       3.144   7.178  18.442  0.00  0.00    +0.000 A 
ATOM     17  C   UNL     1       3.131   6.151  19.362  0.00  0.00    +0.000 A 
ATOM     18  C   UNL     1       4.297   5.418  19.086  0.00  0.00    +0.000 A 
ATOM     19  N   UNL     1       5.017   5.973  18.112  0.00  0.00    +0.000 NA
ATOM     20  O   UNL     1       4.307   7.102  17.736  0.00  0.00    +0.000 OA
ENDBRANCH  13  16
ENDBRANCH   6   8
BRANCH   5  21
ATOM     21  C   UNL     1      -1.785  12.785  21.611  0.00  0.00    +0.000 A 
ATOM     22  C   UNL     1      -3.062  12.910  21.056  0.00  0.00    +0.000 A 
ATOM     23  C   UNL     1      -4.181  12.713  21.853  0.00  0.00    +0.000 A 
ATOM     24  N   UNL     1      -4.122  12.450  23.171  0.00  0.00    +0.000 NA
ATOM     25  C   UNL     1      -2.893  12.372  23.716  0.00  0.00    +0.000 A 
ATOM     26  C   UNL     1      -1.719  12.517  22.989  0.00  0.00    +0.000 A 
ENDBRANCH   5  21
TORSDOF 3
ENDMDL
MODEL 8
REMARK VINA RESULT:      -6.1      9.005      9.944
REMARK  Name = 
REMARK  4 active torsions:
REMARK  status: ('A' for Active; 'I' for Inactive)
REMARK    1  A    between atoms: C_1  and  C_2
REMARK    2  A    between atoms: C_5  and  C_6
REMARK    3  A    between atoms: C_12  and  C_13
REMARK    4  A    between atoms: C_18  and  C_20
REMARK                            x       y       z     vdW  Elec       q    Type
REMARK                         _______ _______ _______ _____ _____    ______ ____
ROOT
ATOM      1  C   UNL     1       6.775  14.236  24.352  0.00  0.00    +0.000 C 
ATOM      2  C   UNL     1       7.555  13.824  23.142  0.00  0.00    +0.000 A 
ATOM      3  N   UNL     1       8.509  12.903  23.304  0.00  0.00    +0.000 NA
ATOM      4  C   UNL     1       9.244  12.617  22.212  0.00  0.00    +0.000 A 
ATOM      5  C   UNL     1       9.112  13.218  20.963  0.00  0.00    +0.000 A 
ATOM      6  C   UNL     1       8.098  14.192  20.912  0.00  0.00    +0.000 A 
ATOM      7  N   UNL     1       7.296  14.456  21.981  0.00  0.00    +0.000 NA
ENDROOT
BRANCH   6   8
ATOM      8  C   UNL     1       7.959  15.177  19.747  0.00  0.00    +0.000 C 
ATOM      9  C   UNL     1       8.092  16.632  20.238  0.00  0.00    +0.000 C 
ATOM     10  C   UNL     1       6.753  17.292  20.524  0.00  0.00    +0.000 C 
ATOM     11  C   UNL     1       5.866  17.218  19.299  0.00  0.00    +0.000 C 
ATOM     12  N   UNL     1       5.580  15.833  18.952  0.00  0.00    +0.000 N 
ATOM     13  C   UNL     1       4.346  15.387  18.436  0.00  0.00    +0.000 C 
ATOM     14  O   UNL     1       4.188  14.200  18.144  0.00  0.00    +0.000 OA
ATOM     15  C   UNL     1       6.737  14.938  18.820  0.00  0.00    +0.000 C 
BRANCH  13  16
ATOM     16  C   UNL     1       3.252  16.327  18.276  0.00  0.00    +0.000 A 
ATOM     17  C   UNL     1       2.115  16.535  19.028  0.00  0.00    +0.000 A 
ATOM     18  C   UNL     1       1.444  17.577  18.367  0.00  0.00    +0.000 A 
ATOM     19  N   UNL     1       2.076  17.954  17.256  0.00  0.00    +0.000 NA
ATOM     20  O   UNL     1       3.193  17.137  17.182  0.00  0.00    +0.000 OA
ENDBRANCH  13  16
ENDBRANCH   6   8
BRANCH   5  21
ATOM     21  C   UNL     1      10.039  12.851  19.867  0.00  0.00    +0.000 A 
ATOM     22  C   UNL     1      11.338  13.361  19.788  0.00  0.00    +0.000 A 
ATOM     23  C   UNL     1      12.168  12.967  18.746  0.00  0.00    +0.000 A 
ATOM     24  N   UNL     1      11.784  12.144  17.755  0.00  0.00    +0.000 NA
ATOM     25  C   UNL     1      10.518  11.687  17.809  0.00  0.00    +0.000 A 
ATOM     26  C   UNL     1       9.631  11.996  18.831  0.00  0.00    +0.000 A 
ENDBRANCH   5  21
TORSDOF 3
ENDMDL
MODEL 9
REMARK VINA RESULT:      -6.0      2.783      9.067
REMARK  Name = 
REMARK  4 active torsions:
REMARK  status: ('A' for Active; 'I' for Inactive)
REMARK    1  A    between atoms: C_1  and  C_2
REMARK    2  A    between atoms: C_5  and  C_6
REMARK    3  A    between atoms: C_12  and  C_13
REMARK    4  A    between atoms: C_18  and  C_20
REMARK                            x       y       z     vdW  Elec       q    Type
REMARK                         _______ _______ _______ _____ _____    ______ ____
ROOT
ATOM      1  C   UNL     1       3.095  13.715  18.614  0.00  0.00    +0.000 C 
ATOM      2  C   UNL     1       1.774  13.485  19.282  0.00  0.00    +0.000 A 
ATOM      3  N   UNL     1       1.281  14.471  20.035  0.00  0.00    +0.000 NA
ATOM      4  C   UNL     1       0.132  14.199  20.685  0.00  0.00    +0.000 A 
ATOM      5  C   UNL     1      -0.547  12.983  20.661  0.00  0.00    +0.000 A 
ATOM      6  C   UNL     1       0.075  12.007  19.861  0.00  0.00    +0.000 A 
ATOM      7  N   UNL     1       1.200  12.274  19.140  0.00  0.00    +0.000 NA
ENDROOT
BRANCH   6   8
ATOM      8  C   UNL     1      -0.322  10.528  19.907  0.00  0.00    +0.000 C 
ATOM      9  C   UNL     1      -0.172   9.964  21.334  0.00  0.00    +0.000 C 
ATOM     10  C   UNL     1       1.162   9.274  21.568  0.00  0.00    +0.000 C 
ATOM     11  C   UNL     1       1.371   8.186  20.536  0.00  0.00    +0.000 C 
ATOM     12  N   UNL     1       1.426   8.751  19.194  0.00  0.00    +0.000 N 
ATOM     13  C   UNL     1       2.263   8.268  18.168  0.00  0.00    +0.000 C 
ATOM     14  O   UNL     1       2.235   8.786  17.049  0.00  0.00    +0.000 OA
ATOM     15  C   UNL     1       0.318   9.637  18.811  0.00  0.00    +0.000 C 
BRANCH  13  16
ATOM     16  C   UNL     1       3.179   7.176  18.441  0.00  0.00    +0.000 A 
ATOM     17  C   UNL     1       4.334   6.777  17.802  0.00  0.00    +0.000 A 
ATOM     18  C   UNL     1       4.770   5.658  18.531  0.00  0.00    +0.000 A 
ATOM     19  N   UNL     1       3.925   5.341  19.511  0.00  0.00    +0.000 NA
ATOM     20  O   UNL     1       2.905   6.276  19.426  0.00  0.00    +0.000 OA
ENDBRANCH  13  16
ENDBRANCH   6   8
BRANCH   5  21
ATOM     21  C   UNL     1      -1.766  12.804  21.484  0.00  0.00    +0.000 A 
ATOM     22  C   UNL     1      -1.708  12.487  22.843  0.00  0.00    +0.000 A 
ATOM     23  C   UNL     1      -2.885  12.348  23.568  0.00  0.00    +0.000 A 
ATOM     24  N   UNL     1      -4.112  12.454  23.026  0.00  0.00    +0.000 NA
ATOM     25  C   UNL     1      -4.167  12.718  21.707  0.00  0.00    +0.000 A 
ATOM     26  C   UNL     1      -3.045  12.910  20.913  0.00  0.00    +0.000 A 
ENDBRANCH   5  21
TORSDOF 3
ENDMDL
