MODEL 1
REMARK VINA RESULT:      -7.5      0.000      0.000
REMARK  Name = 
REMARK  10 active torsions:
REMARK  status: ('A' for Active; 'I' for Inactive)
REMARK    1  A    between atoms: C_1  and  O_2
REMARK    2  A    between atoms: O_2  and  C_3
REMARK    3  A    between atoms: C_5  and  N_6
REMARK    4  A    between atoms: C_10  and  C_11
REMARK    5  A    between atoms: C_11  and  O_13
REMARK    6  A    between atoms: O_13  and  C_14
REMARK    7  A    between atoms: C_14  and  C_15
REMARK    8  A    between atoms: C_15  and  N_16
REMARK    9  A    between atoms: N_19  and  C_20
REMARK   10  A    between atoms: C_24  and  C_25
REMARK                            x       y       z     vdW  Elec       q    Type
REMARK                         _______ _______ _______ _____ _____    ______ ____
ROOT
ATOM      1  C   UNL     1       8.270   7.728  18.464  0.00  0.00    +0.000 C 
ENDROOT
BRANCH   1   2
ATOM      2  N   UNL     1       7.720   6.645  17.625  0.00  0.00    +0.000 NA
ATOM      3  C   UNL     1       7.559   5.373  18.365  0.00  0.00    +0.000 C 
ATOM      4  C   UNL     1       6.423   5.396  19.403  0.00  0.00    +0.000 C 
ATOM      5  N   UNL     1       5.141   5.629  18.727  0.00  0.00    +0.000 N 
ATOM      6  C   UNL     1       5.116   6.843  17.886  0.00  0.00    +0.000 C 
ATOM      7  C   UNL     1       6.407   6.998  17.019  0.00  0.00    +0.000 C 
BRANCH   5   8
ATOM      8  C   UNL     1       4.277   4.573  18.479  0.00  0.00    +0.000 A 
ATOM      9  C   UNL     1       4.442   3.765  17.347  0.00  0.00    +0.000 A 
ATOM     10  C   UNL     1       3.520   2.761  17.016  0.00  0.00    +0.000 A 
ATOM     11  C   UNL     1       2.412   2.531  17.828  0.00  0.00    +0.000 A 
ATOM     12  C   UNL     1       2.223   3.301  18.979  0.00  0.00    +0.000 A 
ATOM     13  C   UNL     1       3.159   4.305  19.288  0.00  0.00    +0.000 A 
BRANCH  12  14
ATOM     14  C   UNL     1       1.038   3.092  19.886  0.00  0.00    +0.000 C 
ATOM     15  F   UNL     1      -0.004   2.447  19.289  0.00  0.00    +0.000 F 
ATOM     16  F   UNL     1       1.347   2.356  20.990  0.00  0.00    +0.000 F 
ATOM     17  F   UNL     1       0.526   4.266  20.356  0.00  0.00    +0.000 F 
ENDBRANCH  12  14
ENDBRANCH   5   8
ENDBRANCH   1   2
BRANCH   1  18
ATOM     18  C   UNL     1       8.081   9.128  17.835  0.00  0.00    +0.000 C 
BRANCH  18  19
ATOM     19  O   UNL     1       8.948  10.111  18.422  0.00  0.00    +0.000 OA
BRANCH  19  20
ATOM     20  C   UNL     1       8.658  11.393  18.092  0.00  0.00    +0.000 C 
ATOM     21  O   UNL     1       7.902  11.736  17.193  0.00  0.00    +0.000 OA
BRANCH  20  28
ATOM     22  C   UNL     1      10.127  13.409  18.657  0.00  0.00    +0.000 A 
ATOM     23  C   UNL     1      10.612  14.286  19.642  0.00  0.00    +0.000 A 
ATOM     24  C   UNL     1      10.294  14.119  20.997  0.00  0.00    +0.000 A 
ATOM     25  C   UNL     1       9.394  13.098  21.347  0.00  0.00    +0.000 A 
ATOM     26 CL   UNL     1       8.897  12.889  22.990  0.00  0.00    +0.000 Cl
ATOM     27  C   UNL     1       8.899  12.221  20.385  0.00  0.00    +0.000 A 
ATOM     28  C   UNL     1       9.263  12.368  19.036  0.00  0.00    +0.000 A 
BRANCH  24  29
ATOM     29  N   UNL     1      10.684  15.110  21.916  0.00  0.00    +0.000 N 
ATOM     30  H   UNL     1      11.432  14.841  22.544  0.00  0.00    +0.000 HD
ATOM     31  H   UNL     1       9.894  15.534  22.399  0.00  0.00    +0.000 HD
ENDBRANCH  24  29
BRANCH  22  33
ATOM     32  C   UNL     1      11.733  13.369  16.899  0.00  0.00    +0.000 C 
ATOM     33  O   UNL     1      10.389  13.578  17.323  0.00  0.00    +0.000 OA
ENDBRANCH  22  33
ENDBRANCH  20  28
ENDBRANCH  19  20
ENDBRANCH  18  19
ENDBRANCH   1  18
TORSDOF 9
ENDMDL
MODEL 2
REMARK VINA RESULT:      -7.4      7.499      9.003
REMARK  Name = 
REMARK  10 active torsions:
REMARK  status: ('A' for Active; 'I' for Inactive)
REMARK    1  A    between atoms: C_1  and  O_2
REMARK    2  A    between atoms: O_2  and  C_3
REMARK    3  A    between atoms: C_5  and  N_6
REMARK    4  A    between atoms: C_10  and  C_11
REMARK    5  A    between atoms: C_11  and  O_13
REMARK    6  A    between atoms: O_13  and  C_14
REMARK    7  A    between atoms: C_14  and  C_15
REMARK    8  A    between atoms: C_15  and  N_16
REMARK    9  A    between atoms: N_19  and  C_20
REMARK   10  A    between atoms: C_24  and  C_25
REMARK                            x       y       z     vdW  Elec       q    Type
REMARK                         _______ _______ _______ _____ _____    ______ ____
ROOT
ATOM      1  C   UNL     1       1.466  11.194  18.803  0.00  0.00    +0.000 C 
ENDROOT
BRANCH   1   2
ATOM      2  N   UNL     1       0.691   9.942  18.693  0.00  0.00    +0.000 NA
ATOM      3  C   UNL     1       1.220   9.031  17.653  0.00  0.00    +0.000 C 
ATOM      4  C   UNL     1       2.566   8.382  18.020  0.00  0.00    +0.000 C 
ATOM      5  N   UNL     1       2.406   7.562  19.227  0.00  0.00    +0.000 N 
ATOM      6  C   UNL     1       1.836   8.289  20.379  0.00  0.00    +0.000 C 
ATOM      7  C   UNL     1       0.626   9.193  19.978  0.00  0.00    +0.000 C 
BRANCH   5   8
ATOM      8  C   UNL     1       2.290   6.183  19.126  0.00  0.00    +0.000 A 
ATOM      9  C   UNL     1       2.099   5.571  17.880  0.00  0.00    +0.000 A 
ATOM     10  C   UNL     1       1.871   4.193  17.763  0.00  0.00    +0.000 A 
ATOM     11  C   UNL     1       1.845   3.387  18.899  0.00  0.00    +0.000 A 
ATOM     12  C   UNL     1       2.053   3.955  20.158  0.00  0.00    +0.000 A 
ATOM     13  C   UNL     1       2.276   5.342  20.251  0.00  0.00    +0.000 A 
BRANCH  12  14
ATOM     14  C   UNL     1       2.029   3.125  21.416  0.00  0.00    +0.000 C 
ATOM     15  F   UNL     1       0.816   2.563  21.681  0.00  0.00    +0.000 F 
ATOM     16  F   UNL     1       2.917   2.091  21.377  0.00  0.00    +0.000 F 
ATOM     17  F   UNL     1       2.353   3.848  22.526  0.00  0.00    +0.000 F 
ENDBRANCH  12  14
ENDBRANCH   5   8
ENDBRANCH   1   2
BRANCH   1  18
ATOM     18  C   UNL     1       1.155  11.980  20.098  0.00  0.00    +0.000 C 
BRANCH  18  19
ATOM     19  O   UNL     1      -0.189  12.486  20.120  0.00  0.00    +0.000 OA
BRANCH  19  20
ATOM     20  C   UNL     1      -0.427  13.425  21.068  0.00  0.00    +0.000 C 
ATOM     21  O   UNL     1       0.202  14.467  21.201  0.00  0.00    +0.000 OA
BRANCH  20  28
ATOM     22  C   UNL     1      -1.707  12.129  22.863  0.00  0.00    +0.000 A 
ATOM     23  C   UNL     1      -2.906  11.956  23.574  0.00  0.00    +0.000 A 
ATOM     24  C   UNL     1      -4.049  12.715  23.286  0.00  0.00    +0.000 A 
ATOM     25  C   UNL     1      -3.946  13.730  22.319  0.00  0.00    +0.000 A 
ATOM     26 CL   UNL     1      -5.295  14.755  21.973  0.00  0.00    +0.000 Cl
ATOM     27  C   UNL     1      -2.765  13.920  21.606  0.00  0.00    +0.000 A 
ATOM     28  C   UNL     1      -1.640  13.121  21.870  0.00  0.00    +0.000 A 
BRANCH  24  29
ATOM     29  N   UNL     1      -5.171  12.603  24.126  0.00  0.00    +0.000 N 
ATOM     30  H   UNL     1      -5.523  11.660  24.248  0.00  0.00    +0.000 HD
ATOM     31  H   UNL     1      -5.904  13.272  23.898  0.00  0.00    +0.000 HD
ENDBRANCH  24  29
BRANCH  22  33
ATOM     32  C   UNL     1      -0.672  10.010  23.195  0.00  0.00    +0.000 C 
ATOM     33  O   UNL     1      -0.566  11.430  23.156  0.00  0.00    +0.000 OA
ENDBRANCH  22  33
ENDBRANCH  20  28
ENDBRANCH  19  20
ENDBRANCH  18  19
ENDBRANCH   1  18
TORSDOF 9
ENDMDL
MODEL 3
REMARK VINA RESULT:      -7.4      1.591      2.219
REMARK  Name = 
REMARK  10 active torsions:
REMARK  status: ('A' for Active; 'I' for Inactive)
REMARK    1  A    between atoms: C_1  and  O_2
REMARK    2  A    between atoms: O_2  and  C_3
REMARK    3  A    between atoms: C_5  and  N_6
REMARK    4  A    between atoms: C_10  and  C_11
REMARK    5  A    between atoms: C_11  and  O_13
REMARK    6  A    between atoms: O_13  and  C_14
REMARK    7  A    between atoms: C_14  and  C_15
REMARK    8  A    between atoms: C_15  and  N_16
REMARK    9  A    between atoms: N_19  and  C_20
REMARK   10  A    between atoms: C_24  and  C_25
REMARK                            x       y       z     vdW  Elec       q    Type
REMARK                         _______ _______ _______ _____ _____    ______ ____
ROOT
ATOM      1  C   UNL     1       8.296   7.680  18.417  0.00  0.00    +0.000 C 
ENDROOT
BRANCH   1   2
ATOM      2  N   UNL     1       7.698   6.635  17.564  0.00  0.00    +0.000 NA
ATOM      3  C   UNL     1       7.487   5.359  18.285  0.00  0.00    +0.000 C 
ATOM      4  C   UNL     1       6.356   5.413  19.327  0.00  0.00    +0.000 C 
ATOM      5  N   UNL     1       5.083   5.711  18.660  0.00  0.00    +0.000 N 
ATOM      6  C   UNL     1       5.106   6.938  17.837  0.00  0.00    +0.000 C 
ATOM      7  C   UNL     1       6.400   7.052  16.968  0.00  0.00    +0.000 C 
BRANCH   5   8
ATOM      8  C   UNL     1       4.174   4.696  18.399  0.00  0.00    +0.000 A 
ATOM      9  C   UNL     1       4.219   3.990  17.190  0.00  0.00    +0.000 A 
ATOM     10  C   UNL     1       3.247   3.036  16.857  0.00  0.00    +0.000 A 
ATOM     11  C   UNL     1       2.209   2.753  17.742  0.00  0.00    +0.000 A 
ATOM     12  C   UNL     1       2.141   3.419  18.968  0.00  0.00    +0.000 A 
ATOM     13  C   UNL     1       3.126   4.376  19.278  0.00  0.00    +0.000 A 
BRANCH  12  14
ATOM     14  C   UNL     1       1.035   3.151  19.955  0.00  0.00    +0.000 C 
ATOM     15  F   UNL     1      -0.006   2.441  19.436  0.00  0.00    +0.000 F 
ATOM     16  F   UNL     1       1.462   2.443  21.039  0.00  0.00    +0.000 F 
ATOM     17  F   UNL     1       0.490   4.297  20.454  0.00  0.00    +0.000 F 
ENDBRANCH  12  14
ENDBRANCH   5   8
ENDBRANCH   1   2
BRANCH   1  18
ATOM     18  C   UNL     1       8.217   9.088  17.784  0.00  0.00    +0.000 C 
BRANCH  18  19
ATOM     19  O   UNL     1       8.430  10.133  18.747  0.00  0.00    +0.000 OA
BRANCH  19  20
ATOM     20  C   UNL     1       9.416  11.006  18.428  0.00  0.00    +0.000 C 
ATOM     21  O   UNL     1      10.329  10.784  17.645  0.00  0.00    +0.000 OA
BRANCH  20  28
ATOM     22  C   UNL     1       9.072  12.573  20.420  0.00  0.00    +0.000 A 
ATOM     23  C   UNL     1       8.902  13.890  20.879  0.00  0.00    +0.000 A 
ATOM     24  C   UNL     1       8.813  14.973  19.993  0.00  0.00    +0.000 A 
ATOM     25  C   UNL     1       8.990  14.725  18.622  0.00  0.00    +0.000 A 
ATOM     26 CL   UNL     1       8.971  16.026  17.483  0.00  0.00    +0.000 Cl
ATOM     27  C   UNL     1       9.163  13.427  18.147  0.00  0.00    +0.000 A 
ATOM     28  C   UNL     1       9.203  12.344  19.040  0.00  0.00    +0.000 A 
BRANCH  24  29
ATOM     29  N   UNL     1       8.793  16.279  20.514  0.00  0.00    +0.000 N 
ATOM     30  H   UNL     1       9.705  16.679  20.703  0.00  0.00    +0.000 HD
ATOM     31  H   UNL     1       8.147  16.384  21.294  0.00  0.00    +0.000 HD
ENDBRANCH  24  29
BRANCH  22  33
ATOM     32  C   UNL     1       8.427  11.529  22.461  0.00  0.00    +0.000 C 
ATOM     33  O   UNL     1       9.205  11.505  21.269  0.00  0.00    +0.000 OA
ENDBRANCH  22  33
ENDBRANCH  20  28
ENDBRANCH  19  20
ENDBRANCH  18  19
ENDBRANCH   1  18
TORSDOF 9
ENDMDL
MODEL 4
REMARK VINA RESULT:      -7.4      7.500      9.761
REMARK  Name = 
REMARK  10 active torsions:
REMARK  status: ('A' for Active; 'I' for Inactive)
REMARK    1  A    between atoms: C_1  and  O_2
REMARK    2  A    between atoms: O_2  and  C_3
REMARK    3  A    between atoms: C_5  and  N_6
REMARK    4  A    between atoms: C_10  and  C_11
REMARK    5  A    between atoms: C_11  and  O_13
REMARK    6  A    between atoms: O_13  and  C_14
REMARK    7  A    between atoms: C_14  and  C_15
REMARK    8  A    between atoms: C_15  and  N_16
REMARK    9  A    between atoms: N_19  and  C_20
REMARK   10  A    between atoms: C_24  and  C_25
REMARK                            x       y       z     vdW  Elec       q    Type
REMARK                         _______ _______ _______ _____ _____    ______ ____
ROOT
ATOM      1  C   UNL     1       1.186  10.843  19.842  0.00  0.00    +0.000 C 
ENDROOT
BRANCH   1   2
ATOM      2  N   UNL     1       0.585   9.561  19.425  0.00  0.00    +0.000 NA
ATOM      3  C   UNL     1       1.146   9.051  18.154  0.00  0.00    +0.000 C 
ATOM      4  C   UNL     1       2.595   8.544  18.273  0.00  0.00    +0.000 C 
ATOM      5  N   UNL     1       2.648   7.418  19.213  0.00  0.00    +0.000 N 
ATOM      6  C   UNL     1       2.080   7.717  20.543  0.00  0.00    +0.000 C 
ATOM      7  C   UNL     1       0.728   8.497  20.456  0.00  0.00    +0.000 C 
BRANCH   5   8
ATOM      8  C   UNL     1       2.715   6.115  18.743  0.00  0.00    +0.000 A 
ATOM      9  C   UNL     1       3.483   5.802  17.614  0.00  0.00    +0.000 A 
ATOM     10  C   UNL     1       3.481   4.516  17.055  0.00  0.00    +0.000 A 
ATOM     11  C   UNL     1       2.716   3.503  17.629  0.00  0.00    +0.000 A 
ATOM     12  C   UNL     1       1.954   3.769  18.768  0.00  0.00    +0.000 A 
ATOM     13  C   UNL     1       1.968   5.068  19.308  0.00  0.00    +0.000 A 
BRANCH  12  14
ATOM     14  C   UNL     1       1.107   2.707  19.421  0.00  0.00    +0.000 C 
ATOM     15  F   UNL     1       1.795   1.573  19.738  0.00  0.00    +0.000 F 
ATOM     16  F   UNL     1       0.539   3.133  20.585  0.00  0.00    +0.000 F 
ATOM     17  F   UNL     1       0.072   2.304  18.631  0.00  0.00    +0.000 F 
ENDBRANCH  12  14
ENDBRANCH   5   8
ENDBRANCH   1   2
BRANCH   1  18
ATOM     18  C   UNL     1       0.160  11.807  20.481  0.00  0.00    +0.000 C 
BRANCH  18  19
ATOM     19  O   UNL     1      -1.192  11.481  20.120  0.00  0.00    +0.000 OA
BRANCH  19  20
ATOM     20  C   UNL     1      -1.722  12.260  19.145  0.00  0.00    +0.000 C 
ATOM     21  O   UNL     1      -1.099  13.069  18.472  0.00  0.00    +0.000 OA
BRANCH  20  28
ATOM     22  C   UNL     1      -3.592  11.165  17.787  0.00  0.00    +0.000 A 
ATOM     23  C   UNL     1      -4.966  10.901  17.656  0.00  0.00    +0.000 A 
ATOM     24  C   UNL     1      -5.905  11.422  18.556  0.00  0.00    +0.000 A 
ATOM     25  C   UNL     1      -5.433  12.151  19.660  0.00  0.00    +0.000 A 
ATOM     26 CL   UNL     1      -6.532  12.754  20.851  0.00  0.00    +0.000 Cl
ATOM     27  C   UNL     1      -4.075  12.421  19.810  0.00  0.00    +0.000 A 
ATOM     28  C   UNL     1      -3.146  11.933  18.876  0.00  0.00    +0.000 A 
BRANCH  24  29
ATOM     29  N   UNL     1      -7.245  11.003  18.462  0.00  0.00    +0.000 N 
ATOM     30  H   UNL     1      -7.405  10.028  18.684  0.00  0.00    +0.000 HD
ATOM     31  H   UNL     1      -7.688  11.288  17.591  0.00  0.00    +0.000 HD
ENDBRANCH  24  29
BRANCH  22  33
ATOM     32  C   UNL     1      -2.868  10.802  15.547  0.00  0.00    +0.000 C 
ATOM     33  O   UNL     1      -2.653  10.630  16.945  0.00  0.00    +0.000 OA
ENDBRANCH  22  33
ENDBRANCH  20  28
ENDBRANCH  19  20
ENDBRANCH  18  19
ENDBRANCH   1  18
TORSDOF 9
ENDMDL
MODEL 5
REMARK VINA RESULT:      -7.3      7.644      9.685
REMARK  Name = 
REMARK  10 active torsions:
REMARK  status: ('A' for Active; 'I' for Inactive)
REMARK    1  A    between atoms: C_1  and  O_2
REMARK    2  A    between atoms: O_2  and  C_3
REMARK    3  A    between atoms: C_5  and  N_6
REMARK    4  A    between atoms: C_10  and  C_11
REMARK    5  A    between atoms: C_11  and  O_13
REMARK    6  A    between atoms: O_13  and  C_14
REMARK    7  A    between atoms: C_14  and  C_15
REMARK    8  A    between atoms: C_15  and  N_16
REMARK    9  A    between atoms: N_19  and  C_20
REMARK   10  A    between atoms: C_24  and  C_25
REMARK                            x       y       z     vdW  Elec       q    Type
REMARK                         _______ _______ _______ _____ _____    ______ ____
ROOT
ATOM      1  C   UNL     1       0.859  10.993  19.950  0.00  0.00    +0.000 C 
ENDROOT
BRANCH   1   2
ATOM      2  N   UNL     1       0.318   9.684  19.535  0.00  0.00    +0.000 NA
ATOM      3  C   UNL     1       0.933   9.180  18.286  0.00  0.00    +0.000 C 
ATOM      4  C   UNL     1       2.396   8.731  18.450  0.00  0.00    +0.000 C 
ATOM      5  N   UNL     1       2.467   7.619  19.406  0.00  0.00    +0.000 N 
ATOM      6  C   UNL     1       1.852   7.912  20.717  0.00  0.00    +0.000 C 
ATOM      7  C   UNL     1       0.474   8.639  20.583  0.00  0.00    +0.000 C 
BRANCH   5   8
ATOM      8  C   UNL     1       2.596   6.314  18.955  0.00  0.00    +0.000 A 
ATOM      9  C   UNL     1       3.383   6.020  17.834  0.00  0.00    +0.000 A 
ATOM     10  C   UNL     1       3.443   4.727  17.294  0.00  0.00    +0.000 A 
ATOM     11  C   UNL     1       2.723   3.688  17.879  0.00  0.00    +0.000 A 
ATOM     12  C   UNL     1       1.944   3.935  19.011  0.00  0.00    +0.000 A 
ATOM     13  C   UNL     1       1.896   5.242  19.533  0.00  0.00    +0.000 A 
BRANCH  12  14
ATOM     14  C   UNL     1       1.144   2.845  19.677  0.00  0.00    +0.000 C 
ATOM     15  F   UNL     1       0.678   3.181  20.913  0.00  0.00    +0.000 F 
ATOM     16  F   UNL     1       0.047   2.485  18.952  0.00  0.00    +0.000 F 
ATOM     17  F   UNL     1       1.864   1.701  19.851  0.00  0.00    +0.000 F 
ENDBRANCH  12  14
ENDBRANCH   5   8
ENDBRANCH   1   2
BRANCH   1  18
ATOM     18  C   UNL     1       0.303  11.466  21.313  0.00  0.00    +0.000 C 
BRANCH  18  19
ATOM     19  O   UNL     1      -1.125  11.620  21.295  0.00  0.00    +0.000 OA
BRANCH  19  20
ATOM     20  C   UNL     1      -1.572  12.694  20.600  0.00  0.00    +0.000 C 
ATOM     21  O   UNL     1      -1.070  13.810  20.628  0.00  0.00    +0.000 OA
BRANCH  20  28
ATOM     22  C   UNL     1      -4.043  12.524  19.964  0.00  0.00    +0.000 A 
ATOM     23  C   UNL     1      -4.998  12.181  18.993  0.00  0.00    +0.000 A 
ATOM     24  C   UNL     1      -4.628  11.619  17.762  0.00  0.00    +0.000 A 
ATOM     25  C   UNL     1      -3.258  11.489  17.477  0.00  0.00    +0.000 A 
ATOM     26 CL   UNL     1      -2.733  10.880  15.947  0.00  0.00    +0.000 Cl
ATOM     27  C   UNL     1      -2.296  11.828  18.425  0.00  0.00    +0.000 A 
ATOM     28  C   UNL     1      -2.680  12.345  19.674  0.00  0.00    +0.000 A 
BRANCH  24  29
ATOM     29  N   UNL     1      -5.612  11.435  16.774  0.00  0.00    +0.000 N 
ATOM     30  H   UNL     1      -6.176  10.600  16.882  0.00  0.00    +0.000 HD
ATOM     31  H   UNL     1      -5.249  11.547  15.829  0.00  0.00    +0.000 HD
ENDBRANCH  24  29
BRANCH  22  33
ATOM     32  C   UNL     1      -4.942  14.420  21.091  0.00  0.00    +0.000 C 
ATOM     33  O   UNL     1      -4.378  13.113  21.155  0.00  0.00    +0.000 OA
ENDBRANCH  22  33
ENDBRANCH  20  28
ENDBRANCH  19  20
ENDBRANCH  18  19
ENDBRANCH   1  18
TORSDOF 9
ENDMDL
MODEL 6
REMARK VINA RESULT:      -7.2      7.463     10.329
REMARK  Name = 
REMARK  10 active torsions:
REMARK  status: ('A' for Active; 'I' for Inactive)
REMARK    1  A    between atoms: C_1  and  O_2
REMARK    2  A    between atoms: O_2  and  C_3
REMARK    3  A    between atoms: C_5  and  N_6
REMARK    4  A    between atoms: C_10  and  C_11
REMARK    5  A    between atoms: C_11  and  O_13
REMARK    6  A    between atoms: O_13  and  C_14
REMARK    7  A    between atoms: C_14  and  C_15
REMARK    8  A    between atoms: C_15  and  N_16
REMARK    9  A    between atoms: N_19  and  C_20
REMARK   10  A    between atoms: C_24  and  C_25
REMARK                            x       y       z     vdW  Elec       q    Type
REMARK                         _______ _______ _______ _____ _____    ______ ____
ROOT
ATOM      1  C   UNL     1       1.340   7.731  21.044  0.00  0.00    +0.000 C 
ENDROOT
BRANCH   1   2
ATOM      2  N   UNL     1       0.143   8.530  20.712  0.00  0.00    +0.000 NA
ATOM      3  C   UNL     1      -0.684   8.843  21.899  0.00  0.00    +0.000 C 
ATOM      4  C   UNL     1      -0.040   9.864  22.854  0.00  0.00    +0.000 C 
ATOM      5  N   UNL     1       0.154  11.140  22.155  0.00  0.00    +0.000 N 
ATOM      6  C   UNL     1       0.925  11.029  20.900  0.00  0.00    +0.000 C 
ATOM      7  C   UNL     1       0.479   9.810  20.029  0.00  0.00    +0.000 C 
BRANCH   5   8
ATOM      8  C   UNL     1      -0.727  12.192  22.359  0.00  0.00    +0.000 A 
ATOM      9  C   UNL     1      -0.330  13.513  22.116  0.00  0.00    +0.000 A 
ATOM     10  C   UNL     1      -1.163  14.600  22.416  0.00  0.00    +0.000 A 
ATOM     11  C   UNL     1      -2.429  14.386  22.955  0.00  0.00    +0.000 A 
ATOM     12  C   UNL     1      -2.872  13.083  23.192  0.00  0.00    +0.000 A 
ATOM     13  C   UNL     1      -2.016  12.008  22.886  0.00  0.00    +0.000 A 
BRANCH  12  14
ATOM     14  C   UNL     1      -4.231  12.801  23.777  0.00  0.00    +0.000 C 
ATOM     15  F   UNL     1      -5.154  12.401  22.858  0.00  0.00    +0.000 F 
ATOM     16  F   UNL     1      -4.200  11.819  24.723  0.00  0.00    +0.000 F 
ATOM     17  F   UNL     1      -4.771  13.891  24.394  0.00  0.00    +0.000 F 
ENDBRANCH  12  14
ENDBRANCH   5   8
ENDBRANCH   1   2
BRANCH   1  18
ATOM     18  C   UNL     1       2.263   7.501  19.825  0.00  0.00    +0.000 C 
BRANCH  18  19
ATOM     19  O   UNL     1       2.094   6.194  19.252  0.00  0.00    +0.000 OA
BRANCH  19  20
ATOM     20  C   UNL     1       2.924   5.245  19.748  0.00  0.00    +0.000 C 
ATOM     21  O   UNL     1       2.722   4.591  20.763  0.00  0.00    +0.000 OA
BRANCH  20  28
ATOM     22  C   UNL     1       3.996   4.218  17.666  0.00  0.00    +0.000 A 
ATOM     23  C   UNL     1       5.150   4.057  16.881  0.00  0.00    +0.000 A 
ATOM     24  C   UNL     1       6.386   4.593  17.271  0.00  0.00    +0.000 A 
ATOM     25  C   UNL     1       6.431   5.382  18.433  0.00  0.00    +0.000 A 
ATOM     26 CL   UNL     1       7.906   6.139  18.925  0.00  0.00    +0.000 Cl
ATOM     27  C   UNL     1       5.297   5.557  19.222  0.00  0.00    +0.000 A 
ATOM     28  C   UNL     1       4.074   4.975  18.847  0.00  0.00    +0.000 A 
BRANCH  24  29
ATOM     29  N   UNL     1       7.469   4.529  16.376  0.00  0.00    +0.000 N 
ATOM     30  H   UNL     1       7.263   4.092  15.485  0.00  0.00    +0.000 HD
ATOM     31  H   UNL     1       8.317   4.165  16.807  0.00  0.00    +0.000 HD
ENDBRANCH  24  29
BRANCH  22  33
ATOM     32  C   UNL     1       2.477   2.385  17.608  0.00  0.00    +0.000 C 
ATOM     33  O   UNL     1       2.770   3.741  17.284  0.00  0.00    +0.000 OA
ENDBRANCH  22  33
ENDBRANCH  20  28
ENDBRANCH  19  20
ENDBRANCH  18  19
ENDBRANCH   1  18
TORSDOF 9
ENDMDL
MODEL 7
REMARK VINA RESULT:      -7.2      7.221      8.701
REMARK  Name = 
REMARK  10 active torsions:
REMARK  status: ('A' for Active; 'I' for Inactive)
REMARK    1  A    between atoms: C_1  and  O_2
REMARK    2  A    between atoms: O_2  and  C_3
REMARK    3  A    between atoms: C_5  and  N_6
REMARK    4  A    between atoms: C_10  and  C_11
REMARK    5  A    between atoms: C_11  and  O_13
REMARK    6  A    between atoms: O_13  and  C_14
REMARK    7  A    between atoms: C_14  and  C_15
REMARK    8  A    between atoms: C_15  and  N_16
REMARK    9  A    between atoms: N_19  and  C_20
REMARK   10  A    between atoms: C_24  and  C_25
REMARK                            x       y       z     vdW  Elec       q    Type
REMARK                         _______ _______ _______ _____ _____    ______ ____
ROOT
ATOM      1  C   UNL     1       1.406  10.969  18.976  0.00  0.00    +0.000 C 
ENDROOT
BRANCH   1   2
ATOM      2  N   UNL     1       0.787   9.661  18.683  0.00  0.00    +0.000 NA
ATOM      3  C   UNL     1       1.402   8.984  17.519  0.00  0.00    +0.000 C 
ATOM      4  C   UNL     1       2.824   8.459  17.784  0.00  0.00    +0.000 C 
ATOM      5  N   UNL     1       2.788   7.456  18.855  0.00  0.00    +0.000 N 
ATOM      6  C   UNL     1       2.157   7.930  20.103  0.00  0.00    +0.000 C 
ATOM      7  C   UNL     1       0.838   8.728  19.842  0.00  0.00    +0.000 C 
BRANCH   5   8
ATOM      8  C   UNL     1       2.839   6.104  18.551  0.00  0.00    +0.000 A 
ATOM      9  C   UNL     1       3.701   5.627  17.555  0.00  0.00    +0.000 A 
ATOM     10  C   UNL     1       3.693   4.284  17.155  0.00  0.00    +0.000 A 
ATOM     11  C   UNL     1       2.826   3.376  17.759  0.00  0.00    +0.000 A 
ATOM     12  C   UNL     1       1.966   3.807  18.772  0.00  0.00    +0.000 A 
ATOM     13  C   UNL     1       1.989   5.161  19.154  0.00  0.00    +0.000 A 
BRANCH  12  14
ATOM     14  C   UNL     1       1.007   2.864  19.452  0.00  0.00    +0.000 C 
ATOM     15  F   UNL     1       0.121   2.273  18.601  0.00  0.00    +0.000 F 
ATOM     16  F   UNL     1       1.643   1.843  20.093  0.00  0.00    +0.000 F 
ATOM     17  F   UNL     1       0.251   3.483  20.402  0.00  0.00    +0.000 F 
ENDBRANCH  12  14
ENDBRANCH   5   8
ENDBRANCH   1   2
BRANCH   1  18
ATOM     18  C   UNL     1       0.458  11.922  19.739  0.00  0.00    +0.000 C 
BRANCH  18  19
ATOM     19  O   UNL     1       0.892  12.157  21.089  0.00  0.00    +0.000 OA
BRANCH  19  20
ATOM     20  C   UNL     1       0.342  13.246  21.680  0.00  0.00    +0.000 C 
ATOM     21  O   UNL     1       0.857  14.355  21.732  0.00  0.00    +0.000 OA
BRANCH  20  28
ATOM     22  C   UNL     1      -1.408  11.912  22.982  0.00  0.00    +0.000 A 
ATOM     23  C   UNL     1      -2.746  11.793  23.392  0.00  0.00    +0.000 A 
ATOM     24  C   UNL     1      -3.731  12.694  22.963  0.00  0.00    +0.000 A 
ATOM     25  C   UNL     1      -3.333  13.788  22.176  0.00  0.00    +0.000 A 
ATOM     26 CL   UNL     1      -4.483  14.980  21.680  0.00  0.00    +0.000 Cl
ATOM     27  C   UNL     1      -2.010  13.926  21.762  0.00  0.00    +0.000 A 
ATOM     28  C   UNL     1      -1.040  12.990  22.159  0.00  0.00    +0.000 A 
BRANCH  24  29
ATOM     29  N   UNL     1      -5.019  12.614  23.523  0.00  0.00    +0.000 N 
ATOM     30  H   UNL     1      -5.414  11.681  23.557  0.00  0.00    +0.000 HD
ATOM     31  H   UNL     1      -5.662  13.301  23.135  0.00  0.00    +0.000 HD
ENDBRANCH  24  29
BRANCH  22  33
ATOM     32  C   UNL     1      -0.573   9.686  23.119  0.00  0.00    +0.000 C 
ATOM     33  O   UNL     1      -0.422  11.069  23.423  0.00  0.00    +0.000 OA
ENDBRANCH  22  33
ENDBRANCH  20  28
ENDBRANCH  19  20
ENDBRANCH  18  19
ENDBRANCH   1  18
TORSDOF 9
ENDMDL
MODEL 8
REMARK VINA RESULT:      -7.1      7.603      9.101
REMARK  Name = 
REMARK  10 active torsions:
REMARK  status: ('A' for Active; 'I' for Inactive)
REMARK    1  A    between atoms: C_1  and  O_2
REMARK    2  A    between atoms: O_2  and  C_3
REMARK    3  A    between atoms: C_5  and  N_6
REMARK    4  A    between atoms: C_10  and  C_11
REMARK    5  A    between atoms: C_11  and  O_13
REMARK    6  A    between atoms: O_13  and  C_14
REMARK    7  A    between atoms: C_14  and  C_15
REMARK    8  A    between atoms: C_15  and  N_16
REMARK    9  A    between atoms: N_19  and  C_20
REMARK   10  A    between atoms: C_24  and  C_25
REMARK                            x       y       z     vdW  Elec       q    Type
REMARK                         _______ _______ _______ _____ _____    ______ ____
ROOT
ATOM      1  C   UNL     1       1.000  11.030  19.389  0.00  0.00    +0.000 C 
ENDROOT
BRANCH   1   2
ATOM      2  N   UNL     1       0.456   9.713  19.004  0.00  0.00    +0.000 NA
ATOM      3  C   UNL     1       1.128   9.142  17.815  0.00  0.00    +0.000 C 
ATOM      4  C   UNL     1       2.570   8.673  18.080  0.00  0.00    +0.000 C 
ATOM      5  N   UNL     1       2.565   7.606  19.088  0.00  0.00    +0.000 N 
ATOM      6  C   UNL     1       1.886   7.970  20.348  0.00  0.00    +0.000 C 
ATOM      7  C   UNL     1       0.533   8.715  20.105  0.00  0.00    +0.000 C 
BRANCH   5   8
ATOM      8  C   UNL     1       2.691   6.280  18.704  0.00  0.00    +0.000 A 
ATOM      9  C   UNL     1       3.554   5.917  17.662  0.00  0.00    +0.000 A 
ATOM     10  C   UNL     1       3.619   4.600  17.183  0.00  0.00    +0.000 A 
ATOM     11  C   UNL     1       2.827   3.607  17.753  0.00  0.00    +0.000 A 
ATOM     12  C   UNL     1       1.970   3.923  18.809  0.00  0.00    +0.000 A 
ATOM     13  C   UNL     1       1.919   5.252  19.270  0.00  0.00    +0.000 A 
BRANCH  12  14
ATOM     14  C   UNL     1       1.090   2.884  19.455  0.00  0.00    +0.000 C 
ATOM     15  F   UNL     1       0.277   3.380  20.429  0.00  0.00    +0.000 F 
ATOM     16  F   UNL     1       0.266   2.268  18.561  0.00  0.00    +0.000 F 
ATOM     17  F   UNL     1       1.807   1.885  20.045  0.00  0.00    +0.000 F 
ENDBRANCH  12  14
ENDBRANCH   5   8
ENDBRANCH   1   2
BRANCH   1  18
ATOM     18  C   UNL     1       0.257  12.206  18.714  0.00  0.00    +0.000 C 
BRANCH  18  19
ATOM     19  O   UNL     1      -0.583  12.920  19.634  0.00  0.00    +0.000 OA
BRANCH  19  20
ATOM     20  C   UNL     1      -1.862  12.474  19.699  0.00  0.00    +0.000 C 
ATOM     21  O   UNL     1      -2.443  11.869  18.808  0.00  0.00    +0.000 OA
BRANCH  20  28
ATOM     22  C   UNL     1      -2.091  11.970  22.195  0.00  0.00    +0.000 A 
ATOM     23  C   UNL     1      -2.715  12.277  23.416  0.00  0.00    +0.000 A 
ATOM     24  C   UNL     1      -3.732  13.239  23.502  0.00  0.00    +0.000 A 
ATOM     25  C   UNL     1      -4.057  13.966  22.345  0.00  0.00    +0.000 A 
ATOM     26 CL   UNL     1      -5.244  15.222  22.400  0.00  0.00    +0.000 Cl
ATOM     27  C   UNL     1      -3.447  13.680  21.126  0.00  0.00    +0.000 A 
ATOM     28  C   UNL     1      -2.463  12.681  21.042  0.00  0.00    +0.000 A 
BRANCH  24  29
ATOM     29  N   UNL     1      -4.214  13.609  24.770  0.00  0.00    +0.000 N 
ATOM     30  H   UNL     1      -3.567  14.149  25.334  0.00  0.00    +0.000 HD
ATOM     31  H   UNL     1      -4.625  12.829  25.280  0.00  0.00    +0.000 HD
ENDBRANCH  24  29
BRANCH  22  33
ATOM     32  C   UNL     1      -0.836  10.227  23.224  0.00  0.00    +0.000 C 
ATOM     33  O   UNL     1      -1.067  11.065  22.095  0.00  0.00    +0.000 OA
ENDBRANCH  22  33
ENDBRANCH  20  28
ENDBRANCH  19  20
ENDBRANCH  18  19
ENDBRANCH   1  18
TORSDOF 9
ENDMDL
MODEL 9
REMARK VINA RESULT:      -7.1      5.437      7.879
REMARK  Name = 
REMARK  10 active torsions:
REMARK  status: ('A' for Active; 'I' for Inactive)
REMARK    1  A    between atoms: C_1  and  O_2
REMARK    2  A    between atoms: O_2  and  C_3
REMARK    3  A    between atoms: C_5  and  N_6
REMARK    4  A    between atoms: C_10  and  C_11
REMARK    5  A    between atoms: C_11  and  O_13
REMARK    6  A    between atoms: O_13  and  C_14
REMARK    7  A    between atoms: C_14  and  C_15
REMARK    8  A    between atoms: C_15  and  N_16
REMARK    9  A    between atoms: N_19  and  C_20
REMARK   10  A    between atoms: C_24  and  C_25
REMARK                            x       y       z     vdW  Elec       q    Type
REMARK                         _______ _______ _______ _____ _____    ______ ____
ROOT
ATOM      1  C   UNL     1       2.652   2.443  19.092  0.00  0.00    +0.000 C 
ENDROOT
BRANCH   1   2
ATOM      2  N   UNL     1       1.521   3.389  19.011  0.00  0.00    +0.000 NA
ATOM      3  C   UNL     1       1.335   4.166  20.258  0.00  0.00    +0.000 C 
ATOM      4  C   UNL     1       2.434   5.214  20.508  0.00  0.00    +0.000 C 
ATOM      5  N   UNL     1       2.434   6.199  19.420  0.00  0.00    +0.000 N 
ATOM      6  C   UNL     1       2.562   5.608  18.072  0.00  0.00    +0.000 C 
ATOM      7  C   UNL     1       1.655   4.349  17.882  0.00  0.00    +0.000 C 
BRANCH   5   8
ATOM      8  C   UNL     1       1.845   7.442  19.600  0.00  0.00    +0.000 A 
ATOM      9  C   UNL     1       1.942   8.428  18.609  0.00  0.00    +0.000 A 
ATOM     10  C   UNL     1       1.451   9.725  18.810  0.00  0.00    +0.000 A 
ATOM     11  C   UNL     1       0.833  10.063  20.011  0.00  0.00    +0.000 A 
ATOM     12  C   UNL     1       0.697   9.103  21.017  0.00  0.00    +0.000 A 
ATOM     13  C   UNL     1       1.201   7.808  20.793  0.00  0.00    +0.000 A 
BRANCH  12  14
ATOM     14  C   UNL     1       0.040   9.422  22.334  0.00  0.00    +0.000 C 
ATOM     15  F   UNL     1      -0.556  10.648  22.369  0.00  0.00    +0.000 F 
ATOM     16  F   UNL     1      -0.934   8.527  22.664  0.00  0.00    +0.000 F 
ATOM     17  F   UNL     1       0.920   9.409  23.375  0.00  0.00    +0.000 F 
ENDBRANCH  12  14
ENDBRANCH   5   8
ENDBRANCH   1   2
BRANCH   1  18
ATOM     18  C   UNL     1       3.889   3.046  19.796  0.00  0.00    +0.000 C 
BRANCH  18  19
ATOM     19  O   UNL     1       5.028   3.124  18.925  0.00  0.00    +0.000 OA
BRANCH  19  20
ATOM     20  C   UNL     1       5.690   4.307  18.960  0.00  0.00    +0.000 C 
ATOM     21  O   UNL     1       5.949   4.940  19.975  0.00  0.00    +0.000 OA
BRANCH  20  28
ATOM     22  C   UNL     1       7.169   5.700  17.407  0.00  0.00    +0.000 A 
ATOM     23  C   UNL     1       7.589   5.970  16.094  0.00  0.00    +0.000 A 
ATOM     24  C   UNL     1       7.029   5.310  14.991  0.00  0.00    +0.000 A 
ATOM     25  C   UNL     1       6.090   4.293  15.233  0.00  0.00    +0.000 A 
ATOM     26 CL   UNL     1       5.420   3.385  13.923  0.00  0.00    +0.000 Cl
ATOM     27  C   UNL     1       5.664   4.007  16.528  0.00  0.00    +0.000 A 
ATOM     28  C   UNL     1       6.197   4.708  17.622  0.00  0.00    +0.000 A 
BRANCH  24  29
ATOM     29  N   UNL     1       7.591   5.513  13.718  0.00  0.00    +0.000 N 
ATOM     30  H   UNL     1       8.350   6.183  13.687  0.00  0.00    +0.000 HD
ATOM     31  H   UNL     1       6.890   5.675  12.998  0.00  0.00    +0.000 HD
ENDBRANCH  24  29
BRANCH  22  33
ATOM     32  C   UNL     1       8.168   7.648  18.345  0.00  0.00    +0.000 C 
ATOM     33  O   UNL     1       7.733   6.301  18.502  0.00  0.00    +0.000 OA
ENDBRANCH  22  33
ENDBRANCH  20  28
ENDBRANCH  19  20
ENDBRANCH  18  19
ENDBRANCH   1  18
TORSDOF 9
ENDMDL
