MODEL 1
REMARK VINA RESULT:      -7.3      0.000      0.000
REMARK  Name = 
REMARK  9 active torsions:
REMARK  status: ('A' for Active; 'I' for Inactive)
REMARK    1  A    between atoms: C_1  and  C_2
REMARK    2  A    between atoms: C_2  and  N_3
REMARK    3  A    between atoms: C_5  and  C_6
REMARK    4  A    between atoms: C_7  and  C_8
REMARK    5  A    between atoms: C_8  and  N_9
REMARK    6  A    between atoms: C_12  and  O_13
REMARK    7  A    between atoms: O_13  and  C_14
REMARK    8  A    between atoms: C_14  and  C_15
REMARK    9  A    between atoms: C_24  and  C_25
REMARK                            x       y       z     vdW  Elec       q    Type
REMARK                         _______ _______ _______ _____ _____    ______ ____
ROOT
ATOM      1  N   UNL     1       1.663   6.282  19.934  0.00  0.00    +0.000 NA
ATOM      2  C   UNL     1       2.275   6.158  18.610  0.00  0.00    +0.000 C 
ATOM      3  C   UNL     1       2.033   4.812  17.931  0.00  0.00    +0.000 C 
ATOM      4  C   UNL     1       2.454   3.651  18.829  0.00  0.00    +0.000 C 
ATOM      5  C   UNL     1       1.669   3.763  20.135  0.00  0.00    +0.000 C 
ATOM      6  C   UNL     1       1.841   5.125  20.810  0.00  0.00    +0.000 C 
ENDROOT
BRANCH   1   7
ATOM      7  C   UNL     1       1.994   7.559  20.608  0.00  0.00    +0.000 C 
BRANCH   7  12
ATOM      8  N   UNL     1       0.046  10.445  19.374  0.00  0.00    +0.000 N 
ATOM      9  N   UNL     1      -0.579  10.279  20.547  0.00  0.00    +0.000 NA
ATOM     10  C   UNL     1       0.038   9.239  21.113  0.00  0.00    +0.000 A 
ATOM     11  C   UNL     1      -0.399   8.780  22.457  0.00  0.00    +0.000 C 
ATOM     12  C   UNL     1       1.080   8.716  20.282  0.00  0.00    +0.000 A 
ATOM     13  C   UNL     1       1.073   9.557  19.171  0.00  0.00    +0.000 A 
ATOM     14  C   UNL     1       1.918   9.586  17.949  0.00  0.00    +0.000 C 
BRANCH   8  16
ATOM     15  C   UNL     1      -1.825  11.286  18.000  0.00  0.00    +0.000 C 
ATOM     16  C   UNL     1      -0.411  11.513  18.502  0.00  0.00    +0.000 C 
ENDBRANCH   8  16
ENDBRANCH   7  12
ENDBRANCH   1   7
BRANCH   4  17
ATOM     17  O   UNL     1       3.879   3.675  19.020  0.00  0.00    +0.000 OA
BRANCH  17  18
ATOM     18  C   UNL     1       4.605   3.735  17.790  0.00  0.00    +0.000 C 
BRANCH  18  19
ATOM     19  C   UNL     1       5.626   4.855  17.752  0.00  0.00    +0.000 A 
ATOM     20  C   UNL     1       5.539   5.915  16.839  0.00  0.00    +0.000 A 
ATOM     21  C   UNL     1       6.449   6.977  16.890  0.00  0.00    +0.000 A 
ATOM     22  C   UNL     1       7.444   6.985  17.862  0.00  0.00    +0.000 A 
ATOM     23  F   UNL     1       8.303   8.012  17.923  0.00  0.00    +0.000 F 
ATOM     24  C   UNL     1       7.550   5.949  18.779  0.00  0.00    +0.000 A 
ATOM     25  C   UNL     1       6.640   4.888  18.729  0.00  0.00    +0.000 A 
ENDBRANCH  18  19
ENDBRANCH  17  18
ENDBRANCH   4  17
TORSDOF 6
ENDMDL
MODEL 2
REMARK VINA RESULT:      -7.3      0.887      1.872
REMARK  Name = 
REMARK  9 active torsions:
REMARK  status: ('A' for Active; 'I' for Inactive)
REMARK    1  A    between atoms: C_1  and  C_2
REMARK    2  A    between atoms: C_2  and  N_3
REMARK    3  A    between atoms: C_5  and  C_6
REMARK    4  A    between atoms: C_7  and  C_8
REMARK    5  A    between atoms: C_8  and  N_9
REMARK    6  A    between atoms: C_12  and  O_13
REMARK    7  A    between atoms: O_13  and  C_14
REMARK    8  A    between atoms: C_14  and  C_15
REMARK    9  A    between atoms: C_24  and  C_25
REMARK                            x       y       z     vdW  Elec       q    Type
REMARK                         _______ _______ _______ _____ _____    ______ ____
ROOT
ATOM      1  N   UNL     1       1.581   6.089  19.793  0.00  0.00    +0.000 NA
ATOM      2  C   UNL     1       2.115   5.820  18.456  0.00  0.00    +0.000 C 
ATOM      3  C   UNL     1       1.660   4.493  17.855  0.00  0.00    +0.000 C 
ATOM      4  C   UNL     1       1.950   3.326  18.795  0.00  0.00    +0.000 C 
ATOM      5  C   UNL     1       1.241   3.607  20.120  0.00  0.00    +0.000 C 
ATOM      6  C   UNL     1       1.631   4.960  20.719  0.00  0.00    +0.000 C 
ENDROOT
BRANCH   1   7
ATOM      7  C   UNL     1       2.116   7.335  20.389  0.00  0.00    +0.000 C 
BRANCH   7  12
ATOM      8  N   UNL     1      -0.107  10.278  20.187  0.00  0.00    +0.000 N 
ATOM      9  N   UNL     1       0.491  10.408  18.995  0.00  0.00    +0.000 NA
ATOM     10  C   UNL     1       1.345   9.384  18.935  0.00  0.00    +0.000 A 
ATOM     11  C   UNL     1       2.182   9.208  17.720  0.00  0.00    +0.000 C 
ATOM     12  C   UNL     1       1.304   8.579  20.119  0.00  0.00    +0.000 A 
ATOM     13  C   UNL     1       0.315   9.181  20.895  0.00  0.00    +0.000 A 
ATOM     14  C   UNL     1      -0.243   8.833  22.228  0.00  0.00    +0.000 C 
BRANCH   8  16
ATOM     15  C   UNL     1      -1.662  12.011  19.363  0.00  0.00    +0.000 C 
ATOM     16  C   UNL     1      -1.103  11.267  20.562  0.00  0.00    +0.000 C 
ENDBRANCH   8  16
ENDBRANCH   7  12
ENDBRANCH   1   7
BRANCH   4  17
ATOM     17  O   UNL     1       3.370   3.155  18.936  0.00  0.00    +0.000 OA
BRANCH  17  18
ATOM     18  C   UNL     1       4.046   3.047  17.680  0.00  0.00    +0.000 C 
BRANCH  18  19
ATOM     19  C   UNL     1       5.129   4.092  17.493  0.00  0.00    +0.000 A 
ATOM     20  C   UNL     1       5.515   4.548  16.226  0.00  0.00    +0.000 A 
ATOM     21  C   UNL     1       6.457   5.576  16.094  0.00  0.00    +0.000 A 
ATOM     22  C   UNL     1       7.008   6.154  17.232  0.00  0.00    +0.000 A 
ATOM     23  F   UNL     1       7.894   7.152  17.106  0.00  0.00    +0.000 F 
ATOM     24  C   UNL     1       6.640   5.722  18.498  0.00  0.00    +0.000 A 
ATOM     25  C   UNL     1       5.699   4.696  18.630  0.00  0.00    +0.000 A 
ENDBRANCH  18  19
ENDBRANCH  17  18
ENDBRANCH   4  17
TORSDOF 6
ENDMDL
MODEL 3
REMARK VINA RESULT:      -7.2      1.317      2.450
REMARK  Name = 
REMARK  9 active torsions:
REMARK  status: ('A' for Active; 'I' for Inactive)
REMARK    1  A    between atoms: C_1  and  C_2
REMARK    2  A    between atoms: C_2  and  N_3
REMARK    3  A    between atoms: C_5  and  C_6
REMARK    4  A    between atoms: C_7  and  C_8
REMARK    5  A    between atoms: C_8  and  N_9
REMARK    6  A    between atoms: C_12  and  O_13
REMARK    7  A    between atoms: O_13  and  C_14
REMARK    8  A    between atoms: C_14  and  C_15
REMARK    9  A    between atoms: C_24  and  C_25
REMARK                            x       y       z     vdW  Elec       q    Type
REMARK                         _______ _______ _______ _____ _____    ______ ____
ROOT
ATOM      1  N   UNL     1       1.770   5.334  20.218  0.00  0.00    +0.000 NA
ATOM      2  C   UNL     1       1.853   4.907  18.820  0.00  0.00    +0.000 C 
ATOM      3  C   UNL     1       1.223   3.545  18.542  0.00  0.00    +0.000 C 
ATOM      4  C   UNL     1       1.787   2.470  19.468  0.00  0.00    +0.000 C 
ATOM      5  C   UNL     1       1.534   2.914  20.908  0.00  0.00    +0.000 C 
ATOM      6  C   UNL     1       2.101   4.305  21.202  0.00  0.00    +0.000 C 
ENDROOT
BRANCH   1   7
ATOM      7  C   UNL     1       2.473   6.612  20.475  0.00  0.00    +0.000 C 
BRANCH   7  12
ATOM      8  N   UNL     1       0.866   9.582  18.978  0.00  0.00    +0.000 N 
ATOM      9  N   UNL     1       1.709   9.295  17.977  0.00  0.00    +0.000 NA
ATOM     10  C   UNL     1       2.373   8.216  18.395  0.00  0.00    +0.000 A 
ATOM     11  C   UNL     1       3.400   7.608  17.511  0.00  0.00    +0.000 C 
ATOM     12  C   UNL     1       1.955   7.800  19.701  0.00  0.00    +0.000 A 
ATOM     13  C   UNL     1       0.942   8.701  20.028  0.00  0.00    +0.000 A 
ATOM     14  C   UNL     1       0.072   8.816  21.226  0.00  0.00    +0.000 C 
BRANCH   8  16
ATOM     15  C   UNL     1      -1.268  10.410  18.050  0.00  0.00    +0.000 C 
ATOM     16  C   UNL     1      -0.006  10.735  18.827  0.00  0.00    +0.000 C 
ENDBRANCH   8  16
ENDBRANCH   7  12
ENDBRANCH   1   7
BRANCH   4  17
ATOM     17  O   UNL     1       3.179   2.257  19.176  0.00  0.00    +0.000 OA
BRANCH  17  18
ATOM     18  C   UNL     1       3.501   2.484  17.802  0.00  0.00    +0.000 C 
BRANCH  18  19
ATOM     19  C   UNL     1       4.541   3.569  17.603  0.00  0.00    +0.000 A 
ATOM     20  C   UNL     1       5.274   4.105  18.669  0.00  0.00    +0.000 A 
ATOM     21  C   UNL     1       6.288   5.042  18.438  0.00  0.00    +0.000 A 
ATOM     22  C   UNL     1       6.574   5.439  17.136  0.00  0.00    +0.000 A 
ATOM     23  F   UNL     1       7.558   6.322  16.914  0.00  0.00    +0.000 F 
ATOM     24  C   UNL     1       5.864   4.921  16.063  0.00  0.00    +0.000 A 
ATOM     25  C   UNL     1       4.852   3.984  16.294  0.00  0.00    +0.000 A 
ENDBRANCH  18  19
ENDBRANCH  17  18
ENDBRANCH   4  17
TORSDOF 6
ENDMDL
MODEL 4
REMARK VINA RESULT:      -7.2      3.655      8.193
REMARK  Name = 
REMARK  9 active torsions:
REMARK  status: ('A' for Active; 'I' for Inactive)
REMARK    1  A    between atoms: C_1  and  C_2
REMARK    2  A    between atoms: C_2  and  N_3
REMARK    3  A    between atoms: C_5  and  C_6
REMARK    4  A    between atoms: C_7  and  C_8
REMARK    5  A    between atoms: C_8  and  N_9
REMARK    6  A    between atoms: C_12  and  O_13
REMARK    7  A    between atoms: O_13  and  C_14
REMARK    8  A    between atoms: C_14  and  C_15
REMARK    9  A    between atoms: C_24  and  C_25
REMARK                            x       y       z     vdW  Elec       q    Type
REMARK                         _______ _______ _______ _____ _____    ______ ____
ROOT
ATOM      1  N   UNL     1       2.152   8.206  18.902  0.00  0.00    +0.000 NA
ATOM      2  C   UNL     1       1.621   9.266  18.042  0.00  0.00    +0.000 C 
ATOM      3  C   UNL     1       1.383  10.593  18.758  0.00  0.00    +0.000 C 
ATOM      4  C   UNL     1       0.505  10.411  19.993  0.00  0.00    +0.000 C 
ATOM      5  C   UNL     1       1.193   9.402  20.911  0.00  0.00    +0.000 C 
ATOM      6  C   UNL     1       1.502   8.080  20.205  0.00  0.00    +0.000 C 
ENDROOT
BRANCH   1   7
ATOM      7  C   UNL     1       2.282   6.906  18.204  0.00  0.00    +0.000 C 
BRANCH   7  12
ATOM      8  N   UNL     1       5.628   5.357  18.426  0.00  0.00    +0.000 N 
ATOM      9  N   UNL     1       5.028   4.656  19.397  0.00  0.00    +0.000 NA
ATOM     10  C   UNL     1       3.779   5.126  19.429  0.00  0.00    +0.000 A 
ATOM     11  C   UNL     1       2.812   4.553  20.400  0.00  0.00    +0.000 C 
ATOM     12  C   UNL     1       3.571   6.162  18.461  0.00  0.00    +0.000 A 
ATOM     13  C   UNL     1       4.796   6.255  17.804  0.00  0.00    +0.000 A 
ATOM     14  C   UNL     1       5.251   7.111  16.679  0.00  0.00    +0.000 C 
BRANCH   8  16
ATOM     15  C   UNL     1       7.231   4.418  16.798  0.00  0.00    +0.000 C 
ATOM     16  C   UNL     1       7.027   5.080  18.149  0.00  0.00    +0.000 C 
ENDBRANCH   8  16
ENDBRANCH   7  12
ENDBRANCH   1   7
BRANCH   4  17
ATOM     17  O   UNL     1      -0.817  10.007  19.596  0.00  0.00    +0.000 OA
BRANCH  17  18
ATOM     18  C   UNL     1      -1.631  11.103  19.172  0.00  0.00    +0.000 C 
BRANCH  18  19
ATOM     19  C   UNL     1      -2.419  10.809  17.910  0.00  0.00    +0.000 A 
ATOM     20  C   UNL     1      -3.625  11.458  17.615  0.00  0.00    +0.000 A 
ATOM     21  C   UNL     1      -4.281  11.226  16.399  0.00  0.00    +0.000 A 
ATOM     22  C   UNL     1      -3.724  10.350  15.474  0.00  0.00    +0.000 A 
ATOM     23  F   UNL     1      -4.342  10.144  14.302  0.00  0.00    +0.000 F 
ATOM     24  C   UNL     1      -2.529   9.698  15.741  0.00  0.00    +0.000 A 
ATOM     25  C   UNL     1      -1.874   9.931  16.954  0.00  0.00    +0.000 A 
ENDBRANCH  18  19
ENDBRANCH  17  18
ENDBRANCH   4  17
TORSDOF 6
ENDMDL
MODEL 5
REMARK VINA RESULT:      -7.2      0.369      1.116
REMARK  Name = 
REMARK  9 active torsions:
REMARK  status: ('A' for Active; 'I' for Inactive)
REMARK    1  A    between atoms: C_1  and  C_2
REMARK    2  A    between atoms: C_2  and  N_3
REMARK    3  A    between atoms: C_5  and  C_6
REMARK    4  A    between atoms: C_7  and  C_8
REMARK    5  A    between atoms: C_8  and  N_9
REMARK    6  A    between atoms: C_12  and  O_13
REMARK    7  A    between atoms: O_13  and  C_14
REMARK    8  A    between atoms: C_14  and  C_15
REMARK    9  A    between atoms: C_24  and  C_25
REMARK                            x       y       z     vdW  Elec       q    Type
REMARK                         _______ _______ _______ _____ _____    ______ ____
ROOT
ATOM      1  N   UNL     1       1.727   6.312  19.865  0.00  0.00    +0.000 NA
ATOM      2  C   UNL     1       2.386   6.170  18.566  0.00  0.00    +0.000 C 
ATOM      3  C   UNL     1       2.177   4.811  17.902  0.00  0.00    +0.000 C 
ATOM      4  C   UNL     1       2.574   3.668  18.834  0.00  0.00    +0.000 C 
ATOM      5  C   UNL     1       1.742   3.796  20.110  0.00  0.00    +0.000 C 
ATOM      6  C   UNL     1       1.882   5.172  20.767  0.00  0.00    +0.000 C 
ENDROOT
BRANCH   1   7
ATOM      7  C   UNL     1       2.027   7.603  20.528  0.00  0.00    +0.000 C 
BRANCH   7  12
ATOM      8  N   UNL     1      -0.032  10.419  19.315  0.00  0.00    +0.000 N 
ATOM      9  N   UNL     1      -0.641  10.231  20.493  0.00  0.00    +0.000 NA
ATOM     10  C   UNL     1       0.017   9.213  21.052  0.00  0.00    +0.000 A 
ATOM     11  C   UNL     1      -0.392   8.737  22.399  0.00  0.00    +0.000 C 
ATOM     12  C   UNL     1       1.070   8.727  20.211  0.00  0.00    +0.000 A 
ATOM     13  C   UNL     1       1.024   9.568  19.101  0.00  0.00    +0.000 A 
ATOM     14  C   UNL     1       1.856   9.628  17.872  0.00  0.00    +0.000 C 
BRANCH   8  16
ATOM     15  C   UNL     1       0.019  12.837  18.814  0.00  0.00    +0.000 C 
ATOM     16  C   UNL     1      -0.534  11.472  18.448  0.00  0.00    +0.000 C 
ENDBRANCH   8  16
ENDBRANCH   7  12
ENDBRANCH   1   7
BRANCH   4  17
ATOM     17  O   UNL     1       3.991   3.705  19.075  0.00  0.00    +0.000 OA
BRANCH  17  18
ATOM     18  C   UNL     1       4.751   3.949  17.888  0.00  0.00    +0.000 C 
BRANCH  18  19
ATOM     19  C   UNL     1       5.762   5.068  18.045  0.00  0.00    +0.000 A 
ATOM     20  C   UNL     1       6.771   5.032  19.016  0.00  0.00    +0.000 A 
ATOM     21  C   UNL     1       7.740   6.041  19.075  0.00  0.00    +0.000 A 
ATOM     22  C   UNL     1       7.705   7.083  18.156  0.00  0.00    +0.000 A 
ATOM     23  F   UNL     1       8.645   8.038  18.200  0.00  0.00    +0.000 F 
ATOM     24  C   UNL     1       6.718   7.140  17.183  0.00  0.00    +0.000 A 
ATOM     25  C   UNL     1       5.750   6.132  17.123  0.00  0.00    +0.000 A 
ENDBRANCH  18  19
ENDBRANCH  17  18
ENDBRANCH   4  17
TORSDOF 6
ENDMDL
MODEL 6
REMARK VINA RESULT:      -7.1      1.049      2.205
REMARK  Name = 
REMARK  9 active torsions:
REMARK  status: ('A' for Active; 'I' for Inactive)
REMARK    1  A    between atoms: C_1  and  C_2
REMARK    2  A    between atoms: C_2  and  N_3
REMARK    3  A    between atoms: C_5  and  C_6
REMARK    4  A    between atoms: C_7  and  C_8
REMARK    5  A    between atoms: C_8  and  N_9
REMARK    6  A    between atoms: C_12  and  O_13
REMARK    7  A    between atoms: O_13  and  C_14
REMARK    8  A    between atoms: C_14  and  C_15
REMARK    9  A    between atoms: C_24  and  C_25
REMARK                            x       y       z     vdW  Elec       q    Type
REMARK                         _______ _______ _______ _____ _____    ______ ____
ROOT
ATOM      1  N   UNL     1       1.576   6.000  19.807  0.00  0.00    +0.000 NA
ATOM      2  C   UNL     1       2.110   5.728  18.472  0.00  0.00    +0.000 C 
ATOM      3  C   UNL     1       1.634   4.412  17.862  0.00  0.00    +0.000 C 
ATOM      4  C   UNL     1       1.898   3.235  18.798  0.00  0.00    +0.000 C 
ATOM      5  C   UNL     1       1.190   3.522  20.121  0.00  0.00    +0.000 C 
ATOM      6  C   UNL     1       1.601   4.865  20.729  0.00  0.00    +0.000 C 
ENDROOT
BRANCH   1   7
ATOM      7  C   UNL     1       2.131   7.233  20.412  0.00  0.00    +0.000 C 
BRANCH   7  12
ATOM      8  N   UNL     1      -0.044  10.214  20.240  0.00  0.00    +0.000 N 
ATOM      9  N   UNL     1       0.542  10.335  19.041  0.00  0.00    +0.000 NA
ATOM     10  C   UNL     1       1.377   9.297  18.969  0.00  0.00    +0.000 A 
ATOM     11  C   UNL     1       2.196   9.108  17.744  0.00  0.00    +0.000 C 
ATOM     12  C   UNL     1       1.337   8.491  20.153  0.00  0.00    +0.000 A 
ATOM     13  C   UNL     1       0.368   9.109  20.942  0.00  0.00    +0.000 A 
ATOM     14  C   UNL     1      -0.180   8.769  22.280  0.00  0.00    +0.000 C 
BRANCH   8  16
ATOM     15  C   UNL     1      -0.407  12.322  21.474  0.00  0.00    +0.000 C 
ATOM     16  C   UNL     1      -1.018  11.220  20.628  0.00  0.00    +0.000 C 
ENDBRANCH   8  16
ENDBRANCH   7  12
ENDBRANCH   1   7
BRANCH   4  17
ATOM     17  O   UNL     1       3.315   3.038  18.944  0.00  0.00    +0.000 OA
BRANCH  17  18
ATOM     18  C   UNL     1       4.007   3.022  17.693  0.00  0.00    +0.000 C 
BRANCH  18  19
ATOM     19  C   UNL     1       5.003   4.156  17.546  0.00  0.00    +0.000 A 
ATOM     20  C   UNL     1       5.722   4.664  18.635  0.00  0.00    +0.000 A 
ATOM     21  C   UNL     1       6.697   5.652  18.448  0.00  0.00    +0.000 A 
ATOM     22  C   UNL     1       6.958   6.127  17.167  0.00  0.00    +0.000 A 
ATOM     23  F   UNL     1       7.905   7.058  16.986  0.00  0.00    +0.000 F 
ATOM     24  C   UNL     1       6.261   5.638  16.072  0.00  0.00    +0.000 A 
ATOM     25  C   UNL     1       5.288   4.651  16.259  0.00  0.00    +0.000 A 
ENDBRANCH  18  19
ENDBRANCH  17  18
ENDBRANCH   4  17
TORSDOF 6
ENDMDL
MODEL 7
REMARK VINA RESULT:      -7.0      3.263      6.632
REMARK  Name = 
REMARK  9 active torsions:
REMARK  status: ('A' for Active; 'I' for Inactive)
REMARK    1  A    between atoms: C_1  and  C_2
REMARK    2  A    between atoms: C_2  and  N_3
REMARK    3  A    between atoms: C_5  and  C_6
REMARK    4  A    between atoms: C_7  and  C_8
REMARK    5  A    between atoms: C_8  and  N_9
REMARK    6  A    between atoms: C_12  and  O_13
REMARK    7  A    between atoms: O_13  and  C_14
REMARK    8  A    between atoms: C_14  and  C_15
REMARK    9  A    between atoms: C_24  and  C_25
REMARK                            x       y       z     vdW  Elec       q    Type
REMARK                         _______ _______ _______ _____ _____    ______ ____
ROOT
ATOM      1  N   UNL     1       3.580   2.948  17.656  0.00  0.00    +0.000 NA
ATOM      2  C   UNL     1       3.659   2.640  19.085  0.00  0.00    +0.000 C 
ATOM      3  C   UNL     1       2.329   2.750  19.825  0.00  0.00    +0.000 C 
ATOM      4  C   UNL     1       1.678   4.113  19.603  0.00  0.00    +0.000 C 
ATOM      5  C   UNL     1       1.492   4.302  18.099  0.00  0.00    +0.000 C 
ATOM      6  C   UNL     1       2.800   4.137  17.320  0.00  0.00    +0.000 C 
ENDROOT
BRANCH   1   7
ATOM      7  C   UNL     1       4.900   2.928  16.985  0.00  0.00    +0.000 C 
BRANCH   7  12
ATOM      8  N   UNL     1       6.412   6.297  16.951  0.00  0.00    +0.000 N 
ATOM      9  N   UNL     1       6.358   6.098  15.627  0.00  0.00    +0.000 NA
ATOM     10  C   UNL     1       5.820   4.885  15.491  0.00  0.00    +0.000 A 
ATOM     11  C   UNL     1       5.597   4.338  14.128  0.00  0.00    +0.000 C 
ATOM     12  C   UNL     1       5.528   4.282  16.758  0.00  0.00    +0.000 A 
ATOM     13  C   UNL     1       5.899   5.256  17.683  0.00  0.00    +0.000 A 
ATOM     14  C   UNL     1       5.833   5.285  19.167  0.00  0.00    +0.000 C 
BRANCH   8  16
ATOM     15  C   UNL     1       8.154   7.340  18.358  0.00  0.00    +0.000 C 
ATOM     16  C   UNL     1       6.971   7.550  17.430  0.00  0.00    +0.000 C 
ENDBRANCH   8  16
ENDBRANCH   7  12
ENDBRANCH   1   7
BRANCH   4  17
ATOM     17  O   UNL     1       2.479   5.140  20.210  0.00  0.00    +0.000 OA
BRANCH  17  18
ATOM     18  C   UNL     1       1.698   6.129  20.887  0.00  0.00    +0.000 C 
BRANCH  18  19
ATOM     19  C   UNL     1       1.678   7.467  20.173  0.00  0.00    +0.000 A 
ATOM     20  C   UNL     1       2.226   7.639  18.894  0.00  0.00    +0.000 A 
ATOM     21  C   UNL     1       2.112   8.866  18.229  0.00  0.00    +0.000 A 
ATOM     22  C   UNL     1       1.442   9.920  18.840  0.00  0.00    +0.000 A 
ATOM     23  F   UNL     1       1.315  11.088  18.194  0.00  0.00    +0.000 F 
ATOM     24  C   UNL     1       0.889   9.774  20.104  0.00  0.00    +0.000 A 
ATOM     25  C   UNL     1       1.001   8.548  20.768  0.00  0.00    +0.000 A 
ENDBRANCH  18  19
ENDBRANCH  17  18
ENDBRANCH   4  17
TORSDOF 6
ENDMDL
MODEL 8
REMARK VINA RESULT:      -7.0      3.323      5.845
REMARK  Name = 
REMARK  9 active torsions:
REMARK  status: ('A' for Active; 'I' for Inactive)
REMARK    1  A    between atoms: C_1  and  C_2
REMARK    2  A    between atoms: C_2  and  N_3
REMARK    3  A    between atoms: C_5  and  C_6
REMARK    4  A    between atoms: C_7  and  C_8
REMARK    5  A    between atoms: C_8  and  N_9
REMARK    6  A    between atoms: C_12  and  O_13
REMARK    7  A    between atoms: O_13  and  C_14
REMARK    8  A    between atoms: C_14  and  C_15
REMARK    9  A    between atoms: C_24  and  C_25
REMARK                            x       y       z     vdW  Elec       q    Type
REMARK                         _______ _______ _______ _____ _____    ______ ____
ROOT
ATOM      1  N   UNL     1       4.795   6.430  18.108  0.00  0.00    +0.000 NA
ATOM      2  C   UNL     1       5.399   5.188  18.592  0.00  0.00    +0.000 C 
ATOM      3  C   UNL     1       6.903   5.274  18.833  0.00  0.00    +0.000 C 
ATOM      4  C   UNL     1       7.638   5.784  17.596  0.00  0.00    +0.000 C 
ATOM      5  C   UNL     1       7.054   7.149  17.235  0.00  0.00    +0.000 C 
ATOM      6  C   UNL     1       5.536   7.108  17.046  0.00  0.00    +0.000 C 
ENDROOT
BRANCH   1   7
ATOM      7  C   UNL     1       3.354   6.288  17.791  0.00  0.00    +0.000 C 
BRANCH   7  12
ATOM      8  N   UNL     1       1.398   4.116  20.050  0.00  0.00    +0.000 N 
ATOM      9  N   UNL     1       1.237   5.271  20.708  0.00  0.00    +0.000 NA
ATOM     10  C   UNL     1       1.912   6.167  19.985  0.00  0.00    +0.000 A 
ATOM     11  C   UNL     1       1.936   7.586  20.426  0.00  0.00    +0.000 C 
ATOM     12  C   UNL     1       2.532   5.575  18.838  0.00  0.00    +0.000 A 
ATOM     13  C   UNL     1       2.139   4.239  18.901  0.00  0.00    +0.000 A 
ATOM     14  C   UNL     1       2.411   3.086  18.004  0.00  0.00    +0.000 C 
BRANCH   8  16
ATOM     15  C   UNL     1       1.520   2.395  21.817  0.00  0.00    +0.000 C 
ATOM     16  C   UNL     1       0.779   2.923  20.602  0.00  0.00    +0.000 C 
ENDBRANCH   8  16
ENDBRANCH   7  12
ENDBRANCH   1   7
BRANCH   4  17
ATOM     17  O   UNL     1       7.528   4.821  16.533  0.00  0.00    +0.000 OA
BRANCH  17  18
ATOM     18  C   UNL     1       7.565   5.418  15.234  0.00  0.00    +0.000 C 
BRANCH  18  19
ATOM     19  C   UNL     1       6.831   4.609  14.183  0.00  0.00    +0.000 A 
ATOM     20  C   UNL     1       5.506   4.187  14.356  0.00  0.00    +0.000 A 
ATOM     21  C   UNL     1       4.830   3.518  13.329  0.00  0.00    +0.000 A 
ATOM     22  C   UNL     1       5.479   3.276  12.123  0.00  0.00    +0.000 A 
ATOM     23  F   UNL     1       4.825   2.652  11.133  0.00  0.00    +0.000 F 
ATOM     24  C   UNL     1       6.790   3.686  11.926  0.00  0.00    +0.000 A 
ATOM     25  C   UNL     1       7.464   4.356  12.951  0.00  0.00    +0.000 A 
ENDBRANCH  18  19
ENDBRANCH  17  18
ENDBRANCH   4  17
TORSDOF 6
ENDMDL
MODEL 9
REMARK VINA RESULT:      -7.0      3.322      4.871
REMARK  Name = 
REMARK  9 active torsions:
REMARK  status: ('A' for Active; 'I' for Inactive)
REMARK    1  A    between atoms: C_1  and  C_2
REMARK    2  A    between atoms: C_2  and  N_3
REMARK    3  A    between atoms: C_5  and  C_6
REMARK    4  A    between atoms: C_7  and  C_8
REMARK    5  A    between atoms: C_8  and  N_9
REMARK    6  A    between atoms: C_12  and  O_13
REMARK    7  A    between atoms: O_13  and  C_14
REMARK    8  A    between atoms: C_14  and  C_15
REMARK    9  A    between atoms: C_24  and  C_25
REMARK                            x       y       z     vdW  Elec       q    Type
REMARK                         _______ _______ _______ _____ _____    ______ ____
ROOT
ATOM      1  N   UNL     1       4.788   6.237  18.229  0.00  0.00    +0.000 NA
ATOM      2  C   UNL     1       5.420   4.989  18.660  0.00  0.00    +0.000 C 
ATOM      3  C   UNL     1       6.939   5.066  18.785  0.00  0.00    +0.000 C 
ATOM      4  C   UNL     1       7.580   5.577  17.497  0.00  0.00    +0.000 C 
ATOM      5  C   UNL     1       6.978   6.947  17.188  0.00  0.00    +0.000 C 
ATOM      6  C   UNL     1       5.450   6.915  17.117  0.00  0.00    +0.000 C 
ENDROOT
BRANCH   1   7
ATOM      7  C   UNL     1       3.326   6.105  18.024  0.00  0.00    +0.000 C 
BRANCH   7  12
ATOM      8  N   UNL     1       1.271   8.326  20.141  0.00  0.00    +0.000 N 
ATOM      9  N   UNL     1       1.270   7.248  20.937  0.00  0.00    +0.000 NA
ATOM     10  C   UNL     1       1.994   6.342  20.276  0.00  0.00    +0.000 A 
ATOM     11  C   UNL     1       2.214   5.005  20.886  0.00  0.00    +0.000 C 
ATOM     12  C   UNL     1       2.466   6.843  19.021  0.00  0.00    +0.000 A 
ATOM     13  C   UNL     1       1.999   8.157  18.991  0.00  0.00    +0.000 A 
ATOM     14  C   UNL     1       2.158   9.238  17.985  0.00  0.00    +0.000 C 
BRANCH   8  16
ATOM     15  C   UNL     1       0.220   9.459  22.067  0.00  0.00    +0.000 C 
ATOM     16  C   UNL     1       0.543   9.502  20.585  0.00  0.00    +0.000 C 
ENDBRANCH   8  16
ENDBRANCH   7  12
ENDBRANCH   1   7
BRANCH   4  17
ATOM     17  O   UNL     1       7.383   4.620  16.442  0.00  0.00    +0.000 OA
BRANCH  17  18
ATOM     18  C   UNL     1       7.538   5.188  15.139  0.00  0.00    +0.000 C 
BRANCH  18  19
ATOM     19  C   UNL     1       6.761   4.448  14.068  0.00  0.00    +0.000 A 
ATOM     20  C   UNL     1       5.417   4.087  14.235  0.00  0.00    +0.000 A 
ATOM     21  C   UNL     1       4.706   3.483  13.191  0.00  0.00    +0.000 A 
ATOM     22  C   UNL     1       5.338   3.245  11.975  0.00  0.00    +0.000 A 
ATOM     23  F   UNL     1       4.651   2.684  10.970  0.00  0.00    +0.000 F 
ATOM     24  C   UNL     1       6.667   3.595  11.784  0.00  0.00    +0.000 A 
ATOM     25  C   UNL     1       7.377   4.200  12.826  0.00  0.00    +0.000 A 
ENDBRANCH  18  19
ENDBRANCH  17  18
ENDBRANCH   4  17
TORSDOF 6
ENDMDL
