MODEL 1
REMARK VINA RESULT:      -7.8      0.000      0.000
REMARK  Name = 
REMARK  8 active torsions:
REMARK  status: ('A' for Active; 'I' for Inactive)
REMARK    1  A    between atoms: C_1  and  C_2
REMARK    2  A    between atoms: C_7  and  C_8
REMARK    3  A    between atoms: C_9  and  C_10
REMARK    4  A    between atoms: N_19  and  C_20
REMARK    5  A    between atoms: C_20  and  C_21
REMARK    6  A    between atoms: C_21  and  N_22
REMARK    7  A    between atoms: N_22  and  C_23
REMARK    8  A    between atoms: N_22  and  C_24
REMARK                            x       y       z     vdW  Elec       q    Type
REMARK                         _______ _______ _______ _____ _____    ______ ____
ROOT
ATOM      1  C   UNL     1       6.751   3.896  14.238  0.00  0.00    +0.000 C 
ATOM      2  C   UNL     1       5.949   4.725  15.196  0.00  0.00    +0.000 A 
ATOM      3  C   UNL     1       5.536   6.015  14.878  0.00  0.00    +0.000 A 
ATOM      4  C   UNL     1       4.755   6.743  15.783  0.00  0.00    +0.000 A 
ATOM      5  C   UNL     1       4.366   6.220  17.011  0.00  0.00    +0.000 A 
ATOM      6  N   UNL     1       3.616   6.975  17.812  0.00  0.00    +0.000 NA
ATOM      7  C   UNL     1       3.268   6.440  18.987  0.00  0.00    +0.000 A 
ATOM      8  N   UNL     1       3.581   5.211  19.418  0.00  0.00    +0.000 NA
ATOM      9  C   UNL     1       4.338   4.451  18.603  0.00  0.00    +0.000 A 
ATOM     10  N   UNL     1       4.798   3.205  19.083  0.00  0.00    +0.000 N 
ATOM     11  C   UNL     1       4.778   4.923  17.351  0.00  0.00    +0.000 A 
ATOM     12  C   UNL     1       5.567   4.186  16.427  0.00  0.00    +0.000 A 
ATOM     13  H   UNL     1       4.881   2.538  18.314  0.00  0.00    +0.000 HD
ENDROOT
BRANCH   7  14
ATOM     14  C   UNL     1       2.419   7.254  19.848  0.00  0.00    +0.000 C 
ATOM     15  C   UNL     1       1.888   8.421  19.451  0.00  0.00    +0.000 C 
BRANCH  15  16
ATOM     16  C   UNL     1       0.961   9.220  20.269  0.00  0.00    +0.000 A 
ATOM     17  C   UNL     1       0.184  10.254  19.730  0.00  0.00    +0.000 A 
ATOM     18  C   UNL     1      -0.658  11.018  20.545  0.00  0.00    +0.000 A 
ATOM     19  C   UNL     1      -0.744  10.740  21.906  0.00  0.00    +0.000 A 
ATOM     20  I   UNL     1      -1.961  11.902  23.124  0.00  0.00    +0.000 I 
ATOM     21  C   UNL     1      -0.012   9.688  22.453  0.00  0.00    +0.000 A 
ATOM     22  C   UNL     1       0.833   8.929  21.635  0.00  0.00    +0.000 A 
ENDBRANCH  15  16
ENDBRANCH   7  14
BRANCH  10  23
ATOM     23  C   UNL     1       3.957   2.569  20.101  0.00  0.00    +0.000 C 
BRANCH  23  24
ATOM     24  C   UNL     1       2.818   1.781  19.406  0.00  0.00    +0.000 C 
BRANCH  24  25
ATOM     25  N   UNL     1       1.452   2.160  19.858  0.00  0.00    +0.000 NA
ATOM     26  C   UNL     1       1.487   2.855  21.151  0.00  0.00    +0.000 C 
ATOM     27  C   UNL     1       0.834   3.041  18.858  0.00  0.00    +0.000 C 
ENDBRANCH  24  25
ENDBRANCH  23  24
ENDBRANCH  10  23
TORSDOF 5
ENDMDL
MODEL 2
REMARK VINA RESULT:      -7.5      4.611      5.848
REMARK  Name = 
REMARK  8 active torsions:
REMARK  status: ('A' for Active; 'I' for Inactive)
REMARK    1  A    between atoms: C_1  and  C_2
REMARK    2  A    between atoms: C_7  and  C_8
REMARK    3  A    between atoms: C_9  and  C_10
REMARK    4  A    between atoms: N_19  and  C_20
REMARK    5  A    between atoms: C_20  and  C_21
REMARK    6  A    between atoms: C_21  and  N_22
REMARK    7  A    between atoms: N_22  and  C_23
REMARK    8  A    between atoms: N_22  and  C_24
REMARK                            x       y       z     vdW  Elec       q    Type
REMARK                         _______ _______ _______ _____ _____    ______ ____
ROOT
ATOM      1  C   UNL     1       5.686   2.511  12.411  0.00  0.00    +0.000 C 
ATOM      2  C   UNL     1       6.234   3.553  13.339  0.00  0.00    +0.000 A 
ATOM      3  C   UNL     1       7.101   4.547  12.893  0.00  0.00    +0.000 A 
ATOM      4  C   UNL     1       7.560   5.525  13.782  0.00  0.00    +0.000 A 
ATOM      5  C   UNL     1       7.179   5.546  15.119  0.00  0.00    +0.000 A 
ATOM      6  N   UNL     1       7.655   6.516  15.898  0.00  0.00    +0.000 NA
ATOM      7  C   UNL     1       7.272   6.500  17.178  0.00  0.00    +0.000 A 
ATOM      8  N   UNL     1       6.437   5.616  17.740  0.00  0.00    +0.000 NA
ATOM      9  C   UNL     1       5.956   4.639  16.947  0.00  0.00    +0.000 A 
ATOM     10  N   UNL     1       5.183   3.615  17.538  0.00  0.00    +0.000 N 
ATOM     11  C   UNL     1       6.311   4.549  15.588  0.00  0.00    +0.000 A 
ATOM     12  C   UNL     1       5.844   3.560  14.680  0.00  0.00    +0.000 A 
ATOM     13  H   UNL     1       4.486   3.271  16.875  0.00  0.00    +0.000 HD
ENDROOT
BRANCH   7  14
ATOM     14  C   UNL     1       7.767   7.581  18.022  0.00  0.00    +0.000 C 
ATOM     15  C   UNL     1       8.250   8.729  17.521  0.00  0.00    +0.000 C 
BRANCH  15  16
ATOM     16  C   UNL     1       8.676   9.868  18.350  0.00  0.00    +0.000 A 
ATOM     17  C   UNL     1       9.046   9.723  19.694  0.00  0.00    +0.000 A 
ATOM     18  C   UNL     1       9.409  10.834  20.462  0.00  0.00    +0.000 A 
ATOM     19  C   UNL     1       9.423  12.101  19.884  0.00  0.00    +0.000 A 
ATOM     20  I   UNL     1       9.920  13.758  21.036  0.00  0.00    +0.000 I 
ATOM     21  C   UNL     1       9.099  12.260  18.538  0.00  0.00    +0.000 A 
ATOM     22  C   UNL     1       8.733  11.147  17.775  0.00  0.00    +0.000 A 
ENDBRANCH  15  16
ENDBRANCH   7  14
BRANCH  10  23
ATOM     23  C   UNL     1       4.455   3.992  18.754  0.00  0.00    +0.000 C 
BRANCH  23  24
ATOM     24  C   UNL     1       4.130   2.717  19.572  0.00  0.00    +0.000 C 
BRANCH  24  25
ATOM     25  N   UNL     1       2.680   2.529  19.853  0.00  0.00    +0.000 NA
ATOM     26  C   UNL     1       2.375   2.748  21.272  0.00  0.00    +0.000 C 
ATOM     27  C   UNL     1       1.900   3.474  19.044  0.00  0.00    +0.000 C 
ENDBRANCH  24  25
ENDBRANCH  23  24
ENDBRANCH  10  23
TORSDOF 5
ENDMDL
MODEL 3
REMARK VINA RESULT:      -7.5      4.669      9.707
REMARK  Name = 
REMARK  8 active torsions:
REMARK  status: ('A' for Active; 'I' for Inactive)
REMARK    1  A    between atoms: C_1  and  C_2
REMARK    2  A    between atoms: C_7  and  C_8
REMARK    3  A    between atoms: C_9  and  C_10
REMARK    4  A    between atoms: N_19  and  C_20
REMARK    5  A    between atoms: C_20  and  C_21
REMARK    6  A    between atoms: C_21  and  N_22
REMARK    7  A    between atoms: N_22  and  C_23
REMARK    8  A    between atoms: N_22  and  C_24
REMARK                            x       y       z     vdW  Elec       q    Type
REMARK                         _______ _______ _______ _____ _____    ______ ____
ROOT
ATOM      1  C   UNL     1      -3.312  13.332  22.936  0.00  0.00    +0.000 C 
ATOM      2  C   UNL     1      -2.300  12.515  22.192  0.00  0.00    +0.000 A 
ATOM      3  C   UNL     1      -1.251  11.876  22.847  0.00  0.00    +0.000 A 
ATOM      4  C   UNL     1      -0.349  11.089  22.122  0.00  0.00    +0.000 A 
ATOM      5  C   UNL     1      -0.459  10.916  20.747  0.00  0.00    +0.000 A 
ATOM      6  N   UNL     1       0.437  10.145  20.132  0.00  0.00    +0.000 NA
ATOM      7  C   UNL     1       0.303  10.006  18.809  0.00  0.00    +0.000 A 
ATOM      8  N   UNL     1      -0.661  10.549  18.054  0.00  0.00    +0.000 NA
ATOM      9  C   UNL     1      -1.565  11.326  18.681  0.00  0.00    +0.000 A 
ATOM     10  N   UNL     1      -2.512  12.021  17.896  0.00  0.00    +0.000 N 
ATOM     11  C   UNL     1      -1.506  11.557  20.069  0.00  0.00    +0.000 A 
ATOM     12  C   UNL     1      -2.422  12.351  20.810  0.00  0.00    +0.000 A 
ATOM     13  H   UNL     1      -3.389  12.126  18.410  0.00  0.00    +0.000 HD
ENDROOT
BRANCH   7  14
ATOM     14  C   UNL     1       1.263   9.136  18.143  0.00  0.00    +0.000 C 
ATOM     15  C   UNL     1       1.858   8.104  18.761  0.00  0.00    +0.000 C 
BRANCH  15  16
ATOM     16  C   UNL     1       2.765   7.159  18.090  0.00  0.00    +0.000 A 
ATOM     17  C   UNL     1       2.573   5.772  18.136  0.00  0.00    +0.000 A 
ATOM     18  C   UNL     1       3.477   4.902  17.518  0.00  0.00    +0.000 A 
ATOM     19  C   UNL     1       4.574   5.416  16.831  0.00  0.00    +0.000 A 
ATOM     20  I   UNL     1       5.942   4.122  15.951  0.00  0.00    +0.000 I 
ATOM     21  C   UNL     1       4.760   6.793  16.739  0.00  0.00    +0.000 A 
ATOM     22  C   UNL     1       3.855   7.660  17.362  0.00  0.00    +0.000 A 
ENDBRANCH  15  16
ENDBRANCH   7  14
BRANCH  10  23
ATOM     23  C   UNL     1      -2.850  11.399  16.612  0.00  0.00    +0.000 C 
BRANCH  23  24
ATOM     24  C   UNL     1      -4.387  11.229  16.515  0.00  0.00    +0.000 C 
BRANCH  24  25
ATOM     25  N   UNL     1      -5.139  11.845  17.642  0.00  0.00    +0.000 NA
ATOM     26  C   UNL     1      -6.172  12.769  17.158  0.00  0.00    +0.000 C 
ATOM     27  C   UNL     1      -5.776  10.789  18.439  0.00  0.00    +0.000 C 
ENDBRANCH  24  25
ENDBRANCH  23  24
ENDBRANCH  10  23
TORSDOF 5
ENDMDL
MODEL 4
REMARK VINA RESULT:      -7.4      4.500      5.867
REMARK  Name = 
REMARK  8 active torsions:
REMARK  status: ('A' for Active; 'I' for Inactive)
REMARK    1  A    between atoms: C_1  and  C_2
REMARK    2  A    between atoms: C_7  and  C_8
REMARK    3  A    between atoms: C_9  and  C_10
REMARK    4  A    between atoms: N_19  and  C_20
REMARK    5  A    between atoms: C_20  and  C_21
REMARK    6  A    between atoms: C_21  and  N_22
REMARK    7  A    between atoms: N_22  and  C_23
REMARK    8  A    between atoms: N_22  and  C_24
REMARK                            x       y       z     vdW  Elec       q    Type
REMARK                         _______ _______ _______ _____ _____    ______ ____
ROOT
ATOM      1  C   UNL     1       5.442   2.531  11.956  0.00  0.00    +0.000 C 
ATOM      2  C   UNL     1       6.017   3.507  12.937  0.00  0.00    +0.000 A 
ATOM      3  C   UNL     1       7.181   4.219  12.664  0.00  0.00    +0.000 A 
ATOM      4  C   UNL     1       7.665   5.150  13.588  0.00  0.00    +0.000 A 
ATOM      5  C   UNL     1       7.019   5.399  14.794  0.00  0.00    +0.000 A 
ATOM      6  N   UNL     1       7.542   6.307  15.617  0.00  0.00    +0.000 NA
ATOM      7  C   UNL     1       6.896   6.515  16.769  0.00  0.00    +0.000 A 
ATOM      8  N   UNL     1       5.763   5.915  17.158  0.00  0.00    +0.000 NA
ATOM      9  C   UNL     1       5.239   4.999  16.320  0.00  0.00    +0.000 A 
ATOM     10  N   UNL     1       4.123   4.251  16.758  0.00  0.00    +0.000 N 
ATOM     11  C   UNL     1       5.848   4.687  15.090  0.00  0.00    +0.000 A 
ATOM     12  C   UNL     1       5.358   3.745  14.145  0.00  0.00    +0.000 A 
ATOM     13  H   UNL     1       3.524   4.012  15.966  0.00  0.00    +0.000 HD
ENDROOT
BRANCH   7  14
ATOM     14  C   UNL     1       7.450   7.533  17.653  0.00  0.00    +0.000 C 
ATOM     15  C   UNL     1       7.972   8.683  17.199  0.00  0.00    +0.000 C 
BRANCH  15  16
ATOM     16  C   UNL     1       8.459   9.763  18.072  0.00  0.00    +0.000 A 
ATOM     17  C   UNL     1       8.357  11.116  17.722  0.00  0.00    +0.000 A 
ATOM     18  C   UNL     1       8.865  12.114  18.560  0.00  0.00    +0.000 A 
ATOM     19  C   UNL     1       9.466  11.766  19.767  0.00  0.00    +0.000 A 
ATOM     20  I   UNL     1      10.262  13.245  20.991  0.00  0.00    +0.000 I 
ATOM     21  C   UNL     1       9.540  10.429  20.152  0.00  0.00    +0.000 A 
ATOM     22  C   UNL     1       9.034   9.433  19.309  0.00  0.00    +0.000 A 
ENDBRANCH  15  16
ENDBRANCH   7  14
BRANCH  10  23
ATOM     23  C   UNL     1       3.265   4.913  17.747  0.00  0.00    +0.000 C 
BRANCH  23  24
ATOM     24  C   UNL     1       2.898   3.903  18.863  0.00  0.00    +0.000 C 
BRANCH  24  25
ATOM     25  N   UNL     1       1.435   3.756  19.092  0.00  0.00    +0.000 NA
ATOM     26  C   UNL     1       0.965   2.414  18.728  0.00  0.00    +0.000 C 
ATOM     27  C   UNL     1       1.135   4.001  20.508  0.00  0.00    +0.000 C 
ENDBRANCH  24  25
ENDBRANCH  23  24
ENDBRANCH  10  23
TORSDOF 5
ENDMDL
MODEL 5
REMARK VINA RESULT:      -7.4      4.511      5.918
REMARK  Name = 
REMARK  8 active torsions:
REMARK  status: ('A' for Active; 'I' for Inactive)
REMARK    1  A    between atoms: C_1  and  C_2
REMARK    2  A    between atoms: C_7  and  C_8
REMARK    3  A    between atoms: C_9  and  C_10
REMARK    4  A    between atoms: N_19  and  C_20
REMARK    5  A    between atoms: C_20  and  C_21
REMARK    6  A    between atoms: C_21  and  N_22
REMARK    7  A    between atoms: N_22  and  C_23
REMARK    8  A    between atoms: N_22  and  C_24
REMARK                            x       y       z     vdW  Elec       q    Type
REMARK                         _______ _______ _______ _____ _____    ______ ____
ROOT
ATOM      1  C   UNL     1       5.458   2.669  12.028  0.00  0.00    +0.000 C 
ATOM      2  C   UNL     1       6.013   3.654  13.012  0.00  0.00    +0.000 A 
ATOM      3  C   UNL     1       7.161   4.393  12.738  0.00  0.00    +0.000 A 
ATOM      4  C   UNL     1       7.627   5.332  13.665  0.00  0.00    +0.000 A 
ATOM      5  C   UNL     1       6.979   5.562  14.873  0.00  0.00    +0.000 A 
ATOM      6  N   UNL     1       7.483   6.479  15.698  0.00  0.00    +0.000 NA
ATOM      7  C   UNL     1       6.836   6.668  16.852  0.00  0.00    +0.000 A 
ATOM      8  N   UNL     1       5.717   6.042  17.241  0.00  0.00    +0.000 NA
ATOM      9  C   UNL     1       5.211   5.117  16.402  0.00  0.00    +0.000 A 
ATOM     10  N   UNL     1       4.113   4.344  16.840  0.00  0.00    +0.000 N 
ATOM     11  C   UNL     1       5.824   4.823  15.169  0.00  0.00    +0.000 A 
ATOM     12  C   UNL     1       5.352   3.874  14.222  0.00  0.00    +0.000 A 
ATOM     13  H   UNL     1       3.518   4.094  16.048  0.00  0.00    +0.000 HD
ENDROOT
BRANCH   7  14
ATOM     14  C   UNL     1       7.369   7.695  17.738  0.00  0.00    +0.000 C 
ATOM     15  C   UNL     1       8.105   8.726  17.295  0.00  0.00    +0.000 C 
BRANCH  15  16
ATOM     16  C   UNL     1       8.583   9.821  18.155  0.00  0.00    +0.000 A 
ATOM     17  C   UNL     1       9.142   9.593  19.420  0.00  0.00    +0.000 A 
ATOM     18  C   UNL     1       9.551  10.660  20.226  0.00  0.00    +0.000 A 
ATOM     19  C   UNL     1       9.421  11.967  19.764  0.00  0.00    +0.000 A 
ATOM     20  I   UNL     1       9.987  13.555  20.979  0.00  0.00    +0.000 I 
ATOM     21  C   UNL     1       8.906  12.212  18.492  0.00  0.00    +0.000 A 
ATOM     22  C   UNL     1       8.495  11.142  17.691  0.00  0.00    +0.000 A 
ENDBRANCH  15  16
ENDBRANCH   7  14
BRANCH  10  23
ATOM     23  C   UNL     1       3.243   4.983  17.833  0.00  0.00    +0.000 C 
BRANCH  23  24
ATOM     24  C   UNL     1       1.970   4.122  18.028  0.00  0.00    +0.000 C 
BRANCH  24  25
ATOM     25  N   UNL     1       2.071   3.130  19.133  0.00  0.00    +0.000 NA
ATOM     26  C   UNL     1       0.759   2.858  19.733  0.00  0.00    +0.000 C 
ATOM     27  C   UNL     1       2.630   1.876  18.615  0.00  0.00    +0.000 C 
ENDBRANCH  24  25
ENDBRANCH  23  24
ENDBRANCH  10  23
TORSDOF 5
ENDMDL
MODEL 6
REMARK VINA RESULT:      -7.3      0.316      1.184
REMARK  Name = 
REMARK  8 active torsions:
REMARK  status: ('A' for Active; 'I' for Inactive)
REMARK    1  A    between atoms: C_1  and  C_2
REMARK    2  A    between atoms: C_7  and  C_8
REMARK    3  A    between atoms: C_9  and  C_10
REMARK    4  A    between atoms: N_19  and  C_20
REMARK    5  A    between atoms: C_20  and  C_21
REMARK    6  A    between atoms: C_21  and  N_22
REMARK    7  A    between atoms: N_22  and  C_23
REMARK    8  A    between atoms: N_22  and  C_24
REMARK                            x       y       z     vdW  Elec       q    Type
REMARK                         _______ _______ _______ _____ _____    ______ ____
ROOT
ATOM      1  C   UNL     1       6.629   3.679  14.014  0.00  0.00    +0.000 C 
ATOM      2  C   UNL     1       5.910   4.545  15.003  0.00  0.00    +0.000 A 
ATOM      3  C   UNL     1       5.516   5.843  14.688  0.00  0.00    +0.000 A 
ATOM      4  C   UNL     1       4.812   6.607  15.625  0.00  0.00    +0.000 A 
ATOM      5  C   UNL     1       4.482   6.115  16.883  0.00  0.00    +0.000 A 
ATOM      6  N   UNL     1       3.804   6.904  17.714  0.00  0.00    +0.000 NA
ATOM      7  C   UNL     1       3.510   6.398  18.916  0.00  0.00    +0.000 A 
ATOM      8  N   UNL     1       3.813   5.167  19.349  0.00  0.00    +0.000 NA
ATOM      9  C   UNL     1       4.498   4.373  18.503  0.00  0.00    +0.000 A 
ATOM     10  N   UNL     1       4.949   3.121  18.976  0.00  0.00    +0.000 N 
ATOM     11  C   UNL     1       4.876   4.812  17.220  0.00  0.00    +0.000 A 
ATOM     12  C   UNL     1       5.587   4.037  16.263  0.00  0.00    +0.000 A 
ATOM     13  H   UNL     1       4.966   2.440  18.215  0.00  0.00    +0.000 HD
ENDROOT
BRANCH   7  14
ATOM     14  C   UNL     1       2.739   7.250  19.812  0.00  0.00    +0.000 C 
ATOM     15  C   UNL     1       1.972   8.260  19.372  0.00  0.00    +0.000 C 
BRANCH  15  16
ATOM     16  C   UNL     1       1.118   9.081  20.246  0.00  0.00    +0.000 A 
ATOM     17  C   UNL     1       0.832   8.722  21.570  0.00  0.00    +0.000 A 
ATOM     18  C   UNL     1      -0.015   9.506  22.359  0.00  0.00    +0.000 A 
ATOM     19  C   UNL     1      -0.570  10.670  21.834  0.00  0.00    +0.000 A 
ATOM     20  I   UNL     1      -1.864  11.812  22.992  0.00  0.00    +0.000 I 
ATOM     21  C   UNL     1      -0.266  11.066  20.534  0.00  0.00    +0.000 A 
ATOM     22  C   UNL     1       0.579  10.276  19.746  0.00  0.00    +0.000 A 
ENDBRANCH  15  16
ENDBRANCH   7  14
BRANCH  10  23
ATOM     23  C   UNL     1       4.152   2.525  20.053  0.00  0.00    +0.000 C 
BRANCH  23  24
ATOM     24  C   UNL     1       2.850   1.932  19.459  0.00  0.00    +0.000 C 
BRANCH  24  25
ATOM     25  N   UNL     1       1.638   2.761  19.704  0.00  0.00    +0.000 NA
ATOM     26  C   UNL     1       0.492   2.283  18.920  0.00  0.00    +0.000 C 
ATOM     27  C   UNL     1       1.295   2.714  21.131  0.00  0.00    +0.000 C 
ENDBRANCH  24  25
ENDBRANCH  23  24
ENDBRANCH  10  23
TORSDOF 5
ENDMDL
MODEL 7
REMARK VINA RESULT:      -7.2      1.709      4.475
REMARK  Name = 
REMARK  8 active torsions:
REMARK  status: ('A' for Active; 'I' for Inactive)
REMARK    1  A    between atoms: C_1  and  C_2
REMARK    2  A    between atoms: C_7  and  C_8
REMARK    3  A    between atoms: C_9  and  C_10
REMARK    4  A    between atoms: N_19  and  C_20
REMARK    5  A    between atoms: C_20  and  C_21
REMARK    6  A    between atoms: C_21  and  N_22
REMARK    7  A    between atoms: N_22  and  C_23
REMARK    8  A    between atoms: N_22  and  C_24
REMARK                            x       y       z     vdW  Elec       q    Type
REMARK                         _______ _______ _______ _____ _____    ______ ____
ROOT
ATOM      1  C   UNL     1       3.162   0.984  18.953  0.00  0.00    +0.000 C 
ATOM      2  C   UNL     1       2.702   2.341  19.394  0.00  0.00    +0.000 A 
ATOM      3  C   UNL     1       1.843   2.505  20.476  0.00  0.00    +0.000 A 
ATOM      4  C   UNL     1       1.468   3.791  20.882  0.00  0.00    +0.000 A 
ATOM      5  C   UNL     1       1.927   4.934  20.237  0.00  0.00    +0.000 A 
ATOM      6  N   UNL     1       1.528   6.120  20.690  0.00  0.00    +0.000 NA
ATOM      7  C   UNL     1       1.985   7.196  20.040  0.00  0.00    +0.000 A 
ATOM      8  N   UNL     1       2.824   7.188  18.996  0.00  0.00    +0.000 NA
ATOM      9  C   UNL     1       3.226   5.985  18.543  0.00  0.00    +0.000 A 
ATOM     10  N   UNL     1       4.001   5.937  17.363  0.00  0.00    +0.000 N 
ATOM     11  C   UNL     1       2.789   4.786  19.140  0.00  0.00    +0.000 A 
ATOM     12  C   UNL     1       3.171   3.479  18.734  0.00  0.00    +0.000 A 
ATOM     13  H   UNL     1       4.647   5.146  17.395  0.00  0.00    +0.000 HD
ENDROOT
BRANCH   7  14
ATOM     14  C   UNL     1       1.575   8.495  20.558  0.00  0.00    +0.000 C 
ATOM     15  C   UNL     1       0.288   8.845  20.704  0.00  0.00    +0.000 C 
BRANCH  15  16
ATOM     16  C   UNL     1      -0.153  10.115  21.303  0.00  0.00    +0.000 A 
ATOM     17  C   UNL     1      -0.021  11.343  20.641  0.00  0.00    +0.000 A 
ATOM     18  C   UNL     1      -0.416  12.536  21.256  0.00  0.00    +0.000 A 
ATOM     19  C   UNL     1      -0.965  12.507  22.535  0.00  0.00    +0.000 A 
ATOM     20  I   UNL     1      -1.510  14.282  23.467  0.00  0.00    +0.000 I 
ATOM     21  C   UNL     1      -1.142  11.292  23.193  0.00  0.00    +0.000 A 
ATOM     22  C   UNL     1      -0.742  10.101  22.576  0.00  0.00    +0.000 A 
ENDBRANCH  15  16
ENDBRANCH   7  14
BRANCH  10  23
ATOM     23  C   UNL     1       4.811   7.128  17.087  0.00  0.00    +0.000 C 
BRANCH  23  24
ATOM     24  C   UNL     1       6.302   6.720  16.982  0.00  0.00    +0.000 C 
BRANCH  24  25
ATOM     25  N   UNL     1       6.520   5.260  16.791  0.00  0.00    +0.000 NA
ATOM     26  C   UNL     1       7.014   4.962  15.441  0.00  0.00    +0.000 C 
ATOM     27  C   UNL     1       7.498   4.780  17.776  0.00  0.00    +0.000 C 
ENDBRANCH  24  25
ENDBRANCH  23  24
ENDBRANCH  10  23
TORSDOF 5
ENDMDL
MODEL 8
REMARK VINA RESULT:      -7.1      1.081      1.864
REMARK  Name = 
REMARK  8 active torsions:
REMARK  status: ('A' for Active; 'I' for Inactive)
REMARK    1  A    between atoms: C_1  and  C_2
REMARK    2  A    between atoms: C_7  and  C_8
REMARK    3  A    between atoms: C_9  and  C_10
REMARK    4  A    between atoms: N_19  and  C_20
REMARK    5  A    between atoms: C_20  and  C_21
REMARK    6  A    between atoms: C_21  and  N_22
REMARK    7  A    between atoms: N_22  and  C_23
REMARK    8  A    between atoms: N_22  and  C_24
REMARK                            x       y       z     vdW  Elec       q    Type
REMARK                         _______ _______ _______ _____ _____    ______ ____
ROOT
ATOM      1  C   UNL     1       6.214   3.844  15.731  0.00  0.00    +0.000 C 
ATOM      2  C   UNL     1       5.390   4.943  16.331  0.00  0.00    +0.000 A 
ATOM      3  C   UNL     1       5.197   6.155  15.673  0.00  0.00    +0.000 A 
ATOM      4  C   UNL     1       4.388   7.141  16.248  0.00  0.00    +0.000 A 
ATOM      5  C   UNL     1       3.757   6.959  17.474  0.00  0.00    +0.000 A 
ATOM      6  N   UNL     1       2.999   7.945  17.948  0.00  0.00    +0.000 NA
ATOM      7  C   UNL     1       2.413   7.735  19.132  0.00  0.00    +0.000 A 
ATOM      8  N   UNL     1       2.499   6.619  19.868  0.00  0.00    +0.000 NA
ATOM      9  C   UNL     1       3.267   5.624  19.381  0.00  0.00    +0.000 A 
ATOM     10  N   UNL     1       3.488   4.489  20.193  0.00  0.00    +0.000 N 
ATOM     11  C   UNL     1       3.946   5.747  18.154  0.00  0.00    +0.000 A 
ATOM     12  C   UNL     1       4.764   4.746  17.564  0.00  0.00    +0.000 A 
ATOM     13  H   UNL     1       3.599   3.656  19.613  0.00  0.00    +0.000 HD
ENDROOT
BRANCH   7  14
ATOM     14  C   UNL     1       1.556   8.801  19.634  0.00  0.00    +0.000 C 
ATOM     15  C   UNL     1       0.759   8.649  20.704  0.00  0.00    +0.000 C 
BRANCH  15  16
ATOM     16  C   UNL     1      -0.051   9.733  21.283  0.00  0.00    +0.000 A 
ATOM     17  C   UNL     1      -0.363   9.791  22.647  0.00  0.00    +0.000 A 
ATOM     18  C   UNL     1      -1.168  10.815  23.156  0.00  0.00    +0.000 A 
ATOM     19  C   UNL     1      -1.654  11.803  22.304  0.00  0.00    +0.000 A 
ATOM     20  I   UNL     1      -2.886  13.300  23.051  0.00  0.00    +0.000 I 
ATOM     21  C   UNL     1      -1.320  11.786  20.951  0.00  0.00    +0.000 A 
ATOM     22  C   UNL     1      -0.518  10.758  20.445  0.00  0.00    +0.000 A 
ENDBRANCH  15  16
ENDBRANCH   7  14
BRANCH  10  23
ATOM     23  C   UNL     1       2.430   4.188  21.163  0.00  0.00    +0.000 C 
BRANCH  23  24
ATOM     24  C   UNL     1       1.588   2.993  20.647  0.00  0.00    +0.000 C 
BRANCH  24  25
ATOM     25  N   UNL     1       1.702   2.758  19.182  0.00  0.00    +0.000 NA
ATOM     26  C   UNL     1       2.726   1.753  18.876  0.00  0.00    +0.000 C 
ATOM     27  C   UNL     1       0.408   2.298  18.660  0.00  0.00    +0.000 C 
ENDBRANCH  24  25
ENDBRANCH  23  24
ENDBRANCH  10  23
TORSDOF 5
ENDMDL
MODEL 9
REMARK VINA RESULT:      -7.1      5.077      7.442
REMARK  Name = 
REMARK  8 active torsions:
REMARK  status: ('A' for Active; 'I' for Inactive)
REMARK    1  A    between atoms: C_1  and  C_2
REMARK    2  A    between atoms: C_7  and  C_8
REMARK    3  A    between atoms: C_9  and  C_10
REMARK    4  A    between atoms: N_19  and  C_20
REMARK    5  A    between atoms: C_20  and  C_21
REMARK    6  A    between atoms: C_21  and  N_22
REMARK    7  A    between atoms: N_22  and  C_23
REMARK    8  A    between atoms: N_22  and  C_24
REMARK                            x       y       z     vdW  Elec       q    Type
REMARK                         _______ _______ _______ _____ _____    ______ ____
ROOT
ATOM      1  C   UNL     1       2.313   2.224  17.889  0.00  0.00    +0.000 C 
ATOM      2  C   UNL     1       3.214   3.421  17.931  0.00  0.00    +0.000 A 
ATOM      3  C   UNL     1       3.238   4.279  19.027  0.00  0.00    +0.000 A 
ATOM      4  C   UNL     1       4.121   5.364  19.047  0.00  0.00    +0.000 A 
ATOM      5  C   UNL     1       4.992   5.628  17.995  0.00  0.00    +0.000 A 
ATOM      6  N   UNL     1       5.806   6.677  18.095  0.00  0.00    +0.000 NA
ATOM      7  C   UNL     1       6.624   6.902  17.062  0.00  0.00    +0.000 A 
ATOM      8  N   UNL     1       6.718   6.156  15.953  0.00  0.00    +0.000 NA
ATOM      9  C   UNL     1       5.893   5.095  15.859  0.00  0.00    +0.000 A 
ATOM     10  N   UNL     1       5.871   4.368  14.648  0.00  0.00    +0.000 N 
ATOM     11  C   UNL     1       4.977   4.778  16.880  0.00  0.00    +0.000 A 
ATOM     12  C   UNL     1       4.082   3.674  16.867  0.00  0.00    +0.000 A 
ATOM     13  H   UNL     1       5.666   3.384  14.829  0.00  0.00    +0.000 HD
ENDROOT
BRANCH   7  14
ATOM     14  C   UNL     1       7.538   8.031  17.187  0.00  0.00    +0.000 C 
ATOM     15  C   UNL     1       7.630   8.770  18.303  0.00  0.00    +0.000 C 
BRANCH  15  16
ATOM     16  C   UNL     1       8.602   9.861  18.485  0.00  0.00    +0.000 A 
ATOM     17  C   UNL     1       9.480   9.909  19.576  0.00  0.00    +0.000 A 
ATOM     18  C   UNL     1      10.365  10.980  19.738  0.00  0.00    +0.000 A 
ATOM     19  C   UNL     1      10.391  12.005  18.797  0.00  0.00    +0.000 A 
ATOM     20  I   UNL     1      11.674  13.619  19.060  0.00  0.00    +0.000 I 
ATOM     21  C   UNL     1       9.555  11.955  17.683  0.00  0.00    +0.000 A 
ATOM     22  C   UNL     1       8.669  10.883  17.527  0.00  0.00    +0.000 A 
ENDBRANCH  15  16
ENDBRANCH   7  14
BRANCH  10  23
ATOM     23  C   UNL     1       7.111   4.401  13.866  0.00  0.00    +0.000 C 
BRANCH  23  24
ATOM     24  C   UNL     1       6.802   4.011  12.398  0.00  0.00    +0.000 C 
BRANCH  24  25
ATOM     25  N   UNL     1       5.794   2.925  12.259  0.00  0.00    +0.000 NA
ATOM     26  C   UNL     1       4.594   3.391  11.554  0.00  0.00    +0.000 C 
ATOM     27  C   UNL     1       6.383   1.805  11.513  0.00  0.00    +0.000 C 
ENDBRANCH  24  25
ENDBRANCH  23  24
ENDBRANCH  10  23
TORSDOF 5
ENDMDL
