MODEL 1
REMARK VINA RESULT:      -8.6      0.000      0.000
REMARK  Name = 
REMARK  2 active torsions:
REMARK  status: ('A' for Active; 'I' for Inactive)
REMARK    1  A    between atoms: C_1  and  C_2
REMARK    2  A    between atoms: C_8  and  C_9
REMARK                            x       y       z     vdW  Elec       q    Type
REMARK                         _______ _______ _______ _____ _____    ______ ____
ROOT
ATOM      1  C   UNL     1       2.265   2.960  21.639  0.00  0.00    +0.000 C 
ATOM      2  C   UNL     1       2.600   3.912  20.519  0.00  0.00    +0.000 A 
ATOM      3  C   UNL     1       2.042   5.259  20.673  0.00  0.00    +0.000 A 
ATOM      4  C   UNL     1       2.274   6.183  19.738  0.00  0.00    +0.000 A 
ATOM      5  N   UNL     1       3.036   5.878  18.629  0.00  0.00    +0.000 N 
ATOM      6  C   UNL     1       3.605   4.653  18.390  0.00  0.00    +0.000 A 
ATOM      7  O   UNL     1       4.279   4.435  17.382  0.00  0.00    +0.000 OA
ATOM      8  C   UNL     1       3.357   3.587  19.435  0.00  0.00    +0.000 A 
ATOM      9  C   UNL     1       3.166   7.028  17.732  0.00  0.00    +0.000 C 
ATOM     10  C   UNL     1       2.381   8.081  18.443  0.00  0.00    +0.000 A 
ATOM     11  C   UNL     1       2.132   9.390  18.097  0.00  0.00    +0.000 A 
ATOM     12  C   UNL     1       1.351  10.159  18.966  0.00  0.00    +0.000 A 
ATOM     13  C   UNL     1       1.062  11.501  18.665  0.00  0.00    +0.000 A 
ATOM     14  C   UNL     1       0.284  12.267  19.528  0.00  0.00    +0.000 A 
ATOM     15  C   UNL     1      -0.210  11.694  20.695  0.00  0.00    +0.000 A 
ATOM     16  C   UNL     1       0.077  10.356  20.997  0.00  0.00    +0.000 A 
ATOM     17  C   UNL     1       0.850   9.561  20.160  0.00  0.00    +0.000 A 
ATOM     18  N   UNL     1       1.099   8.272  20.497  0.00  0.00    +0.000 NA
ATOM     19  C   UNL     1       1.853   7.582  19.629  0.00  0.00    +0.000 A 
ENDROOT
BRANCH   8  20
ATOM     20  C   UNL     1       3.933   2.206  19.273  0.00  0.00    +0.000 C 
ATOM     21  N   UNL     1       5.085   1.934  19.942  0.00  0.00    +0.000 N 
ATOM     22  O   UNL     1       3.432   1.324  18.583  0.00  0.00    +0.000 OA
ATOM     23  H   UNL     1       5.545   2.627  20.529  0.00  0.00    +0.000 HD
ATOM     24  H   UNL     1       5.494   1.015  19.852  0.00  0.00    +0.000 HD
ENDBRANCH   8  20
TORSDOF 1
ENDMDL
MODEL 2
REMARK VINA RESULT:      -8.2      1.211      1.621
REMARK  Name = 
REMARK  2 active torsions:
REMARK  status: ('A' for Active; 'I' for Inactive)
REMARK    1  A    between atoms: C_1  and  C_2
REMARK    2  A    between atoms: C_8  and  C_9
REMARK                            x       y       z     vdW  Elec       q    Type
REMARK                         _______ _______ _______ _____ _____    ______ ____
ROOT
ATOM      1  C   UNL     1       2.501   3.062  21.304  0.00  0.00    +0.000 C 
ATOM      2  C   UNL     1       2.552   4.306  20.455  0.00  0.00    +0.000 A 
ATOM      3  C   UNL     1       1.851   5.463  21.020  0.00  0.00    +0.000 A 
ATOM      4  C   UNL     1       1.831   6.618  20.350  0.00  0.00    +0.000 A 
ATOM      5  N   UNL     1       2.467   6.729  19.131  0.00  0.00    +0.000 N 
ATOM      6  C   UNL     1       3.152   5.711  18.516  0.00  0.00    +0.000 A 
ATOM      7  O   UNL     1       3.704   5.866  17.426  0.00  0.00    +0.000 OA
ATOM      8  C   UNL     1       3.190   4.391  19.255  0.00  0.00    +0.000 A 
ATOM      9  C   UNL     1       2.323   8.073  18.569  0.00  0.00    +0.000 C 
ATOM     10  C   UNL     1       1.513   8.772  19.610  0.00  0.00    +0.000 A 
ATOM     11  C   UNL     1       1.052  10.068  19.656  0.00  0.00    +0.000 A 
ATOM     12  C   UNL     1       0.303  10.458  20.772  0.00  0.00    +0.000 A 
ATOM     13  C   UNL     1      -0.195  11.768  20.873  0.00  0.00    +0.000 A 
ATOM     14  C   UNL     1      -0.941  12.156  21.983  0.00  0.00    +0.000 A 
ATOM     15  C   UNL     1      -1.192  11.236  22.995  0.00  0.00    +0.000 A 
ATOM     16  C   UNL     1      -0.695   9.929  22.896  0.00  0.00    +0.000 A 
ATOM     17  C   UNL     1       0.053   9.506  21.804  0.00  0.00    +0.000 A 
ATOM     18  N   UNL     1       0.510   8.231  21.755  0.00  0.00    +0.000 NA
ATOM     19  C   UNL     1       1.221   7.912  20.664  0.00  0.00    +0.000 A 
ENDROOT
BRANCH   8  20
ATOM     20  C   UNL     1       3.912   3.206  18.671  0.00  0.00    +0.000 C 
ATOM     21  N   UNL     1       5.265   3.184  18.798  0.00  0.00    +0.000 N 
ATOM     22  O   UNL     1       3.360   2.274  18.095  0.00  0.00    +0.000 OA
ATOM     23  H   UNL     1       5.777   3.930  19.266  0.00  0.00    +0.000 HD
ATOM     24  H   UNL     1       5.776   2.401  18.417  0.00  0.00    +0.000 HD
ENDBRANCH   8  20
TORSDOF 1
ENDMDL
MODEL 3
REMARK VINA RESULT:      -8.1      4.747      6.808
REMARK  Name = 
REMARK  2 active torsions:
REMARK  status: ('A' for Active; 'I' for Inactive)
REMARK    1  A    between atoms: C_1  and  C_2
REMARK    2  A    between atoms: C_8  and  C_9
REMARK                            x       y       z     vdW  Elec       q    Type
REMARK                         _______ _______ _______ _____ _____    ______ ____
ROOT
ATOM      1  C   UNL     1       5.614   3.312  12.501  0.00  0.00    +0.000 C 
ATOM      2  C   UNL     1       5.833   4.016  13.816  0.00  0.00    +0.000 A 
ATOM      3  C   UNL     1       4.866   3.672  14.863  0.00  0.00    +0.000 A 
ATOM      4  C   UNL     1       4.965   4.240  16.068  0.00  0.00    +0.000 A 
ATOM      5  N   UNL     1       5.971   5.145  16.333  0.00  0.00    +0.000 N 
ATOM      6  C   UNL     1       6.926   5.534  15.427  0.00  0.00    +0.000 A 
ATOM      7  O   UNL     1       7.804   6.347  15.717  0.00  0.00    +0.000 OA
ATOM      8  C   UNL     1       6.836   4.905  14.053  0.00  0.00    +0.000 A 
ATOM      9  C   UNL     1       5.897   5.646  17.707  0.00  0.00    +0.000 C 
ATOM     10  C   UNL     1       4.709   4.921  18.250  0.00  0.00    +0.000 A 
ATOM     11  C   UNL     1       4.134   4.969  19.499  0.00  0.00    +0.000 A 
ATOM     12  C   UNL     1       3.008   4.171  19.732  0.00  0.00    +0.000 A 
ATOM     13  C   UNL     1       2.377   4.179  20.987  0.00  0.00    +0.000 A 
ATOM     14  C   UNL     1       1.257   3.385  21.220  0.00  0.00    +0.000 A 
ATOM     15  C   UNL     1       0.763   2.582  20.198  0.00  0.00    +0.000 A 
ATOM     16  C   UNL     1       1.392   2.572  18.946  0.00  0.00    +0.000 A 
ATOM     17  C   UNL     1       2.511   3.350  18.676  0.00  0.00    +0.000 A 
ATOM     18  N   UNL     1       3.083   3.305  17.448  0.00  0.00    +0.000 NA
ATOM     19  C   UNL     1       4.157   4.090  17.281  0.00  0.00    +0.000 A 
ENDROOT
BRANCH   8  20
ATOM     20  C   UNL     1       7.832   5.261  12.982  0.00  0.00    +0.000 C 
ATOM     21  N   UNL     1       8.937   5.950  13.370  0.00  0.00    +0.000 N 
ATOM     22  O   UNL     1       7.706   4.970  11.797  0.00  0.00    +0.000 OA
ATOM     23  H   UNL     1       9.094   6.218  14.339  0.00  0.00    +0.000 HD
ATOM     24  H   UNL     1       9.623   6.202  12.672  0.00  0.00    +0.000 HD
ENDBRANCH   8  20
TORSDOF 1
ENDMDL
MODEL 4
REMARK VINA RESULT:      -8.0      3.118      7.133
REMARK  Name = 
REMARK  2 active torsions:
REMARK  status: ('A' for Active; 'I' for Inactive)
REMARK    1  A    between atoms: C_1  and  C_2
REMARK    2  A    between atoms: C_8  and  C_9
REMARK                            x       y       z     vdW  Elec       q    Type
REMARK                         _______ _______ _______ _____ _____    ______ ____
ROOT
ATOM      1  C   UNL     1      -0.306   9.761  23.180  0.00  0.00    +0.000 C 
ATOM      2  C   UNL     1       0.306   9.641  21.807  0.00  0.00    +0.000 A 
ATOM      3  C   UNL     1       0.867   8.323  21.498  0.00  0.00    +0.000 A 
ATOM      4  C   UNL     1       1.436   8.106  20.310  0.00  0.00    +0.000 A 
ATOM      5  N   UNL     1       1.496   9.115  19.371  0.00  0.00    +0.000 N 
ATOM      6  C   UNL     1       1.001  10.381  19.557  0.00  0.00    +0.000 A 
ATOM      7  O   UNL     1       1.082  11.245  18.683  0.00  0.00    +0.000 OA
ATOM      8  C   UNL     1       0.351  10.653  20.896  0.00  0.00    +0.000 A 
ATOM      9  C   UNL     1       2.158   8.669  18.144  0.00  0.00    +0.000 C 
ATOM     10  C   UNL     1       2.493   7.247  18.456  0.00  0.00    +0.000 A 
ATOM     11  C   UNL     1       3.125   6.294  17.691  0.00  0.00    +0.000 A 
ATOM     12  C   UNL     1       3.309   5.024  18.249  0.00  0.00    +0.000 A 
ATOM     13  C   UNL     1       3.949   4.010  17.516  0.00  0.00    +0.000 A 
ATOM     14  C   UNL     1       4.134   2.747  18.071  0.00  0.00    +0.000 A 
ATOM     15  C   UNL     1       3.681   2.492  19.360  0.00  0.00    +0.000 A 
ATOM     16  C   UNL     1       3.041   3.502  20.092  0.00  0.00    +0.000 A 
ATOM     17  C   UNL     1       2.839   4.774  19.572  0.00  0.00    +0.000 A 
ATOM     18  N   UNL     1       2.216   5.717  20.321  0.00  0.00    +0.000 NA
ATOM     19  C   UNL     1       2.066   6.914  19.738  0.00  0.00    +0.000 A 
ENDROOT
BRANCH   8  20
ATOM     20  C   UNL     1      -0.225  12.008  21.208  0.00  0.00    +0.000 C 
ATOM     21  N   UNL     1      -1.371  12.355  20.565  0.00  0.00    +0.000 N 
ATOM     22  O   UNL     1       0.272  12.807  21.995  0.00  0.00    +0.000 OA
ATOM     23  H   UNL     1      -1.828  11.732  19.901  0.00  0.00    +0.000 HD
ATOM     24  H   UNL     1      -1.781  13.258  20.755  0.00  0.00    +0.000 HD
ENDBRANCH   8  20
TORSDOF 1
ENDMDL
MODEL 5
REMARK VINA RESULT:      -7.9      3.393      7.142
REMARK  Name = 
REMARK  2 active torsions:
REMARK  status: ('A' for Active; 'I' for Inactive)
REMARK    1  A    between atoms: C_1  and  C_2
REMARK    2  A    between atoms: C_8  and  C_9
REMARK                            x       y       z     vdW  Elec       q    Type
REMARK                         _______ _______ _______ _____ _____    ______ ____
ROOT
ATOM      1  C   UNL     1      -0.499   9.737  23.221  0.00  0.00    +0.000 C 
ATOM      2  C   UNL     1       0.055   9.835  21.822  0.00  0.00    +0.000 A 
ATOM      3  C   UNL     1       0.829   8.669  21.386  0.00  0.00    +0.000 A 
ATOM      4  C   UNL     1       1.367   8.650  20.164  0.00  0.00    +0.000 A 
ATOM      5  N   UNL     1       1.197   9.720  19.310  0.00  0.00    +0.000 N 
ATOM      6  C   UNL     1       0.491  10.856  19.618  0.00  0.00    +0.000 A 
ATOM      7  O   UNL     1       0.370  11.782  18.815  0.00  0.00    +0.000 OA
ATOM      8  C   UNL     1      -0.129  10.902  20.997  0.00  0.00    +0.000 A 
ATOM      9  C   UNL     1       1.866   9.497  18.027  0.00  0.00    +0.000 C 
ATOM     10  C   UNL     1       2.467   8.141  18.209  0.00  0.00    +0.000 A 
ATOM     11  C   UNL     1       3.222   7.380  17.346  0.00  0.00    +0.000 A 
ATOM     12  C   UNL     1       3.660   6.128  17.790  0.00  0.00    +0.000 A 
ATOM     13  C   UNL     1       4.435   5.307  16.953  0.00  0.00    +0.000 A 
ATOM     14  C   UNL     1       4.873   4.062  17.395  0.00  0.00    +0.000 A 
ATOM     15  C   UNL     1       4.538   3.632  18.674  0.00  0.00    +0.000 A 
ATOM     16  C   UNL     1       3.765   4.449  19.509  0.00  0.00    +0.000 A 
ATOM     17  C   UNL     1       3.310   5.698  19.104  0.00  0.00    +0.000 A 
ATOM     18  N   UNL     1       2.566   6.451  19.950  0.00  0.00    +0.000 NA
ATOM     19  C   UNL     1       2.173   7.641  19.473  0.00  0.00    +0.000 A 
ENDROOT
BRANCH   8  20
ATOM     20  C   UNL     1      -0.924  12.102  21.440  0.00  0.00    +0.000 C 
ATOM     21  N   UNL     1      -0.226  13.227  21.744  0.00  0.00    +0.000 N 
ATOM     22  O   UNL     1      -2.146  12.123  21.540  0.00  0.00    +0.000 OA
ATOM     23  H   UNL     1       0.790  13.268  21.679  0.00  0.00    +0.000 HD
ATOM     24  H   UNL     1      -0.733  14.048  22.044  0.00  0.00    +0.000 HD
ENDBRANCH   8  20
TORSDOF 1
ENDMDL
MODEL 6
REMARK VINA RESULT:      -7.8      1.225      2.484
REMARK  Name = 
REMARK  2 active torsions:
REMARK  status: ('A' for Active; 'I' for Inactive)
REMARK    1  A    between atoms: C_1  and  C_2
REMARK    2  A    between atoms: C_8  and  C_9
REMARK                            x       y       z     vdW  Elec       q    Type
REMARK                         _______ _______ _______ _____ _____    ______ ____
ROOT
ATOM      1  C   UNL     1       4.586   4.070  16.712  0.00  0.00    +0.000 C 
ATOM      2  C   UNL     1       3.811   4.459  17.945  0.00  0.00    +0.000 A 
ATOM      3  C   UNL     1       3.348   5.850  17.965  0.00  0.00    +0.000 A 
ATOM      4  C   UNL     1       2.653   6.301  19.011  0.00  0.00    +0.000 A 
ATOM      5  N   UNL     1       2.366   5.467  20.072  0.00  0.00    +0.000 N 
ATOM      6  C   UNL     1       2.749   4.152  20.152  0.00  0.00    +0.000 A 
ATOM      7  O   UNL     1       2.465   3.451  21.124  0.00  0.00    +0.000 OA
ATOM      8  C   UNL     1       3.539   3.615  18.979  0.00  0.00    +0.000 A 
ATOM      9  C   UNL     1       1.599   6.159  21.109  0.00  0.00    +0.000 C 
ATOM     10  C   UNL     1       1.451   7.532  20.539  0.00  0.00    +0.000 A 
ATOM     11  C   UNL     1       0.821   8.643  21.050  0.00  0.00    +0.000 A 
ATOM     12  C   UNL     1       0.841   9.816  20.286  0.00  0.00    +0.000 A 
ATOM     13  C   UNL     1       0.216  10.983  20.757  0.00  0.00    +0.000 A 
ATOM     14  C   UNL     1       0.236  12.150  19.998  0.00  0.00    +0.000 A 
ATOM     15  C   UNL     1       0.883  12.155  18.768  0.00  0.00    +0.000 A 
ATOM     16  C   UNL     1       1.506  10.992  18.297  0.00  0.00    +0.000 A 
ATOM     17  C   UNL     1       1.507   9.809  19.025  0.00  0.00    +0.000 A 
ATOM     18  N   UNL     1       2.125   8.711  18.526  0.00  0.00    +0.000 NA
ATOM     19  C   UNL     1       2.074   7.617  19.299  0.00  0.00    +0.000 A 
ENDROOT
BRANCH   8  20
ATOM     20  C   UNL     1       4.011   2.186  18.963  0.00  0.00    +0.000 C 
ATOM     21  N   UNL     1       4.998   1.851  19.836  0.00  0.00    +0.000 N 
ATOM     22  O   UNL     1       3.565   1.318  18.219  0.00  0.00    +0.000 OA
ATOM     23  H   UNL     1       5.405   2.530  20.477  0.00  0.00    +0.000 HD
ATOM     24  H   UNL     1       5.334   0.899  19.848  0.00  0.00    +0.000 HD
ENDBRANCH   8  20
TORSDOF 1
ENDMDL
MODEL 7
REMARK VINA RESULT:      -7.7      1.664      3.002
REMARK  Name = 
REMARK  2 active torsions:
REMARK  status: ('A' for Active; 'I' for Inactive)
REMARK    1  A    between atoms: C_1  and  C_2
REMARK    2  A    between atoms: C_8  and  C_9
REMARK                            x       y       z     vdW  Elec       q    Type
REMARK                         _______ _______ _______ _____ _____    ______ ____
ROOT
ATOM      1  C   UNL     1       4.845   6.499  16.217  0.00  0.00    +0.000 C 
ATOM      2  C   UNL     1       4.028   6.468  17.484  0.00  0.00    +0.000 A 
ATOM      3  C   UNL     1       3.232   7.674  17.730  0.00  0.00    +0.000 A 
ATOM      4  C   UNL     1       2.473   7.755  18.825  0.00  0.00    +0.000 A 
ATOM      5  N   UNL     1       2.432   6.710  19.725  0.00  0.00    +0.000 N 
ATOM      6  C   UNL     1       3.135   5.539  19.589  0.00  0.00    +0.000 A 
ATOM      7  O   UNL     1       3.060   4.637  20.424  0.00  0.00    +0.000 OA
ATOM      8  C   UNL     1       4.004   5.423  18.356  0.00  0.00    +0.000 A 
ATOM      9  C   UNL     1       1.543   7.003  20.850  0.00  0.00    +0.000 C 
ATOM     10  C   UNL     1       1.041   8.370  20.517  0.00  0.00    +0.000 A 
ATOM     11  C   UNL     1       0.165   9.186  21.196  0.00  0.00    +0.000 A 
ATOM     12  C   UNL     1      -0.129  10.436  20.642  0.00  0.00    +0.000 A 
ATOM     13  C   UNL     1      -1.015  11.313  21.291  0.00  0.00    +0.000 A 
ATOM     14  C   UNL     1      -1.307  12.557  20.741  0.00  0.00    +0.000 A 
ATOM     15  C   UNL     1      -0.714  12.931  19.540  0.00  0.00    +0.000 A 
ATOM     16  C   UNL     1       0.169  12.058  18.891  0.00  0.00    +0.000 A 
ATOM     17  C   UNL     1       0.485  10.808  19.409  0.00  0.00    +0.000 A 
ATOM     18  N   UNL     1       1.346  10.001  18.743  0.00  0.00    +0.000 NA
ATOM     19  C   UNL     1       1.591   8.815  19.320  0.00  0.00    +0.000 A 
ENDROOT
BRANCH   8  20
ATOM     20  C   UNL     1       4.819   4.181  18.108  0.00  0.00    +0.000 C 
ATOM     21  N   UNL     1       5.887   3.972  18.920  0.00  0.00    +0.000 N 
ATOM     22  O   UNL     1       4.578   3.361  17.228  0.00  0.00    +0.000 OA
ATOM     23  H   UNL     1       6.134   4.619  19.667  0.00  0.00    +0.000 HD
ATOM     24  H   UNL     1       6.452   3.146  18.777  0.00  0.00    +0.000 HD
ENDBRANCH   8  20
TORSDOF 1
ENDMDL
MODEL 8
REMARK VINA RESULT:      -7.7      1.618      2.242
REMARK  Name = 
REMARK  2 active torsions:
REMARK  status: ('A' for Active; 'I' for Inactive)
REMARK    1  A    between atoms: C_1  and  C_2
REMARK    2  A    between atoms: C_8  and  C_9
REMARK                            x       y       z     vdW  Elec       q    Type
REMARK                         _______ _______ _______ _____ _____    ______ ____
ROOT
ATOM      1  C   UNL     1       4.186   3.355  19.779  0.00  0.00    +0.000 C 
ATOM      2  C   UNL     1       3.884   4.682  19.132  0.00  0.00    +0.000 A 
ATOM      3  C   UNL     1       3.019   5.566  19.920  0.00  0.00    +0.000 A 
ATOM      4  C   UNL     1       2.686   6.767  19.441  0.00  0.00    +0.000 A 
ATOM      5  N   UNL     1       3.151   7.181  18.210  0.00  0.00    +0.000 N 
ATOM      6  C   UNL     1       3.965   6.435  17.395  0.00  0.00    +0.000 A 
ATOM      7  O   UNL     1       4.352   6.854  16.304  0.00  0.00    +0.000 OA
ATOM      8  C   UNL     1       4.357   5.069  17.915  0.00  0.00    +0.000 A 
ATOM      9  C   UNL     1       2.668   8.522  17.875  0.00  0.00    +0.000 C 
ATOM     10  C   UNL     1       1.846   8.875  19.070  0.00  0.00    +0.000 A 
ATOM     11  C   UNL     1       1.130  10.017  19.351  0.00  0.00    +0.000 A 
ATOM     12  C   UNL     1       0.440  10.075  20.566  0.00  0.00    +0.000 A 
ATOM     13  C   UNL     1      -0.309  11.214  20.907  0.00  0.00    +0.000 A 
ATOM     14  C   UNL     1      -0.996  11.272  22.116  0.00  0.00    +0.000 A 
ATOM     15  C   UNL     1      -0.939  10.191  22.989  0.00  0.00    +0.000 A 
ATOM     16  C   UNL     1      -0.193   9.055  22.651  0.00  0.00    +0.000 A 
ATOM     17  C   UNL     1       0.507   8.960  21.454  0.00  0.00    +0.000 A 
ATOM     18  N   UNL     1       1.214   7.838  21.174  0.00  0.00    +0.000 NA
ATOM     19  C   UNL     1       1.855   7.838  19.996  0.00  0.00    +0.000 A 
ENDROOT
BRANCH   8  20
ATOM     20  C   UNL     1       5.246   4.166  17.102  0.00  0.00    +0.000 C 
ATOM     21  N   UNL     1       6.577   4.203  17.373  0.00  0.00    +0.000 N 
ATOM     22  O   UNL     1       4.845   3.410  16.222  0.00  0.00    +0.000 OA
ATOM     23  H   UNL     1       6.966   4.810  18.092  0.00  0.00    +0.000 HD
ATOM     24  H   UNL     1       7.198   3.607  16.843  0.00  0.00    +0.000 HD
ENDBRANCH   8  20
TORSDOF 1
ENDMDL
MODEL 9
REMARK VINA RESULT:      -7.5      2.969      7.163
REMARK  Name = 
REMARK  2 active torsions:
REMARK  status: ('A' for Active; 'I' for Inactive)
REMARK    1  A    between atoms: C_1  and  C_2
REMARK    2  A    between atoms: C_8  and  C_9
REMARK                            x       y       z     vdW  Elec       q    Type
REMARK                         _______ _______ _______ _____ _____    ______ ____
ROOT
ATOM      1  C   UNL     1      -0.533  11.068  21.501  0.00  0.00    +0.000 C 
ATOM      2  C   UNL     1       0.351  10.434  20.457  0.00  0.00    +0.000 A 
ATOM      3  C   UNL     1       0.703   9.035  20.720  0.00  0.00    +0.000 A 
ATOM      4  C   UNL     1       1.484   8.376  19.861  0.00  0.00    +0.000 A 
ATOM      5  N   UNL     1       1.960   9.003  18.728  0.00  0.00    +0.000 N 
ATOM      6  C   UNL     1       1.690  10.304  18.388  0.00  0.00    +0.000 A 
ATOM      7  O   UNL     1       2.141  10.814  17.362  0.00  0.00    +0.000 OA
ATOM      8  C   UNL     1       0.807  11.074  19.345  0.00  0.00    +0.000 A 
ATOM      9  C   UNL     1       2.794   8.105  17.927  0.00  0.00    +0.000 C 
ATOM     10  C   UNL     1       2.762   6.841  18.721  0.00  0.00    +0.000 A 
ATOM     11  C   UNL     1       3.360   5.625  18.481  0.00  0.00    +0.000 A 
ATOM     12  C   UNL     1       3.157   4.601  19.413  0.00  0.00    +0.000 A 
ATOM     13  C   UNL     1       3.744   3.338  19.221  0.00  0.00    +0.000 A 
ATOM     14  C   UNL     1       3.543   2.319  20.148  0.00  0.00    +0.000 A 
ATOM     15  C   UNL     1       2.756   2.558  21.269  0.00  0.00    +0.000 A 
ATOM     16  C   UNL     1       2.170   3.816  21.461  0.00  0.00    +0.000 A 
ATOM     17  C   UNL     1       2.348   4.857  20.558  0.00  0.00    +0.000 A 
ATOM     18  N   UNL     1       1.760   6.057  20.790  0.00  0.00    +0.000 NA
ATOM     19  C   UNL     1       1.988   7.001  19.866  0.00  0.00    +0.000 A 
ENDROOT
BRANCH   8  20
ATOM     20  C   UNL     1       0.448  12.510  19.070  0.00  0.00    +0.000 C 
ATOM     21  N   UNL     1      -0.336  12.754  17.987  0.00  0.00    +0.000 N 
ATOM     22  O   UNL     1       0.815  13.459  19.756  0.00  0.00    +0.000 OA
ATOM     23  H   UNL     1      -0.670  12.007  17.382  0.00  0.00    +0.000 HD
ATOM     24  H   UNL     1      -0.593  13.709  17.779  0.00  0.00    +0.000 HD
ENDBRANCH   8  20
TORSDOF 1
ENDMDL
