MODEL 1
REMARK VINA RESULT:      -8.0      0.000      0.000
REMARK  Name = 
REMARK  7 active torsions:
REMARK  status: ('A' for Active; 'I' for Inactive)
REMARK    1  A    between atoms: C_1  and  C_2
REMARK    2  A    between atoms: C_4  and  N_5
REMARK    3  A    between atoms: N_5  and  C_6
REMARK    4  A    between atoms: C_6  and  C_7
REMARK    5  A    between atoms: C_10  and  C_11
REMARK    6  A    between atoms: C_20  and  C_21
REMARK    7  A    between atoms: C_20  and  C_22
REMARK                            x       y       z     vdW  Elec       q    Type
REMARK                         _______ _______ _______ _____ _____    ______ ____
ROOT
ATOM      1  C   UNL     1       2.832   7.017  18.675  0.00  0.00    +0.000 C 
ENDROOT
BRANCH   1   2
ATOM      2  C   UNL     1       1.974   8.215  18.864  0.00  0.00    +0.000 A 
ATOM      3  C   UNL     1       1.536   9.141  17.947  0.00  0.00    +0.000 A 
ATOM      4  O   UNL     1       0.716  10.018  18.588  0.00  0.00    +0.000 OA
ATOM      5  C   UNL     1       0.693   9.572  19.886  0.00  0.00    +0.000 A 
ATOM      6  N   UNL     1       1.421   8.496  20.097  0.00  0.00    +0.000 NA
BRANCH   5   7
ATOM      7  C   UNL     1      -0.133  10.327  20.824  0.00  0.00    +0.000 A 
ATOM      8  C   UNL     1      -0.248   9.949  22.171  0.00  0.00    +0.000 A 
ATOM      9  C   UNL     1      -1.046  10.682  23.054  0.00  0.00    +0.000 A 
ATOM     10  C   UNL     1      -1.736  11.802  22.596  0.00  0.00    +0.000 A 
ATOM     11 CL   UNL     1      -2.723  12.700  23.682  0.00  0.00    +0.000 Cl
ATOM     12  C   UNL     1      -1.633  12.197  21.264  0.00  0.00    +0.000 A 
ATOM     13  C   UNL     1      -0.833  11.463  20.383  0.00  0.00    +0.000 A 
ENDBRANCH   5   7
ENDBRANCH   1   2
BRANCH   1  14
ATOM     14  N   UNL     1       3.208   6.435  19.969  0.00  0.00    +0.000 NA
ATOM     15  H   UNL     1       4.207   6.572  20.120  0.00  0.00    +0.000 HD
BRANCH  14  19
ATOM     16  C   UNL     1       1.606   2.598  21.797  0.00  0.00    +0.000 C 
ATOM     17  C   UNL     1       1.036   3.324  20.577  0.00  0.00    +0.000 C 
ATOM     18  C   UNL     1       1.467   4.800  20.531  0.00  0.00    +0.000 C 
ATOM     19  C   UNL     1       2.910   4.993  20.029  0.00  0.00    +0.000 C 
ATOM     20  C   UNL     1       3.080   4.320  18.655  0.00  0.00    +0.000 C 
ATOM     21  C   UNL     1       2.733   2.820  18.651  0.00  0.00    +0.000 C 
ATOM     22  C   UNL     1       3.813   2.013  19.394  0.00  0.00    +0.000 C 
ATOM     23  C   UNL     1       2.738   2.333  17.185  0.00  0.00    +0.000 C 
ATOM     24  C   UNL     1       1.325   2.606  19.247  0.00  0.00    +0.000 C 
ENDBRANCH  14  19
ENDBRANCH   1  14
TORSDOF 4
ENDMDL
MODEL 2
REMARK VINA RESULT:      -7.9      0.230      1.031
REMARK  Name = 
REMARK  7 active torsions:
REMARK  status: ('A' for Active; 'I' for Inactive)
REMARK    1  A    between atoms: C_1  and  C_2
REMARK    2  A    between atoms: C_4  and  N_5
REMARK    3  A    between atoms: N_5  and  C_6
REMARK    4  A    between atoms: C_6  and  C_7
REMARK    5  A    between atoms: C_10  and  C_11
REMARK    6  A    between atoms: C_20  and  C_21
REMARK    7  A    between atoms: C_20  and  C_22
REMARK                            x       y       z     vdW  Elec       q    Type
REMARK                         _______ _______ _______ _____ _____    ______ ____
ROOT
ATOM      1  C   UNL     1       2.652   7.158  18.736  0.00  0.00    +0.000 C 
ENDROOT
BRANCH   1   2
ATOM      2  C   UNL     1       1.858   8.399  18.920  0.00  0.00    +0.000 A 
ATOM      3  C   UNL     1       1.571   9.405  18.027  0.00  0.00    +0.000 A 
ATOM      4  O   UNL     1       0.750  10.298  18.642  0.00  0.00    +0.000 OA
ATOM      5  C   UNL     1       0.572   9.782  19.901  0.00  0.00    +0.000 A 
ATOM      6  N   UNL     1       1.206   8.648  20.111  0.00  0.00    +0.000 NA
BRANCH   5   7
ATOM      7  C   UNL     1      -0.293  10.537  20.805  0.00  0.00    +0.000 A 
ATOM      8  C   UNL     1      -1.106  11.582  20.342  0.00  0.00    +0.000 A 
ATOM      9  C   UNL     1      -1.924  12.295  21.223  0.00  0.00    +0.000 A 
ATOM     10  C   UNL     1      -1.937  11.967  22.576  0.00  0.00    +0.000 A 
ATOM     11 CL   UNL     1      -2.940  12.848  23.660  0.00  0.00    +0.000 Cl
ATOM     12  C   UNL     1      -1.140  10.929  23.056  0.00  0.00    +0.000 A 
ATOM     13  C   UNL     1      -0.323  10.217  22.173  0.00  0.00    +0.000 A 
ENDBRANCH   5   7
ENDBRANCH   1   2
BRANCH   1  14
ATOM     14  N   UNL     1       3.000   6.565  20.033  0.00  0.00    +0.000 NA
ATOM     15  H   UNL     1       3.984   6.746  20.230  0.00  0.00    +0.000 HD
BRANCH  14  19
ATOM     16  C   UNL     1       1.583   2.601  21.742  0.00  0.00    +0.000 C 
ATOM     17  C   UNL     1       0.979   3.336  20.543  0.00  0.00    +0.000 C 
ATOM     18  C   UNL     1       1.339   4.831  20.543  0.00  0.00    +0.000 C 
ATOM     19  C   UNL     1       2.771   5.109  20.048  0.00  0.00    +0.000 C 
ATOM     20  C   UNL     1       2.972   4.486  18.654  0.00  0.00    +0.000 C 
ATOM     21  C   UNL     1       2.697   2.973  18.604  0.00  0.00    +0.000 C 
ATOM     22  C   UNL     1       3.815   2.196  19.323  0.00  0.00    +0.000 C 
ATOM     23  C   UNL     1       2.724   2.531  17.124  0.00  0.00    +0.000 C 
ATOM     24  C   UNL     1       1.301   2.674  19.192  0.00  0.00    +0.000 C 
ENDBRANCH  14  19
ENDBRANCH   1  14
TORSDOF 4
ENDMDL
MODEL 3
REMARK VINA RESULT:      -7.9      2.568      3.776
REMARK  Name = 
REMARK  7 active torsions:
REMARK  status: ('A' for Active; 'I' for Inactive)
REMARK    1  A    between atoms: C_1  and  C_2
REMARK    2  A    between atoms: C_4  and  N_5
REMARK    3  A    between atoms: N_5  and  C_6
REMARK    4  A    between atoms: C_6  and  C_7
REMARK    5  A    between atoms: C_10  and  C_11
REMARK    6  A    between atoms: C_20  and  C_21
REMARK    7  A    between atoms: C_20  and  C_22
REMARK                            x       y       z     vdW  Elec       q    Type
REMARK                         _______ _______ _______ _____ _____    ______ ____
ROOT
ATOM      1  C   UNL     1       2.824   5.293  19.621  0.00  0.00    +0.000 C 
ENDROOT
BRANCH   1   2
ATOM      2  C   UNL     1       2.335   6.696  19.615  0.00  0.00    +0.000 A 
ATOM      3  C   UNL     1       2.385   7.644  18.621  0.00  0.00    +0.000 A 
ATOM      4  O   UNL     1       1.744   8.759  19.065  0.00  0.00    +0.000 OA
ATOM      5  C   UNL     1       1.326   8.428  20.329  0.00  0.00    +0.000 A 
ATOM      6  N   UNL     1       1.648   7.206  20.698  0.00  0.00    +0.000 NA
BRANCH   5   7
ATOM      7  C   UNL     1       0.583   9.448  21.064  0.00  0.00    +0.000 A 
ATOM      8  C   UNL     1       0.380  10.733  20.537  0.00  0.00    +0.000 A 
ATOM      9  C   UNL     1      -0.332  11.697  21.256  0.00  0.00    +0.000 A 
ATOM     10  C   UNL     1      -0.849  11.383  22.510  0.00  0.00    +0.000 A 
ATOM     11 CL   UNL     1      -1.720  12.572  23.397  0.00  0.00    +0.000 Cl
ATOM     12  C   UNL     1      -0.663  10.112  23.051  0.00  0.00    +0.000 A 
ATOM     13  C   UNL     1       0.049   9.149  22.328  0.00  0.00    +0.000 A 
ENDBRANCH   5   7
ENDBRANCH   1   2
BRANCH   1  14
ATOM     14  N   UNL     1       4.244   5.239  19.990  0.00  0.00    +0.000 NA
ATOM     15  H   UNL     1       4.424   5.916  20.730  0.00  0.00    +0.000 HD
BRANCH  14  19
ATOM     16  C   UNL     1       7.686   7.247  17.809  0.00  0.00    +0.000 C 
ATOM     17  C   UNL     1       7.589   5.764  18.171  0.00  0.00    +0.000 C 
ATOM     18  C   UNL     1       6.587   5.512  19.310  0.00  0.00    +0.000 C 
ATOM     19  C   UNL     1       5.119   5.542  18.843  0.00  0.00    +0.000 C 
ATOM     20  C   UNL     1       4.917   4.540  17.692  0.00  0.00    +0.000 C 
ATOM     21  C   UNL     1       5.843   4.782  16.487  0.00  0.00    +0.000 C 
ATOM     22  C   UNL     1       5.411   6.045  15.719  0.00  0.00    +0.000 C 
ATOM     23  C   UNL     1       5.687   3.590  15.517  0.00  0.00    +0.000 C 
ATOM     24  C   UNL     1       7.311   4.855  16.960  0.00  0.00    +0.000 C 
ENDBRANCH  14  19
ENDBRANCH   1  14
TORSDOF 4
ENDMDL
MODEL 4
REMARK VINA RESULT:      -7.9      6.142      7.595
REMARK  Name = 
REMARK  7 active torsions:
REMARK  status: ('A' for Active; 'I' for Inactive)
REMARK    1  A    between atoms: C_1  and  C_2
REMARK    2  A    between atoms: C_4  and  N_5
REMARK    3  A    between atoms: N_5  and  C_6
REMARK    4  A    between atoms: C_6  and  C_7
REMARK    5  A    between atoms: C_10  and  C_11
REMARK    6  A    between atoms: C_20  and  C_21
REMARK    7  A    between atoms: C_20  and  C_22
REMARK                            x       y       z     vdW  Elec       q    Type
REMARK                         _______ _______ _______ _____ _____    ______ ____
ROOT
ATOM      1  C   UNL     1       6.179   6.828  16.591  0.00  0.00    +0.000 C 
ENDROOT
BRANCH   1   2
ATOM      2  C   UNL     1       7.175   7.421  17.519  0.00  0.00    +0.000 A 
ATOM      3  C   UNL     1       7.962   6.819  18.472  0.00  0.00    +0.000 A 
ATOM      4  O   UNL     1       8.766   7.769  19.022  0.00  0.00    +0.000 OA
ATOM      5  C   UNL     1       8.424   8.923  18.363  0.00  0.00    +0.000 A 
ATOM      6  N   UNL     1       7.487   8.764  17.453  0.00  0.00    +0.000 NA
BRANCH   5   7
ATOM      7  C   UNL     1       9.147  10.135  18.741  0.00  0.00    +0.000 A 
ATOM      8  C   UNL     1       9.354  10.477  20.086  0.00  0.00    +0.000 A 
ATOM      9  C   UNL     1      10.046  11.642  20.429  0.00  0.00    +0.000 A 
ATOM     10  C   UNL     1      10.538  12.476  19.428  0.00  0.00    +0.000 A 
ATOM     11 CL   UNL     1      11.384  13.912  19.851  0.00  0.00    +0.000 Cl
ATOM     12  C   UNL     1      10.347  12.152  18.086  0.00  0.00    +0.000 A 
ATOM     13  C   UNL     1       9.655  10.985  17.745  0.00  0.00    +0.000 A 
ENDBRANCH   5   7
ENDBRANCH   1   2
BRANCH   1  14
ATOM     14  N   UNL     1       5.988   5.401  16.874  0.00  0.00    +0.000 NA
ATOM     15  H   UNL     1       5.886   4.896  15.994  0.00  0.00    +0.000 HD
BRANCH  14  19
ATOM     16  C   UNL     1       2.528   6.526  19.593  0.00  0.00    +0.000 C 
ATOM     17  C   UNL     1       2.419   6.039  18.147  0.00  0.00    +0.000 C 
ATOM     18  C   UNL     1       3.733   6.232  17.373  0.00  0.00    +0.000 C 
ATOM     19  C   UNL     1       4.792   5.162  17.701  0.00  0.00    +0.000 C 
ATOM     20  C   UNL     1       4.207   3.758  17.465  0.00  0.00    +0.000 C 
ATOM     21  C   UNL     1       2.926   3.475  18.269  0.00  0.00    +0.000 C 
ATOM     22  C   UNL     1       3.254   3.296  19.763  0.00  0.00    +0.000 C 
ATOM     23  C   UNL     1       2.337   2.135  17.775  0.00  0.00    +0.000 C 
ATOM     24  C   UNL     1       1.894   4.597  18.025  0.00  0.00    +0.000 C 
ENDBRANCH  14  19
ENDBRANCH   1  14
TORSDOF 4
ENDMDL
MODEL 5
REMARK VINA RESULT:      -7.9      5.736      7.300
REMARK  Name = 
REMARK  7 active torsions:
REMARK  status: ('A' for Active; 'I' for Inactive)
REMARK    1  A    between atoms: C_1  and  C_2
REMARK    2  A    between atoms: C_4  and  N_5
REMARK    3  A    between atoms: N_5  and  C_6
REMARK    4  A    between atoms: C_6  and  C_7
REMARK    5  A    between atoms: C_10  and  C_11
REMARK    6  A    between atoms: C_20  and  C_21
REMARK    7  A    between atoms: C_20  and  C_22
REMARK                            x       y       z     vdW  Elec       q    Type
REMARK                         _______ _______ _______ _____ _____    ______ ____
ROOT
ATOM      1  C   UNL     1       6.560   5.769  16.239  0.00  0.00    +0.000 C 
ENDROOT
BRANCH   1   2
ATOM      2  C   UNL     1       7.252   6.623  17.238  0.00  0.00    +0.000 A 
ATOM      3  C   UNL     1       7.859   6.281  18.423  0.00  0.00    +0.000 A 
ATOM      4  O   UNL     1       8.414   7.403  18.956  0.00  0.00    +0.000 OA
ATOM      5  C   UNL     1       8.114   8.390  18.051  0.00  0.00    +0.000 A 
ATOM      6  N   UNL     1       7.430   7.972  17.008  0.00  0.00    +0.000 NA
BRANCH   5   7
ATOM      7  C   UNL     1       8.602   9.732  18.358  0.00  0.00    +0.000 A 
ATOM      8  C   UNL     1       8.318  10.826  17.526  0.00  0.00    +0.000 A 
ATOM      9  C   UNL     1       8.796  12.103  17.834  0.00  0.00    +0.000 A 
ATOM     10  C   UNL     1       9.564  12.296  18.980  0.00  0.00    +0.000 A 
ATOM     11 CL   UNL     1      10.157  13.866  19.355  0.00  0.00    +0.000 Cl
ATOM     12  C   UNL     1       9.855  11.225  19.821  0.00  0.00    +0.000 A 
ATOM     13  C   UNL     1       9.374   9.949  19.511  0.00  0.00    +0.000 A 
ENDBRANCH   5   7
ENDBRANCH   1   2
BRANCH   1  14
ATOM     14  N   UNL     1       5.121   6.057  16.214  0.00  0.00    +0.000 NA
ATOM     15  H   UNL     1       4.982   7.067  16.232  0.00  0.00    +0.000 HD
BRANCH  14  19
ATOM     16  C   UNL     1       2.760   6.057  20.095  0.00  0.00    +0.000 C 
ATOM     17  C   UNL     1       2.248   5.603  18.726  0.00  0.00    +0.000 C 
ATOM     18  C   UNL     1       3.083   6.189  17.576  0.00  0.00    +0.000 C 
ATOM     19  C   UNL     1       4.423   5.459  17.367  0.00  0.00    +0.000 C 
ATOM     20  C   UNL     1       4.172   3.955  17.163  0.00  0.00    +0.000 C 
ATOM     21  C   UNL     1       3.402   3.290  18.318  0.00  0.00    +0.000 C 
ATOM     22  C   UNL     1       4.297   3.168  19.565  0.00  0.00    +0.000 C 
ATOM     23  C   UNL     1       3.036   1.854  17.885  0.00  0.00    +0.000 C 
ATOM     24  C   UNL     1       2.104   4.076  18.602  0.00  0.00    +0.000 C 
ENDBRANCH  14  19
ENDBRANCH   1  14
TORSDOF 4
ENDMDL
MODEL 6
REMARK VINA RESULT:      -7.8      2.436      3.932
REMARK  Name = 
REMARK  7 active torsions:
REMARK  status: ('A' for Active; 'I' for Inactive)
REMARK    1  A    between atoms: C_1  and  C_2
REMARK    2  A    between atoms: C_4  and  N_5
REMARK    3  A    between atoms: N_5  and  C_6
REMARK    4  A    between atoms: C_6  and  C_7
REMARK    5  A    between atoms: C_10  and  C_11
REMARK    6  A    between atoms: C_20  and  C_21
REMARK    7  A    between atoms: C_20  and  C_22
REMARK                            x       y       z     vdW  Elec       q    Type
REMARK                         _______ _______ _______ _____ _____    ______ ____
ROOT
ATOM      1  C   UNL     1       6.125   4.544  18.516  0.00  0.00    +0.000 C 
ENDROOT
BRANCH   1   2
ATOM      2  C   UNL     1       5.137   5.558  18.067  0.00  0.00    +0.000 A 
ATOM      3  C   UNL     1       4.802   5.961  16.796  0.00  0.00    +0.000 A 
ATOM      4  O   UNL     1       3.793   6.868  16.890  0.00  0.00    +0.000 OA
ATOM      5  C   UNL     1       3.558   6.973  18.238  0.00  0.00    +0.000 A 
ATOM      6  N   UNL     1       4.329   6.206  18.979  0.00  0.00    +0.000 NA
BRANCH   5   7
ATOM      7  C   UNL     1       2.496   7.887  18.651  0.00  0.00    +0.000 A 
ATOM      8  C   UNL     1       2.018   7.912  19.970  0.00  0.00    +0.000 A 
ATOM      9  C   UNL     1       0.999   8.792  20.345  0.00  0.00    +0.000 A 
ATOM     10  C   UNL     1       0.448   9.656  19.402  0.00  0.00    +0.000 A 
ATOM     11 CL   UNL     1      -0.810  10.734  19.864  0.00  0.00    +0.000 Cl
ATOM     12  C   UNL     1       0.910   9.650  18.088  0.00  0.00    +0.000 A 
ATOM     13  C   UNL     1       1.931   8.770  17.715  0.00  0.00    +0.000 A 
ENDBRANCH   5   7
ENDBRANCH   1   2
BRANCH   1  14
ATOM     14  N   UNL     1       5.451   3.312  18.944  0.00  0.00    +0.000 NA
ATOM     15  H   UNL     1       5.642   2.574  18.267  0.00  0.00    +0.000 HD
BRANCH  14  19
ATOM     16  C   UNL     1       1.250   4.149  17.431  0.00  0.00    +0.000 C 
ATOM     17  C   UNL     1       1.771   2.810  17.957  0.00  0.00    +0.000 C 
ATOM     18  C   UNL     1       3.305   2.728  17.905  0.00  0.00    +0.000 C 
ATOM     19  C   UNL     1       3.992   3.496  19.050  0.00  0.00    +0.000 C 
ATOM     20  C   UNL     1       3.454   3.004  20.405  0.00  0.00    +0.000 C 
ATOM     21  C   UNL     1       1.926   3.128  20.549  0.00  0.00    +0.000 C 
ATOM     22  C   UNL     1       1.516   4.604  20.704  0.00  0.00    +0.000 C 
ATOM     23  C   UNL     1       1.508   2.407  21.849  0.00  0.00    +0.000 C 
ATOM     24  C   UNL     1       1.230   2.448  19.351  0.00  0.00    +0.000 C 
ENDBRANCH  14  19
ENDBRANCH   1  14
TORSDOF 4
ENDMDL
MODEL 7
REMARK VINA RESULT:      -7.8      2.425      4.031
REMARK  Name = 
REMARK  7 active torsions:
REMARK  status: ('A' for Active; 'I' for Inactive)
REMARK    1  A    between atoms: C_1  and  C_2
REMARK    2  A    between atoms: C_4  and  N_5
REMARK    3  A    between atoms: N_5  and  C_6
REMARK    4  A    between atoms: C_6  and  C_7
REMARK    5  A    between atoms: C_10  and  C_11
REMARK    6  A    between atoms: C_20  and  C_21
REMARK    7  A    between atoms: C_20  and  C_22
REMARK                            x       y       z     vdW  Elec       q    Type
REMARK                         _______ _______ _______ _____ _____    ______ ____
ROOT
ATOM      1  C   UNL     1       6.144   4.634  18.479  0.00  0.00    +0.000 C 
ENDROOT
BRANCH   1   2
ATOM      2  C   UNL     1       5.163   5.652  18.024  0.00  0.00    +0.000 A 
ATOM      3  C   UNL     1       4.861   6.081  16.754  0.00  0.00    +0.000 A 
ATOM      4  O   UNL     1       3.844   6.981  16.840  0.00  0.00    +0.000 OA
ATOM      5  C   UNL     1       3.571   7.055  18.183  0.00  0.00    +0.000 A 
ATOM      6  N   UNL     1       4.325   6.275  18.927  0.00  0.00    +0.000 NA
BRANCH   5   7
ATOM      7  C   UNL     1       2.492   7.953  18.585  0.00  0.00    +0.000 A 
ATOM      8  C   UNL     1       1.878   8.823  17.670  0.00  0.00    +0.000 A 
ATOM      9  C   UNL     1       0.849   9.677  18.075  0.00  0.00    +0.000 A 
ATOM     10  C   UNL     1       0.424   9.669  19.401  0.00  0.00    +0.000 A 
ATOM     11 CL   UNL     1      -0.838  10.726  19.900  0.00  0.00    +0.000 Cl
ATOM     12  C   UNL     1       1.017   8.812  20.325  0.00  0.00    +0.000 A 
ATOM     13  C   UNL     1       2.045   7.956  19.918  0.00  0.00    +0.000 A 
ENDBRANCH   5   7
ENDBRANCH   1   2
BRANCH   1  14
ATOM     14  N   UNL     1       5.470   3.373  18.812  0.00  0.00    +0.000 NA
ATOM     15  H   UNL     1       5.635   2.698  18.066  0.00  0.00    +0.000 HD
BRANCH  14  19
ATOM     16  C   UNL     1       1.220   4.262  17.478  0.00  0.00    +0.000 C 
ATOM     17  C   UNL     1       1.755   2.907  17.944  0.00  0.00    +0.000 C 
ATOM     18  C   UNL     1       3.287   2.823  17.834  0.00  0.00    +0.000 C 
ATOM     19  C   UNL     1       4.017   3.555  18.976  0.00  0.00    +0.000 C 
ATOM     20  C   UNL     1       3.526   3.024  20.335  0.00  0.00    +0.000 C 
ATOM     21  C   UNL     1       2.005   3.146  20.537  0.00  0.00    +0.000 C 
ATOM     22  C   UNL     1       1.604   4.618  20.751  0.00  0.00    +0.000 C 
ATOM     23  C   UNL     1       1.632   2.387  21.830  0.00  0.00    +0.000 C 
ATOM     24  C   UNL     1       1.264   2.504  19.345  0.00  0.00    +0.000 C 
ENDBRANCH  14  19
ENDBRANCH   1  14
TORSDOF 4
ENDMDL
MODEL 8
REMARK VINA RESULT:      -7.8      3.233      5.024
REMARK  Name = 
REMARK  7 active torsions:
REMARK  status: ('A' for Active; 'I' for Inactive)
REMARK    1  A    between atoms: C_1  and  C_2
REMARK    2  A    between atoms: C_4  and  N_5
REMARK    3  A    between atoms: N_5  and  C_6
REMARK    4  A    between atoms: C_6  and  C_7
REMARK    5  A    between atoms: C_10  and  C_11
REMARK    6  A    between atoms: C_20  and  C_21
REMARK    7  A    between atoms: C_20  and  C_22
REMARK                            x       y       z     vdW  Elec       q    Type
REMARK                         _______ _______ _______ _____ _____    ______ ____
ROOT
ATOM      1  C   UNL     1       3.763   3.271  19.176  0.00  0.00    +0.000 C 
ENDROOT
BRANCH   1   2
ATOM      2  C   UNL     1       2.993   4.430  19.697  0.00  0.00    +0.000 A 
ATOM      3  C   UNL     1       2.326   4.582  20.890  0.00  0.00    +0.000 A 
ATOM      4  O   UNL     1       1.830   5.848  20.941  0.00  0.00    +0.000 OA
ATOM      5  C   UNL     1       2.228   6.414  19.756  0.00  0.00    +0.000 A 
ATOM      6  N   UNL     1       2.930   5.610  18.986  0.00  0.00    +0.000 NA
BRANCH   5   7
ATOM      7  C   UNL     1       1.842   7.805  19.530  0.00  0.00    +0.000 A 
ATOM      8  C   UNL     1       1.218   8.566  20.530  0.00  0.00    +0.000 A 
ATOM      9  C   UNL     1       0.853   9.895  20.294  0.00  0.00    +0.000 A 
ATOM     10  C   UNL     1       1.111  10.474  19.054  0.00  0.00    +0.000 A 
ATOM     11 CL   UNL     1       0.656  12.107  18.763  0.00  0.00    +0.000 Cl
ATOM     12  C   UNL     1       1.732   9.737  18.049  0.00  0.00    +0.000 A 
ATOM     13  C   UNL     1       2.097   8.408  18.287  0.00  0.00    +0.000 A 
ENDBRANCH   5   7
ENDBRANCH   1   2
BRANCH   1  14
ATOM     14  N   UNL     1       5.206   3.527  19.254  0.00  0.00    +0.000 NA
ATOM     15  H   UNL     1       5.434   3.880  20.182  0.00  0.00    +0.000 HD
BRANCH  14  19
ATOM     16  C   UNL     1       7.448   7.160  17.701  0.00  0.00    +0.000 C 
ATOM     17  C   UNL     1       7.729   5.701  17.335  0.00  0.00    +0.000 C 
ATOM     18  C   UNL     1       7.162   4.725  18.380  0.00  0.00    +0.000 C 
ATOM     19  C   UNL     1       5.642   4.513  18.249  0.00  0.00    +0.000 C 
ATOM     20  C   UNL     1       5.300   4.058  16.819  0.00  0.00    +0.000 C 
ATOM     21  C   UNL     1       5.778   5.030  15.726  0.00  0.00    +0.000 C 
ATOM     22  C   UNL     1       4.922   6.311  15.729  0.00  0.00    +0.000 C 
ATOM     23  C   UNL     1       5.565   4.352  14.355  0.00  0.00    +0.000 C 
ATOM     24  C   UNL     1       7.281   5.330  15.910  0.00  0.00    +0.000 C 
ENDBRANCH  14  19
ENDBRANCH   1  14
TORSDOF 4
ENDMDL
MODEL 9
REMARK VINA RESULT:      -7.7      5.854      7.532
REMARK  Name = 
REMARK  7 active torsions:
REMARK  status: ('A' for Active; 'I' for Inactive)
REMARK    1  A    between atoms: C_1  and  C_2
REMARK    2  A    between atoms: C_4  and  N_5
REMARK    3  A    between atoms: N_5  and  C_6
REMARK    4  A    between atoms: C_6  and  C_7
REMARK    5  A    between atoms: C_10  and  C_11
REMARK    6  A    between atoms: C_20  and  C_21
REMARK    7  A    between atoms: C_20  and  C_22
REMARK                            x       y       z     vdW  Elec       q    Type
REMARK                         _______ _______ _______ _____ _____    ______ ____
ROOT
ATOM      1  C   UNL     1       7.280   5.217  18.152  0.00  0.00    +0.000 C 
ENDROOT
BRANCH   1   2
ATOM      2  C   UNL     1       7.474   6.674  17.932  0.00  0.00    +0.000 A 
ATOM      3  C   UNL     1       6.812   7.537  17.092  0.00  0.00    +0.000 A 
ATOM      4  O   UNL     1       7.303   8.789  17.295  0.00  0.00    +0.000 OA
ATOM      5  C   UNL     1       8.256   8.624  18.268  0.00  0.00    +0.000 A 
ATOM      6  N   UNL     1       8.389   7.382  18.685  0.00  0.00    +0.000 NA
BRANCH   5   7
ATOM      7  C   UNL     1       8.961   9.825  18.709  0.00  0.00    +0.000 A 
ATOM      8  C   UNL     1       9.516  10.730  17.791  0.00  0.00    +0.000 A 
ATOM      9  C   UNL     1      10.189  11.873  18.232  0.00  0.00    +0.000 A 
ATOM     10  C   UNL     1      10.311  12.122  19.597  0.00  0.00    +0.000 A 
ATOM     11 CL   UNL     1      11.144  13.526  20.139  0.00  0.00    +0.000 Cl
ATOM     12  C   UNL     1       9.763  11.239  20.525  0.00  0.00    +0.000 A 
ATOM     13  C   UNL     1       9.089  10.096  20.081  0.00  0.00    +0.000 A 
ENDBRANCH   5   7
ENDBRANCH   1   2
BRANCH   1  14
ATOM     14  N   UNL     1       6.498   4.974  19.370  0.00  0.00    +0.000 NA
ATOM     15  H   UNL     1       6.944   4.233  19.911  0.00  0.00    +0.000 HD
BRANCH  14  19
ATOM     16  C   UNL     1       3.205   2.213  17.897  0.00  0.00    +0.000 C 
ATOM     17  C   UNL     1       3.444   2.641  19.346  0.00  0.00    +0.000 C 
ATOM     18  C   UNL     1       4.882   3.137  19.571  0.00  0.00    +0.000 C 
ATOM     19  C   UNL     1       5.114   4.572  19.062  0.00  0.00    +0.000 C 
ATOM     20  C   UNL     1       4.089   5.526  19.702  0.00  0.00    +0.000 C 
ATOM     21  C   UNL     1       2.625   5.123  19.452  0.00  0.00    +0.000 C 
ATOM     22  C   UNL     1       2.237   5.383  17.984  0.00  0.00    +0.000 C 
ATOM     23  C   UNL     1       1.725   6.029  20.321  0.00  0.00    +0.000 C 
ATOM     24  C   UNL     1       2.407   3.652  19.865  0.00  0.00    +0.000 C 
ENDBRANCH  14  19
ENDBRANCH   1  14
TORSDOF 4
ENDMDL
