MODEL 1
REMARK VINA RESULT:      -7.6      0.000      0.000
REMARK  Name = 
REMARK  4 active torsions:
REMARK  status: ('A' for Active; 'I' for Inactive)
REMARK    1  A    between atoms: C_1  and  C_2
REMARK    2  A    between atoms: C_2  and  C_3
REMARK    3  A    between atoms: C_4  and  N_5
REMARK    4  A    between atoms: C_19  and  C_20
REMARK                            x       y       z     vdW  Elec       q    Type
REMARK                         _______ _______ _______ _____ _____    ______ ____
ROOT
ATOM      1  N   UNL     1       4.705   5.964  17.866  0.00  0.00    +0.000 N 
ATOM      2  C   UNL     1       4.171   7.313  17.600  0.00  0.00    +0.000 C 
ATOM      3  C   UNL     1       2.705   7.481  18.012  0.00  0.00    +0.000 C 
ATOM      4  N   UNL     1       2.337   6.797  19.238  0.00  0.00    +0.000 N 
ATOM      5  C   UNL     1       1.683   7.335  20.363  0.00  0.00    +0.000 A 
ATOM      6  S   UNL     1       1.380   8.916  20.750  0.00  0.00    +0.000 S 
ATOM      7  N   UNL     1       1.279   6.256  21.156  0.00  0.00    +0.000 N 
ATOM      8  C   UNL     1       1.658   5.073  20.531  0.00  0.00    +0.000 A 
ATOM      9  C   UNL     1       1.389   3.789  20.921  0.00  0.00    +0.000 A 
ATOM     10  C   UNL     1       1.835   2.786  20.064  0.00  0.00    +0.000 A 
ATOM     11  C   UNL     1       2.582   3.080  18.887  0.00  0.00    +0.000 A 
ATOM     12 CL   UNL     1       2.948   1.685  17.931  0.00  0.00    +0.000 Cl
ATOM     13  C   UNL     1       2.925   4.402  18.529  0.00  0.00    +0.000 A 
ATOM     14  C   UNL     1       2.354   5.380  19.355  0.00  0.00    +0.000 A 
ATOM     15  C   UNL     1       3.827   4.846  17.382  0.00  0.00    +0.000 C 
ATOM     16  C   UNL     1       4.680   3.822  16.623  0.00  0.00    +0.000 C 
ATOM     17  H   UNL     1       0.768   6.343  22.021  0.00  0.00    +0.000 HD
ENDROOT
BRANCH   1  21
ATOM     18  C   UNL     1       8.269   5.690  19.216  0.00  0.00    +0.000 C 
ATOM     19  C   UNL     1       7.153   6.226  18.359  0.00  0.00    +0.000 C 
ATOM     20  C   UNL     1       7.540   7.319  17.403  0.00  0.00    +0.000 C 
ATOM     21  C   UNL     1       5.905   5.754  18.541  0.00  0.00    +0.000 C 
ENDBRANCH   1  21
TORSDOF 1
ENDMDL
MODEL 2
REMARK VINA RESULT:      -6.3      5.836      7.283
REMARK  Name = 
REMARK  4 active torsions:
REMARK  status: ('A' for Active; 'I' for Inactive)
REMARK    1  A    between atoms: C_1  and  C_2
REMARK    2  A    between atoms: C_2  and  C_3
REMARK    3  A    between atoms: C_4  and  N_5
REMARK    4  A    between atoms: C_19  and  C_20
REMARK                            x       y       z     vdW  Elec       q    Type
REMARK                         _______ _______ _______ _____ _____    ______ ____
ROOT
ATOM      1  N   UNL     1       0.456  11.928  18.697  0.00  0.00    +0.000 N 
ATOM      2  C   UNL     1      -0.840  12.566  18.401  0.00  0.00    +0.000 C 
ATOM      3  C   UNL     1      -1.976  12.096  19.316  0.00  0.00    +0.000 C 
ATOM      4  N   UNL     1      -1.588  11.874  20.697  0.00  0.00    +0.000 N 
ATOM      5  C   UNL     1      -2.199  12.389  21.857  0.00  0.00    +0.000 A 
ATOM      6  S   UNL     1      -3.337  13.582  22.009  0.00  0.00    +0.000 S 
ATOM      7  N   UNL     1      -1.677  11.678  22.944  0.00  0.00    +0.000 N 
ATOM      8  C   UNL     1      -0.777  10.731  22.469  0.00  0.00    +0.000 A 
ATOM      9  C   UNL     1      -0.105   9.774  23.181  0.00  0.00    +0.000 A 
ATOM     10  C   UNL     1       0.690   8.907  22.436  0.00  0.00    +0.000 A 
ATOM     11  C   UNL     1       0.842   9.049  21.028  0.00  0.00    +0.000 A 
ATOM     12 CL   UNL     1       1.801   7.804  20.304  0.00  0.00    +0.000 Cl
ATOM     13  C   UNL     1       0.209  10.086  20.307  0.00  0.00    +0.000 A 
ATOM     14  C   UNL     1      -0.671  10.857  21.078  0.00  0.00    +0.000 A 
ATOM     15  C   UNL     1       0.392  10.434  18.833  0.00  0.00    +0.000 C 
ATOM     16  C   UNL     1       1.527   9.800  18.020  0.00  0.00    +0.000 C 
ATOM     17  H   UNL     1      -1.949  11.822  23.904  0.00  0.00    +0.000 HD
ENDROOT
BRANCH   1  21
ATOM     18  C   UNL     1       3.339  14.258  19.624  0.00  0.00    +0.000 C 
ATOM     19  C   UNL     1       2.028  13.540  19.808  0.00  0.00    +0.000 C 
ATOM     20  C   UNL     1       1.307  13.831  21.093  0.00  0.00    +0.000 C 
ATOM     21  C   UNL     1       1.628  12.661  18.870  0.00  0.00    +0.000 C 
ENDBRANCH   1  21
TORSDOF 1
ENDMDL
MODEL 3
REMARK VINA RESULT:      -6.2      6.178      8.918
REMARK  Name = 
REMARK  4 active torsions:
REMARK  status: ('A' for Active; 'I' for Inactive)
REMARK    1  A    between atoms: C_1  and  C_2
REMARK    2  A    between atoms: C_2  and  C_3
REMARK    3  A    between atoms: C_4  and  N_5
REMARK    4  A    between atoms: C_19  and  C_20
REMARK                            x       y       z     vdW  Elec       q    Type
REMARK                         _______ _______ _______ _____ _____    ______ ____
ROOT
ATOM      1  N   UNL     1      -1.846  12.586  19.097  0.00  0.00    +0.000 N 
ATOM      2  C   UNL     1      -0.750  12.691  18.116  0.00  0.00    +0.000 C 
ATOM      3  C   UNL     1       0.573  12.099  18.612  0.00  0.00    +0.000 C 
ATOM      4  N   UNL     1       0.437  10.890  19.403  0.00  0.00    +0.000 N 
ATOM      5  C   UNL     1       1.099   9.661  19.220  0.00  0.00    +0.000 A 
ATOM      6  S   UNL     1       2.001   9.129  17.937  0.00  0.00    +0.000 S 
ATOM      7  N   UNL     1       0.883   8.903  20.376  0.00  0.00    +0.000 N 
ATOM      8  C   UNL     1       0.120   9.651  21.266  0.00  0.00    +0.000 A 
ATOM      9  C   UNL     1      -0.251   9.324  22.543  0.00  0.00    +0.000 A 
ATOM     10  C   UNL     1      -0.965  10.297  23.237  0.00  0.00    +0.000 A 
ATOM     11  C   UNL     1      -1.342  11.529  22.632  0.00  0.00    +0.000 A 
ATOM     12 CL   UNL     1      -2.141  12.617  23.713  0.00  0.00    +0.000 Cl
ATOM     13  C   UNL     1      -1.027  11.830  21.288  0.00  0.00    +0.000 A 
ATOM     14  C   UNL     1      -0.207  10.876  20.670  0.00  0.00    +0.000 A 
ATOM     15  C   UNL     1      -1.481  13.041  20.480  0.00  0.00    +0.000 C 
ATOM     16  C   UNL     1      -2.581  13.966  21.017  0.00  0.00    +0.000 C 
ATOM     17  H   UNL     1       1.258   7.980  20.533  0.00  0.00    +0.000 HD
ENDROOT
BRANCH   1  21
ATOM     18  C   UNL     1      -4.954  10.779  17.804  0.00  0.00    +0.000 C 
ATOM     19  C   UNL     1      -3.489  10.976  18.092  0.00  0.00    +0.000 C 
ATOM     20  C   UNL     1      -2.587   9.861  17.645  0.00  0.00    +0.000 C 
ATOM     21  C   UNL     1      -3.098  12.073  18.767  0.00  0.00    +0.000 C 
ENDBRANCH   1  21
TORSDOF 1
ENDMDL
MODEL 4
REMARK VINA RESULT:      -6.1      0.710      1.045
REMARK  Name = 
REMARK  4 active torsions:
REMARK  status: ('A' for Active; 'I' for Inactive)
REMARK    1  A    between atoms: C_1  and  C_2
REMARK    2  A    between atoms: C_2  and  C_3
REMARK    3  A    between atoms: C_4  and  N_5
REMARK    4  A    between atoms: C_19  and  C_20
REMARK                            x       y       z     vdW  Elec       q    Type
REMARK                         _______ _______ _______ _____ _____    ______ ____
ROOT
ATOM      1  N   UNL     1       4.564   6.219  17.369  0.00  0.00    +0.000 N 
ATOM      2  C   UNL     1       3.777   7.452  17.184  0.00  0.00    +0.000 C 
ATOM      3  C   UNL     1       2.404   7.409  17.863  0.00  0.00    +0.000 C 
ATOM      4  N   UNL     1       2.386   6.737  19.149  0.00  0.00    +0.000 N 
ATOM      5  C   UNL     1       1.871   7.222  20.367  0.00  0.00    +0.000 A 
ATOM      6  S   UNL     1       1.391   8.753  20.775  0.00  0.00    +0.000 S 
ATOM      7  N   UNL     1       1.802   6.133  21.244  0.00  0.00    +0.000 N 
ATOM      8  C   UNL     1       2.247   4.995  20.581  0.00  0.00    +0.000 A 
ATOM      9  C   UNL     1       2.268   3.705  21.039  0.00  0.00    +0.000 A 
ATOM     10  C   UNL     1       2.706   2.744  20.132  0.00  0.00    +0.000 A 
ATOM     11  C   UNL     1       3.165   3.092  18.830  0.00  0.00    +0.000 A 
ATOM     12 CL   UNL     1       3.571   1.726  17.849  0.00  0.00    +0.000 Cl
ATOM     13  C   UNL     1       3.216   4.433  18.388  0.00  0.00    +0.000 A 
ATOM     14  C   UNL     1       2.655   5.349  19.288  0.00  0.00    +0.000 A 
ATOM     15  C   UNL     1       3.806   4.955  17.082  0.00  0.00    +0.000 C 
ATOM     16  C   UNL     1       4.660   4.040  16.195  0.00  0.00    +0.000 C 
ATOM     17  H   UNL     1       1.453   6.182  22.188  0.00  0.00    +0.000 HD
ENDROOT
BRANCH   1  21
ATOM     18  C   UNL     1       7.962   5.959  19.097  0.00  0.00    +0.000 C 
ATOM     19  C   UNL     1       6.519   5.621  18.826  0.00  0.00    +0.000 C 
ATOM     20  C   UNL     1       5.931   4.551  19.700  0.00  0.00    +0.000 C 
ATOM     21  C   UNL     1       5.886   6.234  17.808  0.00  0.00    +0.000 C 
ENDBRANCH   1  21
TORSDOF 1
ENDMDL
MODEL 5
REMARK VINA RESULT:      -5.9      5.606      8.412
REMARK  Name = 
REMARK  4 active torsions:
REMARK  status: ('A' for Active; 'I' for Inactive)
REMARK    1  A    between atoms: C_1  and  C_2
REMARK    2  A    between atoms: C_2  and  C_3
REMARK    3  A    between atoms: C_4  and  N_5
REMARK    4  A    between atoms: C_19  and  C_20
REMARK                            x       y       z     vdW  Elec       q    Type
REMARK                         _______ _______ _______ _____ _____    ______ ____
ROOT
ATOM      1  N   UNL     1      -0.625  12.400  21.462  0.00  0.00    +0.000 N 
ATOM      2  C   UNL     1       0.098  13.674  21.636  0.00  0.00    +0.000 C 
ATOM      3  C   UNL     1       1.499  13.671  21.016  0.00  0.00    +0.000 C 
ATOM      4  N   UNL     1       1.602  12.957  19.756  0.00  0.00    +0.000 N 
ATOM      5  C   UNL     1       2.147  13.423  18.544  0.00  0.00    +0.000 A 
ATOM      6  S   UNL     1       2.576  14.960  18.102  0.00  0.00    +0.000 S 
ATOM      7  N   UNL     1       2.301  12.310  17.710  0.00  0.00    +0.000 N 
ATOM      8  C   UNL     1       1.879  11.176  18.395  0.00  0.00    +0.000 A 
ATOM      9  C   UNL     1       1.935   9.872  17.982  0.00  0.00    +0.000 A 
ATOM     10  C   UNL     1       1.501   8.923  18.904  0.00  0.00    +0.000 A 
ATOM     11  C   UNL     1       0.972   9.293  20.173  0.00  0.00    +0.000 A 
ATOM     12 CL   UNL     1       0.585   7.944  21.184  0.00  0.00    +0.000 Cl
ATOM     13  C   UNL     1       0.843  10.644  20.564  0.00  0.00    +0.000 A 
ATOM     14  C   UNL     1       1.401  11.554  19.656  0.00  0.00    +0.000 A 
ATOM     15  C   UNL     1       0.175  11.183  21.825  0.00  0.00    +0.000 C 
ATOM     16  C   UNL     1      -0.675  10.261  22.709  0.00  0.00    +0.000 C 
ATOM     17  H   UNL     1       2.688  12.343  16.780  0.00  0.00    +0.000 HD
ENDROOT
BRANCH   1  21
ATOM     18  C   UNL     1      -3.927  12.382  19.539  0.00  0.00    +0.000 C 
ATOM     19  C   UNL     1      -2.433  12.330  19.721  0.00  0.00    +0.000 C 
ATOM     20  C   UNL     1      -1.632  12.196  18.457  0.00  0.00    +0.000 C 
ATOM     21  C   UNL     1      -1.926  12.340  20.969  0.00  0.00    +0.000 C 
ENDBRANCH   1  21
TORSDOF 1
ENDMDL
MODEL 6
REMARK VINA RESULT:      -5.9      9.924     12.303
REMARK  Name = 
REMARK  4 active torsions:
REMARK  status: ('A' for Active; 'I' for Inactive)
REMARK    1  A    between atoms: C_1  and  C_2
REMARK    2  A    between atoms: C_2  and  C_3
REMARK    3  A    between atoms: C_4  and  N_5
REMARK    4  A    between atoms: C_19  and  C_20
REMARK                            x       y       z     vdW  Elec       q    Type
REMARK                         _______ _______ _______ _____ _____    ______ ____
ROOT
ATOM      1  N   UNL     1      -3.493  13.525  20.978  0.00  0.00    +0.000 N 
ATOM      2  C   UNL     1      -3.241  14.973  21.097  0.00  0.00    +0.000 C 
ATOM      3  C   UNL     1      -4.462  15.768  21.571  0.00  0.00    +0.000 C 
ATOM      4  N   UNL     1      -5.269  15.099  22.576  0.00  0.00    +0.000 N 
ATOM      5  C   UNL     1      -5.694  15.607  23.818  0.00  0.00    +0.000 A 
ATOM      6  S   UNL     1      -5.207  16.969  24.624  0.00  0.00    +0.000 S 
ATOM      7  N   UNL     1      -6.678  14.736  24.301  0.00  0.00    +0.000 N 
ATOM      8  C   UNL     1      -6.871  13.720  23.372  0.00  0.00    +0.000 A 
ATOM      9  C   UNL     1      -7.793  12.708  23.407  0.00  0.00    +0.000 A 
ATOM     10  C   UNL     1      -7.810  11.862  22.302  0.00  0.00    +0.000 A 
ATOM     11  C   UNL     1      -6.882  12.003  21.232  0.00  0.00    +0.000 A 
ATOM     12 CL   UNL     1      -7.153  10.898  19.928  0.00  0.00    +0.000 Cl
ATOM     13  C   UNL     1      -5.881  12.999  21.236  0.00  0.00    +0.000 A 
ATOM     14  C   UNL     1      -5.979  13.898  22.307  0.00  0.00    +0.000 A 
ATOM     15  C   UNL     1      -4.747  13.176  20.231  0.00  0.00    +0.000 C 
ATOM     16  C   UNL     1      -4.439  12.078  19.205  0.00  0.00    +0.000 C 
ATOM     17  H   UNL     1      -7.176  14.862  25.168  0.00  0.00    +0.000 HD
ENDROOT
BRANCH   1  21
ATOM     18  C   UNL     1      -1.397  11.136  23.100  0.00  0.00    +0.000 C 
ATOM     19  C   UNL     1      -2.512  12.103  22.801  0.00  0.00    +0.000 C 
ATOM     20  C   UNL     1      -3.429  12.407  23.950  0.00  0.00    +0.000 C 
ATOM     21  C   UNL     1      -2.651  12.570  21.546  0.00  0.00    +0.000 C 
ENDBRANCH   1  21
TORSDOF 1
ENDMDL
MODEL 7
REMARK VINA RESULT:      -5.9      6.780      8.911
REMARK  Name = 
REMARK  4 active torsions:
REMARK  status: ('A' for Active; 'I' for Inactive)
REMARK    1  A    between atoms: C_1  and  C_2
REMARK    2  A    between atoms: C_2  and  C_3
REMARK    3  A    between atoms: C_4  and  N_5
REMARK    4  A    between atoms: C_19  and  C_20
REMARK                            x       y       z     vdW  Elec       q    Type
REMARK                         _______ _______ _______ _____ _____    ______ ____
ROOT
ATOM      1  N   UNL     1       0.337  11.693  20.296  0.00  0.00    +0.000 N 
ATOM      2  C   UNL     1       0.774  13.071  20.590  0.00  0.00    +0.000 C 
ATOM      3  C   UNL     1      -0.214  14.140  20.113  0.00  0.00    +0.000 C 
ATOM      4  N   UNL     1      -1.613  13.786  20.273  0.00  0.00    +0.000 N 
ATOM      5  C   UNL     1      -2.627  14.539  20.894  0.00  0.00    +0.000 A 
ATOM      6  S   UNL     1      -2.506  15.889  21.846  0.00  0.00    +0.000 S 
ATOM      7  N   UNL     1      -3.847  13.947  20.549  0.00  0.00    +0.000 N 
ATOM      8  C   UNL     1      -3.598  12.861  19.717  0.00  0.00    +0.000 A 
ATOM      9  C   UNL     1      -4.507  12.055  19.086  0.00  0.00    +0.000 A 
ATOM     10  C   UNL     1      -3.975  11.075  18.252  0.00  0.00    +0.000 A 
ATOM     11  C   UNL     1      -2.571  10.883  18.116  0.00  0.00    +0.000 A 
ATOM     12 CL   UNL     1      -2.145   9.671  16.957  0.00  0.00    +0.000 Cl
ATOM     13  C   UNL     1      -1.637  11.665  18.830  0.00  0.00    +0.000 A 
ATOM     14  C   UNL     1      -2.214  12.712  19.561  0.00  0.00    +0.000 A 
ATOM     15  C   UNL     1      -0.123  11.479  18.884  0.00  0.00    +0.000 C 
ATOM     16  C   UNL     1       0.524  10.206  18.325  0.00  0.00    +0.000 C 
ATOM     17  H   UNL     1      -4.750  14.288  20.839  0.00  0.00    +0.000 HD
ENDROOT
BRANCH   1  21
ATOM     18  C   UNL     1      -0.027   9.373  23.311  0.00  0.00    +0.000 C 
ATOM     19  C   UNL     1      -0.341  10.552  22.428  0.00  0.00    +0.000 C 
ATOM     20  C   UNL     1      -1.446  11.446  22.913  0.00  0.00    +0.000 C 
ATOM     21  C   UNL     1       0.322  10.691  21.264  0.00  0.00    +0.000 C 
ENDBRANCH   1  21
TORSDOF 1
ENDMDL
MODEL 8
REMARK VINA RESULT:      -5.8      5.195      7.903
REMARK  Name = 
REMARK  4 active torsions:
REMARK  status: ('A' for Active; 'I' for Inactive)
REMARK    1  A    between atoms: C_1  and  C_2
REMARK    2  A    between atoms: C_2  and  C_3
REMARK    3  A    between atoms: C_4  and  N_5
REMARK    4  A    between atoms: C_19  and  C_20
REMARK                            x       y       z     vdW  Elec       q    Type
REMARK                         _______ _______ _______ _____ _____    ______ ____
ROOT
ATOM      1  N   UNL     1      -0.746  10.544  18.392  0.00  0.00    +0.000 N 
ATOM      2  C   UNL     1       0.421  10.040  17.644  0.00  0.00    +0.000 C 
ATOM      3  C   UNL     1       1.596   9.640  18.542  0.00  0.00    +0.000 C 
ATOM      4  N   UNL     1       1.216   9.000  19.788  0.00  0.00    +0.000 N 
ATOM      5  C   UNL     1       1.690   7.781  20.311  0.00  0.00    +0.000 A 
ATOM      6  S   UNL     1       2.588   6.598  19.579  0.00  0.00    +0.000 S 
ATOM      7  N   UNL     1       1.276   7.720  21.646  0.00  0.00    +0.000 N 
ATOM      8  C   UNL     1       0.577   8.882  21.952  0.00  0.00    +0.000 A 
ATOM      9  C   UNL     1       0.070   9.268  23.163  0.00  0.00    +0.000 A 
ATOM     10  C   UNL     1      -0.532  10.523  23.200  0.00  0.00    +0.000 A 
ATOM     11  C   UNL     1      -0.668  11.326  22.032  0.00  0.00    +0.000 A 
ATOM     12 CL   UNL     1      -1.363  12.881  22.336  0.00  0.00    +0.000 Cl
ATOM     13  C   UNL     1      -0.214  10.891  20.768  0.00  0.00    +0.000 A 
ATOM     14  C   UNL     1       0.489   9.679  20.803  0.00  0.00    +0.000 A 
ATOM     15  C   UNL     1      -0.415  11.583  19.423  0.00  0.00    +0.000 C 
ATOM     16  C   UNL     1      -1.393  12.758  19.293  0.00  0.00    +0.000 C 
ATOM     17  H   UNL     1       1.490   6.963  22.276  0.00  0.00    +0.000 HD
ENDROOT
BRANCH   1  21
ATOM     18  C   UNL     1      -4.317   9.678  17.343  0.00  0.00    +0.000 C 
ATOM     19  C   UNL     1      -2.940  10.271  17.202  0.00  0.00    +0.000 C 
ATOM     20  C   UNL     1      -2.679  10.999  15.914  0.00  0.00    +0.000 C 
ATOM     21  C   UNL     1      -2.036  10.064  18.178  0.00  0.00    +0.000 C 
ENDBRANCH   1  21
TORSDOF 1
ENDMDL
MODEL 9
REMARK VINA RESULT:      -5.8     10.307     12.082
REMARK  Name = 
REMARK  4 active torsions:
REMARK  status: ('A' for Active; 'I' for Inactive)
REMARK    1  A    between atoms: C_1  and  C_2
REMARK    2  A    between atoms: C_2  and  C_3
REMARK    3  A    between atoms: C_4  and  N_5
REMARK    4  A    between atoms: C_19  and  C_20
REMARK                            x       y       z     vdW  Elec       q    Type
REMARK                         _______ _______ _______ _____ _____    ______ ____
ROOT
ATOM      1  N   UNL     1      -6.132  11.913  17.865  0.00  0.00    +0.000 N 
ATOM      2  C   UNL     1      -7.207  11.184  18.566  0.00  0.00    +0.000 C 
ATOM      3  C   UNL     1      -6.887  10.888  20.034  0.00  0.00    +0.000 C 
ATOM      4  N   UNL     1      -6.174  11.947  20.725  0.00  0.00    +0.000 N 
ATOM      5  C   UNL     1      -6.510  12.554  21.951  0.00  0.00    +0.000 A 
ATOM      6  S   UNL     1      -7.910  12.456  22.829  0.00  0.00    +0.000 S 
ATOM      7  N   UNL     1      -5.394  13.294  22.359  0.00  0.00    +0.000 N 
ATOM      8  C   UNL     1      -4.383  13.137  21.418  0.00  0.00    +0.000 A 
ATOM      9  C   UNL     1      -3.103  13.619  21.466  0.00  0.00    +0.000 A 
ATOM     10  C   UNL     1      -2.273  13.250  20.411  0.00  0.00    +0.000 A 
ATOM     11  C   UNL     1      -2.749  12.473  19.317  0.00  0.00    +0.000 A 
ATOM     12 CL   UNL     1      -1.519  12.061  18.172  0.00  0.00    +0.000 Cl
ATOM     13  C   UNL     1      -4.092  12.044  19.231  0.00  0.00    +0.000 A 
ATOM     14  C   UNL     1      -4.854  12.336  20.370  0.00  0.00    +0.000 A 
ATOM     15  C   UNL     1      -4.763  11.330  18.062  0.00  0.00    +0.000 C 
ATOM     16  C   UNL     1      -4.055  11.226  16.705  0.00  0.00    +0.000 C 
ATOM     17  H   UNL     1      -5.342  13.822  23.216  0.00  0.00    +0.000 HD
ENDROOT
BRANCH   1  21
ATOM     18  C   UNL     1      -7.063  15.296  16.353  0.00  0.00    +0.000 C 
ATOM     19  C   UNL     1      -6.783  14.301  17.449  0.00  0.00    +0.000 C 
ATOM     20  C   UNL     1      -6.924  14.826  18.849  0.00  0.00    +0.000 C 
ATOM     21  C   UNL     1      -6.373  13.063  17.117  0.00  0.00    +0.000 C 
ENDBRANCH   1  21
TORSDOF 1
ENDMDL
