MODEL 1
REMARK VINA RESULT:      -6.6      0.000      0.000
REMARK  Name = 
REMARK  6 active torsions:
REMARK  status: ('A' for Active; 'I' for Inactive)
REMARK    1  A    between atoms: C_1  and  C_2
REMARK    2  A    between atoms: C_2  and  N_3
REMARK    3  A    between atoms: N_6  and  C_7
REMARK    4  A    between atoms: C_7  and  C_8
REMARK    5  A    between atoms: C_7  and  C_9
REMARK    6  A    between atoms: C_10  and  C_11
REMARK                            x       y       z     vdW  Elec       q    Type
REMARK                         _______ _______ _______ _____ _____    ______ ____
ROOT
ATOM      1  N   UNL     1       3.066   4.196  20.315  0.00  0.00    +0.000 N 
ATOM      2  C   UNL     1       2.842   5.466  19.792  0.00  0.00    +0.000 A 
ATOM      3  C   UNL     1       3.647   5.590  18.687  0.00  0.00    +0.000 A 
ATOM      4  N   UNL     1       4.394   4.379  18.601  0.00  0.00    +0.000 N 
ATOM      5  C   UNL     1       4.036   3.560  19.623  0.00  0.00    +0.000 A 
ATOM      6  C   UNL     1       4.553   2.203  19.985  0.00  0.00    +0.000 C 
ATOM      7  C   UNL     1       3.654   6.761  17.846  0.00  0.00    +0.000 C 
ATOM      8  O   UNL     1       4.303   6.948  16.821  0.00  0.00    +0.000 OA
ATOM      9  C   UNL     1       2.738   7.856  18.314  0.00  0.00    +0.000 A 
ATOM     10  C   UNL     1       2.681   9.057  17.588  0.00  0.00    +0.000 A 
ATOM     11  C   UNL     1       1.846  10.100  18.004  0.00  0.00    +0.000 A 
ATOM     12  C   UNL     1       1.059   9.959  19.144  0.00  0.00    +0.000 A 
ATOM     13  C   UNL     1       1.102   8.773  19.871  0.00  0.00    +0.000 A 
ATOM     14  C   UNL     1       1.937   7.718  19.462  0.00  0.00    +0.000 A 
ATOM     15  C   UNL     1       1.943   6.474  20.275  0.00  0.00    +0.000 C 
ATOM     16  O   UNL     1       1.211   6.408  21.258  0.00  0.00    +0.000 OA
ENDROOT
BRANCH   4  17
ATOM     17  C   UNL     1       5.402   4.090  17.531  0.00  0.00    +0.000 C 
ATOM     18  C   UNL     1       4.799   4.127  16.127  0.00  0.00    +0.000 C 
ATOM     19  C   UNL     1       6.641   4.975  17.644  0.00  0.00    +0.000 C 
ENDBRANCH   4  17
BRANCH   1  21
ATOM     20  C   UNL     1       1.104   2.855  21.030  0.00  0.00    +0.000 C 
ATOM     21  C   UNL     1       2.329   3.635  21.470  0.00  0.00    +0.000 C 
ENDBRANCH   1  21
TORSDOF 2
ENDMDL
MODEL 2
REMARK VINA RESULT:      -6.5      1.864      5.340
REMARK  Name = 
REMARK  6 active torsions:
REMARK  status: ('A' for Active; 'I' for Inactive)
REMARK    1  A    between atoms: C_1  and  C_2
REMARK    2  A    between atoms: C_2  and  N_3
REMARK    3  A    between atoms: N_6  and  C_7
REMARK    4  A    between atoms: C_7  and  C_8
REMARK    5  A    between atoms: C_7  and  C_9
REMARK    6  A    between atoms: C_10  and  C_11
REMARK                            x       y       z     vdW  Elec       q    Type
REMARK                         _______ _______ _______ _____ _____    ______ ____
ROOT
ATOM      1  N   UNL     1       2.670   6.658  18.972  0.00  0.00    +0.000 N 
ATOM      2  C   UNL     1       3.477   5.980  18.063  0.00  0.00    +0.000 A 
ATOM      3  C   UNL     1       3.341   4.641  18.330  0.00  0.00    +0.000 A 
ATOM      4  N   UNL     1       2.473   4.546  19.457  0.00  0.00    +0.000 N 
ATOM      5  C   UNL     1       2.102   5.794  19.841  0.00  0.00    +0.000 A 
ATOM      6  C   UNL     1       1.235   6.224  20.982  0.00  0.00    +0.000 C 
ATOM      7  C   UNL     1       3.992   3.614  17.557  0.00  0.00    +0.000 C 
ATOM      8  O   UNL     1       3.900   2.397  17.691  0.00  0.00    +0.000 OA
ATOM      9  C   UNL     1       4.876   4.140  16.461  0.00  0.00    +0.000 A 
ATOM     10  C   UNL     1       5.584   3.232  15.657  0.00  0.00    +0.000 A 
ATOM     11  C   UNL     1       6.423   3.691  14.635  0.00  0.00    +0.000 A 
ATOM     12  C   UNL     1       6.564   5.057  14.402  0.00  0.00    +0.000 A 
ATOM     13  C   UNL     1       5.865   5.968  15.188  0.00  0.00    +0.000 A 
ATOM     14  C   UNL     1       5.019   5.518  16.216  0.00  0.00    +0.000 A 
ATOM     15  C   UNL     1       4.296   6.535  17.024  0.00  0.00    +0.000 C 
ATOM     16  O   UNL     1       4.451   7.723  16.754  0.00  0.00    +0.000 OA
ENDROOT
BRANCH   4  17
ATOM     17  C   UNL     1       2.053   3.252  20.086  0.00  0.00    +0.000 C 
ATOM     18  C   UNL     1       2.210   3.258  21.607  0.00  0.00    +0.000 C 
ATOM     19  C   UNL     1       0.650   2.826  19.658  0.00  0.00    +0.000 C 
ENDBRANCH   4  17
BRANCH   1  21
ATOM     20  C   UNL     1       1.424   8.547  17.954  0.00  0.00    +0.000 C 
ATOM     21  C   UNL     1       2.471   8.125  18.968  0.00  0.00    +0.000 C 
ENDBRANCH   1  21
TORSDOF 2
ENDMDL
MODEL 3
REMARK VINA RESULT:      -6.3      1.402      3.748
REMARK  Name = 
REMARK  6 active torsions:
REMARK  status: ('A' for Active; 'I' for Inactive)
REMARK    1  A    between atoms: C_1  and  C_2
REMARK    2  A    between atoms: C_2  and  N_3
REMARK    3  A    between atoms: N_6  and  C_7
REMARK    4  A    between atoms: C_7  and  C_8
REMARK    5  A    between atoms: C_7  and  C_9
REMARK    6  A    between atoms: C_10  and  C_11
REMARK                            x       y       z     vdW  Elec       q    Type
REMARK                         _______ _______ _______ _____ _____    ______ ____
ROOT
ATOM      1  N   UNL     1       4.007   5.778  17.378  0.00  0.00    +0.000 N 
ATOM      2  C   UNL     1       3.159   6.454  18.251  0.00  0.00    +0.000 A 
ATOM      3  C   UNL     1       2.750   5.544  19.193  0.00  0.00    +0.000 A 
ATOM      4  N   UNL     1       3.334   4.297  18.823  0.00  0.00    +0.000 N 
ATOM      5  C   UNL     1       4.073   4.467  17.698  0.00  0.00    +0.000 A 
ATOM      6  C   UNL     1       4.848   3.463  16.904  0.00  0.00    +0.000 C 
ATOM      7  C   UNL     1       1.895   5.890  20.302  0.00  0.00    +0.000 C 
ATOM      8  O   UNL     1       1.511   5.161  21.212  0.00  0.00    +0.000 OA
ATOM      9  C   UNL     1       1.451   7.326  20.308  0.00  0.00    +0.000 A 
ATOM     10  C   UNL     1       0.593   7.772  21.326  0.00  0.00    +0.000 A 
ATOM     11  C   UNL     1       0.153   9.100  21.353  0.00  0.00    +0.000 A 
ATOM     12  C   UNL     1       0.563   9.997  20.370  0.00  0.00    +0.000 A 
ATOM     13  C   UNL     1       1.416   9.569  19.357  0.00  0.00    +0.000 A 
ATOM     14  C   UNL     1       1.865   8.238  19.320  0.00  0.00    +0.000 A 
ATOM     15  C   UNL     1       2.776   7.836  18.216  0.00  0.00    +0.000 C 
ATOM     16  O   UNL     1       3.113   8.680  17.392  0.00  0.00    +0.000 OA
ENDROOT
BRANCH   4  17
ATOM     17  C   UNL     1       3.144   3.022  19.588  0.00  0.00    +0.000 C 
ATOM     18  C   UNL     1       2.225   2.035  18.869  0.00  0.00    +0.000 C 
ATOM     19  C   UNL     1       4.471   2.381  19.987  0.00  0.00    +0.000 C 
ENDBRANCH   4  17
BRANCH   1  21
ATOM     20  C   UNL     1       6.108   6.898  16.682  0.00  0.00    +0.000 C 
ATOM     21  C   UNL     1       4.730   6.425  16.260  0.00  0.00    +0.000 C 
ENDBRANCH   1  21
TORSDOF 2
ENDMDL
MODEL 4
REMARK VINA RESULT:      -6.0      1.806      5.227
REMARK  Name = 
REMARK  6 active torsions:
REMARK  status: ('A' for Active; 'I' for Inactive)
REMARK    1  A    between atoms: C_1  and  C_2
REMARK    2  A    between atoms: C_2  and  N_3
REMARK    3  A    between atoms: N_6  and  C_7
REMARK    4  A    between atoms: C_7  and  C_8
REMARK    5  A    between atoms: C_7  and  C_9
REMARK    6  A    between atoms: C_10  and  C_11
REMARK                            x       y       z     vdW  Elec       q    Type
REMARK                         _______ _______ _______ _____ _____    ______ ____
ROOT
ATOM      1  N   UNL     1       2.262   7.425  19.285  0.00  0.00    +0.000 N 
ATOM      2  C   UNL     1       3.052   6.597  18.493  0.00  0.00    +0.000 A 
ATOM      3  C   UNL     1       2.842   5.312  18.926  0.00  0.00    +0.000 A 
ATOM      4  N   UNL     1       1.946   5.406  20.031  0.00  0.00    +0.000 N 
ATOM      5  C   UNL     1       1.631   6.709  20.241  0.00  0.00    +0.000 A 
ATOM      6  C   UNL     1       0.763   7.325  21.293  0.00  0.00    +0.000 C 
ATOM      7  C   UNL     1       3.456   4.163  18.309  0.00  0.00    +0.000 C 
ATOM      8  O   UNL     1       3.299   2.980  18.597  0.00  0.00    +0.000 OA
ATOM      9  C   UNL     1       4.389   4.500  17.180  0.00  0.00    +0.000 A 
ATOM     10  C   UNL     1       5.067   3.463  16.519  0.00  0.00    +0.000 A 
ATOM     11  C   UNL     1       5.950   3.745  15.472  0.00  0.00    +0.000 A 
ATOM     12  C   UNL     1       6.166   5.061  15.069  0.00  0.00    +0.000 A 
ATOM     13  C   UNL     1       5.498   6.098  15.712  0.00  0.00    +0.000 A 
ATOM     14  C   UNL     1       4.608   5.826  16.765  0.00  0.00    +0.000 A 
ATOM     15  C   UNL     1       3.921   6.973  17.415  0.00  0.00    +0.000 C 
ATOM     16  O   UNL     1       4.142   8.107  17.000  0.00  0.00    +0.000 OA
ENDROOT
BRANCH   4  17
ATOM     17  C   UNL     1       1.447   4.226  20.809  0.00  0.00    +0.000 C 
ATOM     18  C   UNL     1       0.655   3.244  19.946  0.00  0.00    +0.000 C 
ATOM     19  C   UNL     1       2.560   3.532  21.591  0.00  0.00    +0.000 C 
ENDBRANCH   4  17
BRANCH   1  21
ATOM     20  C   UNL     1       1.083   9.227  18.051  0.00  0.00    +0.000 C 
ATOM     21  C   UNL     1       2.137   8.888  19.087  0.00  0.00    +0.000 C 
ENDBRANCH   1  21
TORSDOF 2
ENDMDL
MODEL 5
REMARK VINA RESULT:      -5.8      0.666      3.698
REMARK  Name = 
REMARK  6 active torsions:
REMARK  status: ('A' for Active; 'I' for Inactive)
REMARK    1  A    between atoms: C_1  and  C_2
REMARK    2  A    between atoms: C_2  and  N_3
REMARK    3  A    between atoms: N_6  and  C_7
REMARK    4  A    between atoms: C_7  and  C_8
REMARK    5  A    between atoms: C_7  and  C_9
REMARK    6  A    between atoms: C_10  and  C_11
REMARK                            x       y       z     vdW  Elec       q    Type
REMARK                         _______ _______ _______ _____ _____    ______ ____
ROOT
ATOM      1  N   UNL     1       3.936   4.655  18.004  0.00  0.00    +0.000 N 
ATOM      2  C   UNL     1       3.295   5.847  18.328  0.00  0.00    +0.000 A 
ATOM      3  C   UNL     1       2.548   5.605  19.453  0.00  0.00    +0.000 A 
ATOM      4  N   UNL     1       2.720   4.223  19.756  0.00  0.00    +0.000 N 
ATOM      5  C   UNL     1       3.552   3.666  18.840  0.00  0.00    +0.000 A 
ATOM      6  C   UNL     1       4.013   2.248  18.706  0.00  0.00    +0.000 C 
ATOM      7  C   UNL     1       1.776   6.624  20.120  0.00  0.00    +0.000 C 
ATOM      8  O   UNL     1       1.113   6.516  21.147  0.00  0.00    +0.000 OA
ATOM      9  C   UNL     1       1.822   7.966  19.445  0.00  0.00    +0.000 A 
ATOM     10  C   UNL     1       1.086   9.032  19.990  0.00  0.00    +0.000 A 
ATOM     11  C   UNL     1       1.099  10.290  19.378  0.00  0.00    +0.000 A 
ATOM     12  C   UNL     1       1.846  10.503  18.222  0.00  0.00    +0.000 A 
ATOM     13  C   UNL     1       2.583   9.457  17.674  0.00  0.00    +0.000 A 
ATOM     14  C   UNL     1       2.577   8.189  18.279  0.00  0.00    +0.000 A 
ATOM     15  C   UNL     1       3.383   7.109  17.652  0.00  0.00    +0.000 C 
ATOM     16  O   UNL     1       4.033   7.368  16.643  0.00  0.00    +0.000 OA
ENDROOT
BRANCH   4  17
ATOM     17  C   UNL     1       2.074   3.532  20.919  0.00  0.00    +0.000 C 
ATOM     18  C   UNL     1       0.719   2.922  20.563  0.00  0.00    +0.000 C 
ATOM     19  C   UNL     1       3.003   2.515  21.580  0.00  0.00    +0.000 C 
ENDBRANCH   4  17
BRANCH   1  21
ATOM     20  C   UNL     1       6.331   4.747  17.362  0.00  0.00    +0.000 C 
ATOM     21  C   UNL     1       4.907   4.512  16.896  0.00  0.00    +0.000 C 
ENDBRANCH   1  21
TORSDOF 2
ENDMDL
MODEL 6
REMARK VINA RESULT:      -5.8      1.401      2.096
REMARK  Name = 
REMARK  6 active torsions:
REMARK  status: ('A' for Active; 'I' for Inactive)
REMARK    1  A    between atoms: C_1  and  C_2
REMARK    2  A    between atoms: C_2  and  N_3
REMARK    3  A    between atoms: N_6  and  C_7
REMARK    4  A    between atoms: C_7  and  C_8
REMARK    5  A    between atoms: C_7  and  C_9
REMARK    6  A    between atoms: C_10  and  C_11
REMARK                            x       y       z     vdW  Elec       q    Type
REMARK                         _______ _______ _______ _____ _____    ______ ____
ROOT
ATOM      1  N   UNL     1       3.688   4.564  19.106  0.00  0.00    +0.000 N 
ATOM      2  C   UNL     1       2.974   5.739  19.323  0.00  0.00    +0.000 A 
ATOM      3  C   UNL     1       3.375   6.633  18.362  0.00  0.00    +0.000 A 
ATOM      4  N   UNL     1       4.385   5.974  17.602  0.00  0.00    +0.000 N 
ATOM      5  C   UNL     1       4.571   4.724  18.096  0.00  0.00    +0.000 A 
ATOM      6  C   UNL     1       5.535   3.661  17.669  0.00  0.00    +0.000 C 
ATOM      7  C   UNL     1       2.815   7.955  18.234  0.00  0.00    +0.000 C 
ATOM      8  O   UNL     1       3.077   8.805  17.388  0.00  0.00    +0.000 OA
ATOM      9  C   UNL     1       1.788   8.289  19.278  0.00  0.00    +0.000 A 
ATOM     10  C   UNL     1       1.192   9.560  19.271  0.00  0.00    +0.000 A 
ATOM     11  C   UNL     1       0.240   9.905  20.237  0.00  0.00    +0.000 A 
ATOM     12  C   UNL     1      -0.131   8.988  21.217  0.00  0.00    +0.000 A 
ATOM     13  C   UNL     1       0.449   7.723  21.234  0.00  0.00    +0.000 A 
ATOM     14  C   UNL     1       1.406   7.366  20.269  0.00  0.00    +0.000 A 
ATOM     15  C   UNL     1       1.991   6.001  20.335  0.00  0.00    +0.000 C 
ATOM     16  O   UNL     1       1.608   5.236  21.214  0.00  0.00    +0.000 OA
ENDROOT
BRANCH   4  17
ATOM     17  C   UNL     1       5.101   6.595  16.440  0.00  0.00    +0.000 C 
ATOM     18  C   UNL     1       6.469   7.158  16.824  0.00  0.00    +0.000 C 
ATOM     19  C   UNL     1       5.186   5.654  15.240  0.00  0.00    +0.000 C 
ENDBRANCH   4  17
BRANCH   1  21
ATOM     20  C   UNL     1       2.424   2.435  19.260  0.00  0.00    +0.000 C 
ATOM     21  C   UNL     1       3.488   3.319  19.882  0.00  0.00    +0.000 C 
ENDBRANCH   1  21
TORSDOF 2
ENDMDL
MODEL 7
REMARK VINA RESULT:      -5.7      3.006      6.301
REMARK  Name = 
REMARK  6 active torsions:
REMARK  status: ('A' for Active; 'I' for Inactive)
REMARK    1  A    between atoms: C_1  and  C_2
REMARK    2  A    between atoms: C_2  and  N_3
REMARK    3  A    between atoms: N_6  and  C_7
REMARK    4  A    between atoms: C_7  and  C_8
REMARK    5  A    between atoms: C_7  and  C_9
REMARK    6  A    between atoms: C_10  and  C_11
REMARK                            x       y       z     vdW  Elec       q    Type
REMARK                         _______ _______ _______ _____ _____    ______ ____
ROOT
ATOM      1  N   UNL     1      -0.099   9.632  21.189  0.00  0.00    +0.000 N 
ATOM      2  C   UNL     1       0.790   8.975  20.343  0.00  0.00    +0.000 A 
ATOM      3  C   UNL     1       1.055   9.829  19.303  0.00  0.00    +0.000 A 
ATOM      4  N   UNL     1       0.258  10.990  19.526  0.00  0.00    +0.000 N 
ATOM      5  C   UNL     1      -0.454  10.828  20.671  0.00  0.00    +0.000 A 
ATOM      6  C   UNL     1      -1.452  11.741  21.312  0.00  0.00    +0.000 C 
ATOM      7  C   UNL     1       1.980   9.515  18.242  0.00  0.00    +0.000 C 
ATOM      8  O   UNL     1       2.312  10.224  17.297  0.00  0.00    +0.000 OA
ATOM      9  C   UNL     1       2.592   8.146  18.350  0.00  0.00    +0.000 A 
ATOM     10  C   UNL     1       3.489   7.718  17.358  0.00  0.00    +0.000 A 
ATOM     11  C   UNL     1       4.067   6.445  17.424  0.00  0.00    +0.000 A 
ATOM     12  C   UNL     1       3.760   5.587  18.477  0.00  0.00    +0.000 A 
ATOM     13  C   UNL     1       2.876   6.000  19.469  0.00  0.00    +0.000 A 
ATOM     14  C   UNL     1       2.290   7.276  19.413  0.00  0.00    +0.000 A 
ATOM     15  C   UNL     1       1.354   7.665  20.500  0.00  0.00    +0.000 C 
ATOM     16  O   UNL     1       1.140   6.868  21.409  0.00  0.00    +0.000 OA
ENDROOT
BRANCH   4  17
ATOM     17  C   UNL     1       0.241  12.184  18.621  0.00  0.00    +0.000 C 
ATOM     18  C   UNL     1      -1.153  12.490  18.074  0.00  0.00    +0.000 C 
ATOM     19  C   UNL     1       0.884  13.410  19.265  0.00  0.00    +0.000 C 
ENDBRANCH   4  17
BRANCH   1  21
ATOM     20  C   UNL     1       0.320   9.497  23.631  0.00  0.00    +0.000 C 
ATOM     21  C   UNL     1      -0.575   9.082  22.479  0.00  0.00    +0.000 C 
ENDBRANCH   1  21
TORSDOF 2
ENDMDL
MODEL 8
REMARK VINA RESULT:      -5.7      0.961      3.857
REMARK  Name = 
REMARK  6 active torsions:
REMARK  status: ('A' for Active; 'I' for Inactive)
REMARK    1  A    between atoms: C_1  and  C_2
REMARK    2  A    between atoms: C_2  and  N_3
REMARK    3  A    between atoms: N_6  and  C_7
REMARK    4  A    between atoms: C_7  and  C_8
REMARK    5  A    between atoms: C_7  and  C_9
REMARK    6  A    between atoms: C_10  and  C_11
REMARK                            x       y       z     vdW  Elec       q    Type
REMARK                         _______ _______ _______ _____ _____    ______ ____
ROOT
ATOM      1  N   UNL     1       4.138   4.093  17.498  0.00  0.00    +0.000 N 
ATOM      2  C   UNL     1       3.512   5.258  17.932  0.00  0.00    +0.000 A 
ATOM      3  C   UNL     1       2.729   4.915  19.005  0.00  0.00    +0.000 A 
ATOM      4  N   UNL     1       2.866   3.504  19.163  0.00  0.00    +0.000 N 
ATOM      5  C   UNL     1       3.712   3.029  18.213  0.00  0.00    +0.000 A 
ATOM      6  C   UNL     1       4.148   1.624  17.939  0.00  0.00    +0.000 C 
ATOM      7  C   UNL     1       1.960   5.874  19.757  0.00  0.00    +0.000 C 
ATOM      8  O   UNL     1       1.267   5.671  20.750  0.00  0.00    +0.000 OA
ATOM      9  C   UNL     1       2.051   7.279  19.231  0.00  0.00    +0.000 A 
ATOM     10  C   UNL     1       1.321   8.296  19.868  0.00  0.00    +0.000 A 
ATOM     11  C   UNL     1       1.376   9.612  19.395  0.00  0.00    +0.000 A 
ATOM     12  C   UNL     1       2.158   9.930  18.288  0.00  0.00    +0.000 A 
ATOM     13  C   UNL     1       2.889   8.932  17.650  0.00  0.00    +0.000 A 
ATOM     14  C   UNL     1       2.842   7.607  18.116  0.00  0.00    +0.000 A 
ATOM     15  C   UNL     1       3.644   6.583  17.396  0.00  0.00    +0.000 C 
ATOM     16  O   UNL     1       4.326   6.932  16.438  0.00  0.00    +0.000 OA
ENDROOT
BRANCH   4  17
ATOM     17  C   UNL     1       2.175   2.708  20.228  0.00  0.00    +0.000 C 
ATOM     18  C   UNL     1       2.592   3.124  21.638  0.00  0.00    +0.000 C 
ATOM     19  C   UNL     1       0.658   2.703  20.058  0.00  0.00    +0.000 C 
ENDBRANCH   4  17
BRANCH   1  21
ATOM     20  C   UNL     1       6.536   4.341  16.910  0.00  0.00    +0.000 C 
ATOM     21  C   UNL     1       5.136   4.047  16.405  0.00  0.00    +0.000 C 
ENDBRANCH   1  21
TORSDOF 2
ENDMDL
MODEL 9
REMARK VINA RESULT:      -5.7      1.901      4.937
REMARK  Name = 
REMARK  6 active torsions:
REMARK  status: ('A' for Active; 'I' for Inactive)
REMARK    1  A    between atoms: C_1  and  C_2
REMARK    2  A    between atoms: C_2  and  N_3
REMARK    3  A    between atoms: N_6  and  C_7
REMARK    4  A    between atoms: C_7  and  C_8
REMARK    5  A    between atoms: C_7  and  C_9
REMARK    6  A    between atoms: C_10  and  C_11
REMARK                            x       y       z     vdW  Elec       q    Type
REMARK                         _______ _______ _______ _____ _____    ______ ____
ROOT
ATOM      1  N   UNL     1       2.400   4.098  19.161  0.00  0.00    +0.000 N 
ATOM      2  C   UNL     1       3.309   4.381  18.145  0.00  0.00    +0.000 A 
ATOM      3  C   UNL     1       3.425   5.747  18.084  0.00  0.00    +0.000 A 
ATOM      4  N   UNL     1       2.519   6.268  19.054  0.00  0.00    +0.000 N 
ATOM      5  C   UNL     1       1.891   5.239  19.677  0.00  0.00    +0.000 A 
ATOM      6  C   UNL     1       0.836   5.264  20.738  0.00  0.00    +0.000 C 
ATOM      7  C   UNL     1       4.320   6.421  17.177  0.00  0.00    +0.000 C 
ATOM      8  O   UNL     1       4.523   7.628  17.076  0.00  0.00    +0.000 OA
ATOM      9  C   UNL     1       5.081   5.497  16.268  0.00  0.00    +0.000 A 
ATOM     10  C   UNL     1       5.965   6.041  15.322  0.00  0.00    +0.000 A 
ATOM     11  C   UNL     1       6.679   5.207  14.455  0.00  0.00    +0.000 A 
ATOM     12  C   UNL     1       6.524   3.825  14.521  0.00  0.00    +0.000 A 
ATOM     13  C   UNL     1       5.654   3.272  15.456  0.00  0.00    +0.000 A 
ATOM     14  C   UNL     1       4.932   4.100  16.332  0.00  0.00    +0.000 A 
ATOM     15  C   UNL     1       4.018   3.454  17.312  0.00  0.00    +0.000 C 
ATOM     16  O   UNL     1       3.941   2.230  17.329  0.00  0.00    +0.000 OA
ENDROOT
BRANCH   4  17
ATOM     17  C   UNL     1       2.326   7.730  19.322  0.00  0.00    +0.000 C 
ATOM     18  C   UNL     1       1.593   8.445  18.187  0.00  0.00    +0.000 C 
ATOM     19  C   UNL     1       1.674   7.992  20.678  0.00  0.00    +0.000 C 
ENDBRANCH   4  17
BRANCH   1  21
ATOM     20  C   UNL     1       0.844   2.188  18.872  0.00  0.00    +0.000 C 
ATOM     21  C   UNL     1       2.056   2.728  19.606  0.00  0.00    +0.000 C 
ENDBRANCH   1  21
TORSDOF 2
ENDMDL
