MODEL 1
REMARK VINA RESULT:      -7.7      0.000      0.000
REMARK  Name = 
REMARK  4 active torsions:
REMARK  status: ('A' for Active; 'I' for Inactive)
REMARK    1  A    between atoms: C_2  and  C_3
REMARK    2  A    between atoms: N_6  and  S_7
REMARK    3  A    between atoms: S_7  and  C_10
REMARK    4  A    between atoms: N_21  and  C_22
REMARK                            x       y       z     vdW  Elec       q    Type
REMARK                         _______ _______ _______ _____ _____    ______ ____
ROOT
ATOM      1  O   UNL     1       2.022   6.448  20.808  0.00  0.00    +0.000 OA
ATOM      2  C   UNL     1       1.691   7.347  20.033  0.00  0.00    +0.000 C 
ATOM      3  N   UNL     1       1.388   8.617  20.491  0.00  0.00    +0.000 N 
ATOM      4  C   UNL     1       0.835   9.729  19.693  0.00  0.00    +0.000 C 
ATOM      5  C   UNL     1      -0.517  10.214  20.262  0.00  0.00    +0.000 C 
ATOM      6  N   UNL     1      -0.331  10.547  21.680  0.00  0.00    +0.000 N 
ATOM      7  C   UNL     1       0.165   9.432  22.511  0.00  0.00    +0.000 C 
ATOM      8  C   UNL     1       1.497   8.913  21.932  0.00  0.00    +0.000 C 
ENDROOT
BRANCH   6   9
ATOM      9  C   UNL     1      -0.891  11.662  22.263  0.00  0.00    +0.000 A 
ATOM     10  C   UNL     1      -0.315  12.927  22.061  0.00  0.00    +0.000 A 
ATOM     11  C   UNL     1      -0.872  14.090  22.595  0.00  0.00    +0.000 A 
ATOM     12  C   UNL     1      -2.032  14.011  23.357  0.00  0.00    +0.000 A 
ATOM     13  C   UNL     1      -2.623  12.770  23.569  0.00  0.00    +0.000 A 
ATOM     14 CL   UNL     1      -4.058  12.664  24.515  0.00  0.00    +0.000 Cl
ATOM     15  C   UNL     1      -2.067  11.610  23.022  0.00  0.00    +0.000 A 
ENDBRANCH   6   9
BRANCH   2  16
ATOM     16  C   UNL     1       1.675   7.104  18.521  0.00  0.00    +0.000 C 
ATOM     17  C   UNL     1       1.778   5.622  18.150  0.00  0.00    +0.000 C 
ATOM     18  C   UNL     1       3.169   5.030  18.346  0.00  0.00    +0.000 C 
ATOM     19  N   UNL     1       4.204   5.858  17.661  0.00  0.00    +0.000 NA
ATOM     20  C   UNL     1       4.170   7.280  18.114  0.00  0.00    +0.000 C 
ATOM     21  C   UNL     1       2.797   7.895  17.844  0.00  0.00    +0.000 C 
BRANCH  19  22
ATOM     22  S   UNL     1       5.794   5.192  17.788  0.00  0.00    +0.000 S 
ATOM     23  O   UNL     1       6.678   6.220  18.290  0.00  0.00    +0.000 OA
ATOM     24  O   UNL     1       5.681   3.912  18.453  0.00  0.00    +0.000 OA
BRANCH  22  25
ATOM     25  C   UNL     1       6.250   4.899  16.113  0.00  0.00    +0.000 A 
ATOM     26  C   UNL     1       5.513   4.056  15.286  0.00  0.00    +0.000 A 
ATOM     27  C   UNL     1       5.941   3.866  13.975  0.00  0.00    +0.000 A 
ATOM     28  C   UNL     1       7.084   4.532  13.552  0.00  0.00    +0.000 A 
ATOM     29  N   UNL     1       7.813   5.353  14.342  0.00  0.00    +0.000 NA
ATOM     30  C   UNL     1       7.385   5.513  15.618  0.00  0.00    +0.000 A 
ENDBRANCH  22  25
ENDBRANCH  19  22
ENDBRANCH   2  16
TORSDOF 4
ENDMDL
MODEL 2
REMARK VINA RESULT:      -7.4      0.989      1.320
REMARK  Name = 
REMARK  4 active torsions:
REMARK  status: ('A' for Active; 'I' for Inactive)
REMARK    1  A    between atoms: C_2  and  C_3
REMARK    2  A    between atoms: N_6  and  S_7
REMARK    3  A    between atoms: S_7  and  C_10
REMARK    4  A    between atoms: N_21  and  C_22
REMARK                            x       y       z     vdW  Elec       q    Type
REMARK                         _______ _______ _______ _____ _____    ______ ____
ROOT
ATOM      1  O   UNL     1       1.977   6.517  20.852  0.00  0.00    +0.000 OA
ATOM      2  C   UNL     1       1.660   7.416  20.071  0.00  0.00    +0.000 C 
ATOM      3  N   UNL     1       1.365   8.691  20.522  0.00  0.00    +0.000 N 
ATOM      4  C   UNL     1       0.828   9.804  19.716  0.00  0.00    +0.000 C 
ATOM      5  C   UNL     1      -0.524  10.304  20.274  0.00  0.00    +0.000 C 
ATOM      6  N   UNL     1      -0.344  10.641  21.691  0.00  0.00    +0.000 N 
ATOM      7  C   UNL     1       0.136   9.525  22.530  0.00  0.00    +0.000 C 
ATOM      8  C   UNL     1       1.467   8.991  21.962  0.00  0.00    +0.000 C 
ENDROOT
BRANCH   6   9
ATOM      9  C   UNL     1      -0.898  11.763  22.266  0.00  0.00    +0.000 A 
ATOM     10  C   UNL     1      -2.055  11.655  23.053  0.00  0.00    +0.000 A 
ATOM     11  C   UNL     1      -2.625  12.758  23.691  0.00  0.00    +0.000 A 
ATOM     12  C   UNL     1      -2.043  14.013  23.549  0.00  0.00    +0.000 A 
ATOM     13  C   UNL     1      -0.895  14.145  22.776  0.00  0.00    +0.000 A 
ATOM     14 CL   UNL     1      -0.171  15.697  22.592  0.00  0.00    +0.000 Cl
ATOM     15  C   UNL     1      -0.322  13.035  22.149  0.00  0.00    +0.000 A 
ENDBRANCH   6   9
BRANCH   2  16
ATOM     16  C   UNL     1       1.652   7.167  18.560  0.00  0.00    +0.000 C 
ATOM     17  C   UNL     1       1.631   5.679  18.197  0.00  0.00    +0.000 C 
ATOM     18  C   UNL     1       2.960   4.969  18.423  0.00  0.00    +0.000 C 
ATOM     19  N   UNL     1       4.077   5.698  17.755  0.00  0.00    +0.000 NA
ATOM     20  C   UNL     1       4.160   7.120  18.202  0.00  0.00    +0.000 C 
ATOM     21  C   UNL     1       2.852   7.852  17.902  0.00  0.00    +0.000 C 
BRANCH  19  22
ATOM     22  S   UNL     1       5.600   4.896  17.916  0.00  0.00    +0.000 S 
ATOM     23  O   UNL     1       6.513   5.787  18.597  0.00  0.00    +0.000 OA
ATOM     24  O   UNL     1       5.342   3.563  18.417  0.00  0.00    +0.000 OA
BRANCH  22  25
ATOM     25  C   UNL     1       6.166   4.756  16.255  0.00  0.00    +0.000 A 
ATOM     26  C   UNL     1       5.528   3.937  15.327  0.00  0.00    +0.000 A 
ATOM     27  C   UNL     1       6.041   3.871  14.034  0.00  0.00    +0.000 A 
ATOM     28  C   UNL     1       7.164   4.628  13.730  0.00  0.00    +0.000 A 
ATOM     29  N   UNL     1       7.797   5.427  14.620  0.00  0.00    +0.000 NA
ATOM     30  C   UNL     1       7.289   5.467  15.875  0.00  0.00    +0.000 A 
ENDBRANCH  22  25
ENDBRANCH  19  22
ENDBRANCH   2  16
TORSDOF 4
ENDMDL
MODEL 3
REMARK VINA RESULT:      -7.3      5.009     10.869
REMARK  Name = 
REMARK  4 active torsions:
REMARK  status: ('A' for Active; 'I' for Inactive)
REMARK    1  A    between atoms: C_2  and  C_3
REMARK    2  A    between atoms: N_6  and  S_7
REMARK    3  A    between atoms: S_7  and  C_10
REMARK    4  A    between atoms: N_21  and  C_22
REMARK                            x       y       z     vdW  Elec       q    Type
REMARK                         _______ _______ _______ _____ _____    ______ ____
ROOT
ATOM      1  O   UNL     1       0.933  10.663  21.720  0.00  0.00    +0.000 OA
ATOM      2  C   UNL     1       0.917  10.627  20.489  0.00  0.00    +0.000 C 
ATOM      3  N   UNL     1       0.999   9.429  19.802  0.00  0.00    +0.000 N 
ATOM      4  C   UNL     1       1.144   9.262  18.343  0.00  0.00    +0.000 C 
ATOM      5  C   UNL     1       2.428   8.479  17.989  0.00  0.00    +0.000 C 
ATOM      6  N   UNL     1       2.414   7.209  18.725  0.00  0.00    +0.000 N 
ATOM      7  C   UNL     1       2.329   7.351  20.191  0.00  0.00    +0.000 C 
ATOM      8  C   UNL     1       1.071   8.164  20.557  0.00  0.00    +0.000 C 
ENDROOT
BRANCH   6   9
ATOM      9  C   UNL     1       2.798   6.014  18.157  0.00  0.00    +0.000 A 
ATOM     10  C   UNL     1       1.911   4.925  18.138  0.00  0.00    +0.000 A 
ATOM     11  C   UNL     1       2.240   3.711  17.533  0.00  0.00    +0.000 A 
ATOM     12  C   UNL     1       3.483   3.555  16.930  0.00  0.00    +0.000 A 
ATOM     13  C   UNL     1       4.377   4.620  16.934  0.00  0.00    +0.000 A 
ATOM     14 CL   UNL     1       5.920   4.434  16.191  0.00  0.00    +0.000 Cl
ATOM     15  C   UNL     1       4.038   5.838  17.530  0.00  0.00    +0.000 A 
ENDBRANCH   6   9
BRANCH   2  16
ATOM     16  C   UNL     1       0.732  11.912  19.676  0.00  0.00    +0.000 C 
ATOM     17  C   UNL     1       1.265  13.157  20.391  0.00  0.00    +0.000 C 
ATOM     18  C   UNL     1       0.393  13.627  21.549  0.00  0.00    +0.000 C 
ATOM     19  N   UNL     1      -1.026  13.787  21.118  0.00  0.00    +0.000 NA
ATOM     20  C   UNL     1      -1.574  12.531  20.525  0.00  0.00    +0.000 C 
ATOM     21  C   UNL     1      -0.743  12.104  19.315  0.00  0.00    +0.000 C 
BRANCH  19  22
ATOM     22  S   UNL     1      -2.049  14.391  22.374  0.00  0.00    +0.000 S 
ATOM     23  O   UNL     1      -1.755  13.663  23.589  0.00  0.00    +0.000 OA
ATOM     24  O   UNL     1      -1.987  15.836  22.334  0.00  0.00    +0.000 OA
BRANCH  22  25
ATOM     25  C   UNL     1      -3.660  13.899  21.862  0.00  0.00    +0.000 A 
ATOM     26  C   UNL     1      -4.348  14.568  20.854  0.00  0.00    +0.000 A 
ATOM     27  C   UNL     1      -5.623  14.126  20.509  0.00  0.00    +0.000 A 
ATOM     28  C   UNL     1      -6.147  13.033  21.187  0.00  0.00    +0.000 A 
ATOM     29  N   UNL     1      -5.493  12.373  22.170  0.00  0.00    +0.000 NA
ATOM     30  C   UNL     1      -4.260  12.827  22.497  0.00  0.00    +0.000 A 
ENDBRANCH  22  25
ENDBRANCH  19  22
ENDBRANCH   2  16
TORSDOF 4
ENDMDL
MODEL 4
REMARK VINA RESULT:      -7.3      4.869     10.831
REMARK  Name = 
REMARK  4 active torsions:
REMARK  status: ('A' for Active; 'I' for Inactive)
REMARK    1  A    between atoms: C_2  and  C_3
REMARK    2  A    between atoms: N_6  and  S_7
REMARK    3  A    between atoms: S_7  and  C_10
REMARK    4  A    between atoms: N_21  and  C_22
REMARK                            x       y       z     vdW  Elec       q    Type
REMARK                         _______ _______ _______ _____ _____    ______ ____
ROOT
ATOM      1  O   UNL     1       0.812  10.559  21.711  0.00  0.00    +0.000 OA
ATOM      2  C   UNL     1       0.811  10.556  20.479  0.00  0.00    +0.000 C 
ATOM      3  N   UNL     1       0.978   9.385  19.761  0.00  0.00    +0.000 N 
ATOM      4  C   UNL     1       1.148   9.269  18.300  0.00  0.00    +0.000 C 
ATOM      5  C   UNL     1       2.485   8.582  17.941  0.00  0.00    +0.000 C 
ATOM      6  N   UNL     1       2.547   7.294  18.642  0.00  0.00    +0.000 N 
ATOM      7  C   UNL     1       2.438   7.390  20.110  0.00  0.00    +0.000 C 
ATOM      8  C   UNL     1       1.125   8.108  20.483  0.00  0.00    +0.000 C 
ENDROOT
BRANCH   6   9
ATOM      9  C   UNL     1       3.014   6.143  18.046  0.00  0.00    +0.000 A 
ATOM     10  C   UNL     1       4.199   6.171  17.292  0.00  0.00    +0.000 A 
ATOM     11  C   UNL     1       4.733   5.021  16.707  0.00  0.00    +0.000 A 
ATOM     12  C   UNL     1       4.083   3.803  16.863  0.00  0.00    +0.000 A 
ATOM     13  C   UNL     1       2.910   3.750  17.608  0.00  0.00    +0.000 A 
ATOM     14 CL   UNL     1       2.096   2.244  17.802  0.00  0.00    +0.000 Cl
ATOM     15  C   UNL     1       2.384   4.902  18.201  0.00  0.00    +0.000 A 
ENDBRANCH   6   9
BRANCH   2  16
ATOM     16  C   UNL     1       0.549  11.849  19.699  0.00  0.00    +0.000 C 
ATOM     17  C   UNL     1       1.011  13.104  20.445  0.00  0.00    +0.000 C 
ATOM     18  C   UNL     1       0.116  13.494  21.615  0.00  0.00    +0.000 C 
ATOM     19  N   UNL     1      -1.311  13.582  21.190  0.00  0.00    +0.000 NA
ATOM     20  C   UNL     1      -1.787  12.311  20.566  0.00  0.00    +0.000 C 
ATOM     21  C   UNL     1      -0.935  11.964  19.345  0.00  0.00    +0.000 C 
BRANCH  19  22
ATOM     22  S   UNL     1      -2.364  14.094  22.462  0.00  0.00    +0.000 S 
ATOM     23  O   UNL     1      -2.161  13.222  23.598  0.00  0.00    +0.000 OA
ATOM     24  O   UNL     1      -2.235  15.529  22.587  0.00  0.00    +0.000 OA
BRANCH  22  25
ATOM     25  C   UNL     1      -3.969  13.743  21.830  0.00  0.00    +0.000 A 
ATOM     26  C   UNL     1      -4.509  14.448  20.758  0.00  0.00    +0.000 A 
ATOM     27  C   UNL     1      -5.789  14.119  20.319  0.00  0.00    +0.000 A 
ATOM     28  C   UNL     1      -6.467  13.099  20.972  0.00  0.00    +0.000 A 
ATOM     29  N   UNL     1      -5.959  12.405  22.017  0.00  0.00    +0.000 NA
ATOM     30  C   UNL     1      -4.717  12.749  22.434  0.00  0.00    +0.000 A 
ENDBRANCH  22  25
ENDBRANCH  19  22
ENDBRANCH   2  16
TORSDOF 4
ENDMDL
MODEL 5
REMARK VINA RESULT:      -7.3      5.473     10.974
REMARK  Name = 
REMARK  4 active torsions:
REMARK  status: ('A' for Active; 'I' for Inactive)
REMARK    1  A    between atoms: C_2  and  C_3
REMARK    2  A    between atoms: N_6  and  S_7
REMARK    3  A    between atoms: S_7  and  C_10
REMARK    4  A    between atoms: N_21  and  C_22
REMARK                            x       y       z     vdW  Elec       q    Type
REMARK                         _______ _______ _______ _____ _____    ______ ____
ROOT
ATOM      1  O   UNL     1       0.118  11.045  21.822  0.00  0.00    +0.000 OA
ATOM      2  C   UNL     1       0.118  11.011  20.590  0.00  0.00    +0.000 C 
ATOM      3  N   UNL     1       0.408   9.847  19.901  0.00  0.00    +0.000 N 
ATOM      4  C   UNL     1       0.590   9.712  18.443  0.00  0.00    +0.000 C 
ATOM      5  C   UNL     1       1.991   9.161  18.097  0.00  0.00    +0.000 C 
ATOM      6  N   UNL     1       2.189   7.904  18.830  0.00  0.00    +0.000 N 
ATOM      7  C   UNL     1       2.070   8.025  20.296  0.00  0.00    +0.000 C 
ATOM      8  C   UNL     1       0.689   8.611  20.654  0.00  0.00    +0.000 C 
ENDROOT
BRANCH   6   9
ATOM      9  C   UNL     1       2.775   6.795  18.262  0.00  0.00    +0.000 A 
ATOM     10  C   UNL     1       2.152   5.540  18.360  0.00  0.00    +0.000 A 
ATOM     11  C   UNL     1       2.686   4.398  17.762  0.00  0.00    +0.000 A 
ATOM     12  C   UNL     1       3.874   4.486  17.047  0.00  0.00    +0.000 A 
ATOM     13  C   UNL     1       4.509   5.718  16.934  0.00  0.00    +0.000 A 
ATOM     14 CL   UNL     1       5.984   5.834  16.052  0.00  0.00    +0.000 Cl
ATOM     15  C   UNL     1       3.964   6.862  17.525  0.00  0.00    +0.000 A 
ENDBRANCH   6   9
BRANCH   2  16
ATOM     16  C   UNL     1      -0.278  12.249  19.779  0.00  0.00    +0.000 C 
ATOM     17  C   UNL     1      -0.352  13.523  20.625  0.00  0.00    +0.000 C 
ATOM     18  C   UNL     1      -1.571  13.590  21.537  0.00  0.00    +0.000 C 
ATOM     19  N   UNL     1      -2.827  13.347  20.770  0.00  0.00    +0.000 NA
ATOM     20  C   UNL     1      -2.791  12.046  20.038  0.00  0.00    +0.000 C 
ATOM     21  C   UNL     1      -1.612  12.012  19.066  0.00  0.00    +0.000 C 
BRANCH  19  22
ATOM     22  S   UNL     1      -4.250  13.484  21.743  0.00  0.00    +0.000 S 
ATOM     23  O   UNL     1      -4.246  12.408  22.709  0.00  0.00    +0.000 OA
ATOM     24  O   UNL     1      -4.363  14.865  22.161  0.00  0.00    +0.000 OA
BRANCH  22  25
ATOM     25  C   UNL     1      -5.554  13.148  20.609  0.00  0.00    +0.000 A 
ATOM     26  C   UNL     1      -6.297  11.973  20.669  0.00  0.00    +0.000 A 
ATOM     27  C   UNL     1      -7.307  11.773  19.731  0.00  0.00    +0.000 A 
ATOM     28  C   UNL     1      -7.528  12.761  18.780  0.00  0.00    +0.000 A 
ATOM     29  N   UNL     1      -6.815  13.908  18.706  0.00  0.00    +0.000 NA
ATOM     30  C   UNL     1      -5.829  14.076  19.621  0.00  0.00    +0.000 A 
ENDBRANCH  22  25
ENDBRANCH  19  22
ENDBRANCH   2  16
TORSDOF 4
ENDMDL
MODEL 6
REMARK VINA RESULT:      -7.2      5.368     10.850
REMARK  Name = 
REMARK  4 active torsions:
REMARK  status: ('A' for Active; 'I' for Inactive)
REMARK    1  A    between atoms: C_2  and  C_3
REMARK    2  A    between atoms: N_6  and  S_7
REMARK    3  A    between atoms: S_7  and  C_10
REMARK    4  A    between atoms: N_21  and  C_22
REMARK                            x       y       z     vdW  Elec       q    Type
REMARK                         _______ _______ _______ _____ _____    ______ ____
ROOT
ATOM      1  O   UNL     1       0.330  11.220  21.627  0.00  0.00    +0.000 OA
ATOM      2  C   UNL     1       0.255  11.128  20.400  0.00  0.00    +0.000 C 
ATOM      3  N   UNL     1       0.507   9.932  19.751  0.00  0.00    +0.000 N 
ATOM      4  C   UNL     1       0.601   9.729  18.292  0.00  0.00    +0.000 C 
ATOM      5  C   UNL     1       1.981   9.163  17.889  0.00  0.00    +0.000 C 
ATOM      6  N   UNL     1       2.228   7.943  18.667  0.00  0.00    +0.000 N 
ATOM      7  C   UNL     1       2.198   8.134  20.130  0.00  0.00    +0.000 C 
ATOM      8  C   UNL     1       0.839   8.734  20.544  0.00  0.00    +0.000 C 
ENDROOT
BRANCH   6   9
ATOM      9  C   UNL     1       2.783   6.809  18.118  0.00  0.00    +0.000 A 
ATOM     10  C   UNL     1       4.013   6.880  17.445  0.00  0.00    +0.000 A 
ATOM     11  C   UNL     1       4.634   5.750  16.911  0.00  0.00    +0.000 A 
ATOM     12  C   UNL     1       4.027   4.506  17.037  0.00  0.00    +0.000 A 
ATOM     13  C   UNL     1       2.809   4.409  17.702  0.00  0.00    +0.000 A 
ATOM     14 CL   UNL     1       2.049   2.871  17.859  0.00  0.00    +0.000 Cl
ATOM     15  C   UNL     1       2.197   5.543  18.244  0.00  0.00    +0.000 A 
ENDBRANCH   6   9
BRANCH   2  16
ATOM     16  C   UNL     1      -0.195  12.325  19.557  0.00  0.00    +0.000 C 
ATOM     17  C   UNL     1      -0.313  13.619  20.366  0.00  0.00    +0.000 C 
ATOM     18  C   UNL     1      -1.527  13.666  21.286  0.00  0.00    +0.000 C 
ATOM     19  N   UNL     1      -2.778  13.351  20.536  0.00  0.00    +0.000 NA
ATOM     20  C   UNL     1      -2.696  12.032  19.843  0.00  0.00    +0.000 C 
ATOM     21  C   UNL     1      -1.523  12.016  18.862  0.00  0.00    +0.000 C 
BRANCH  19  22
ATOM     22  S   UNL     1      -4.198  13.462  21.516  0.00  0.00    +0.000 S 
ATOM     23  O   UNL     1      -4.198  12.352  22.443  0.00  0.00    +0.000 OA
ATOM     24  O   UNL     1      -4.303  14.827  21.983  0.00  0.00    +0.000 OA
BRANCH  22  25
ATOM     25  C   UNL     1      -5.506  13.173  20.374  0.00  0.00    +0.000 A 
ATOM     26  C   UNL     1      -6.150  11.942  20.288  0.00  0.00    +0.000 A 
ATOM     27  C   UNL     1      -7.170  11.786  19.352  0.00  0.00    +0.000 A 
ATOM     28  C   UNL     1      -7.499  12.870  18.550  0.00  0.00    +0.000 A 
ATOM     29  N   UNL     1      -6.884  14.073  18.619  0.00  0.00    +0.000 NA
ATOM     30  C   UNL     1      -5.886  14.199  19.528  0.00  0.00    +0.000 A 
ENDBRANCH  22  25
ENDBRANCH  19  22
ENDBRANCH   2  16
TORSDOF 4
ENDMDL
MODEL 7
REMARK VINA RESULT:      -7.2      4.950     10.718
REMARK  Name = 
REMARK  4 active torsions:
REMARK  status: ('A' for Active; 'I' for Inactive)
REMARK    1  A    between atoms: C_2  and  C_3
REMARK    2  A    between atoms: N_6  and  S_7
REMARK    3  A    between atoms: S_7  and  C_10
REMARK    4  A    between atoms: N_21  and  C_22
REMARK                            x       y       z     vdW  Elec       q    Type
REMARK                         _______ _______ _______ _____ _____    ______ ____
ROOT
ATOM      1  O   UNL     1       0.952  10.928  21.454  0.00  0.00    +0.000 OA
ATOM      2  C   UNL     1       1.075  10.855  20.230  0.00  0.00    +0.000 C 
ATOM      3  N   UNL     1       1.100   9.634  19.579  0.00  0.00    +0.000 N 
ATOM      4  C   UNL     1       1.394   9.407  18.151  0.00  0.00    +0.000 C 
ATOM      5  C   UNL     1       2.614   8.477  17.966  0.00  0.00    +0.000 C 
ATOM      6  N   UNL     1       2.372   7.240  18.719  0.00  0.00    +0.000 N 
ATOM      7  C   UNL     1       2.135   7.437  20.162  0.00  0.00    +0.000 C 
ATOM      8  C   UNL     1       0.942   8.394  20.361  0.00  0.00    +0.000 C 
ENDROOT
BRANCH   6   9
ATOM      9  C   UNL     1       2.683   5.994  18.222  0.00  0.00    +0.000 A 
ATOM     10  C   UNL     1       1.770   4.935  18.352  0.00  0.00    +0.000 A 
ATOM     11  C   UNL     1       2.022   3.667  17.825  0.00  0.00    +0.000 A 
ATOM     12  C   UNL     1       3.213   3.427  17.150  0.00  0.00    +0.000 A 
ATOM     13  C   UNL     1       4.132   4.460  17.005  0.00  0.00    +0.000 A 
ATOM     14 CL   UNL     1       5.612   4.169  16.172  0.00  0.00    +0.000 Cl
ATOM     15  C   UNL     1       3.869   5.731  17.525  0.00  0.00    +0.000 A 
ENDBRANCH   6   9
BRANCH   2  16
ATOM     16  C   UNL     1       1.130  12.127  19.378  0.00  0.00    +0.000 C 
ATOM     17  C   UNL     1       1.991  13.230  20.000  0.00  0.00    +0.000 C 
ATOM     18  C   UNL     1       1.345  13.921  21.194  0.00  0.00    +0.000 C 
ATOM     19  N   UNL     1      -0.028  14.398  20.857  0.00  0.00    +0.000 NA
ATOM     20  C   UNL     1      -0.897  13.290  20.358  0.00  0.00    +0.000 C 
ATOM     21  C   UNL     1      -0.283  12.650  19.112  0.00  0.00    +0.000 C 
BRANCH  19  22
ATOM     22  S   UNL     1      -0.783  15.256  22.154  0.00  0.00    +0.000 S 
ATOM     23  O   UNL     1       0.063  15.149  23.322  0.00  0.00    +0.000 OA
ATOM     24  O   UNL     1      -1.195  16.547  21.644  0.00  0.00    +0.000 OA
BRANCH  22  25
ATOM     25  C   UNL     1      -2.231  14.311  22.482  0.00  0.00    +0.000 A 
ATOM     26  C   UNL     1      -2.211  13.201  23.323  0.00  0.00    +0.000 A 
ATOM     27  C   UNL     1      -3.395  12.497  23.527  0.00  0.00    +0.000 A 
ATOM     28  C   UNL     1      -4.543  12.938  22.882  0.00  0.00    +0.000 A 
ATOM     29  N   UNL     1      -4.580  14.012  22.061  0.00  0.00    +0.000 NA
ATOM     30  C   UNL     1      -3.414  14.675  21.867  0.00  0.00    +0.000 A 
ENDBRANCH  22  25
ENDBRANCH  19  22
ENDBRANCH   2  16
TORSDOF 4
ENDMDL
MODEL 8
REMARK VINA RESULT:      -7.2      5.460      9.306
REMARK  Name = 
REMARK  4 active torsions:
REMARK  status: ('A' for Active; 'I' for Inactive)
REMARK    1  A    between atoms: C_2  and  C_3
REMARK    2  A    between atoms: N_6  and  S_7
REMARK    3  A    between atoms: S_7  and  C_10
REMARK    4  A    between atoms: N_21  and  C_22
REMARK                            x       y       z     vdW  Elec       q    Type
REMARK                         _______ _______ _______ _____ _____    ______ ____
ROOT
ATOM      1  O   UNL     1       1.100  12.204  20.928  0.00  0.00    +0.000 OA
ATOM      2  C   UNL     1       1.040  11.717  19.798  0.00  0.00    +0.000 C 
ATOM      3  N   UNL     1       0.898  10.353  19.608  0.00  0.00    +0.000 N 
ATOM      4  C   UNL     1       0.968   9.635  18.320  0.00  0.00    +0.000 C 
ATOM      5  C   UNL     1       2.091   8.574  18.326  0.00  0.00    +0.000 C 
ATOM      6  N   UNL     1       1.887   7.689  19.480  0.00  0.00    +0.000 N 
ATOM      7  C   UNL     1       1.872   8.378  20.785  0.00  0.00    +0.000 C 
ATOM      8  C   UNL     1       0.780   9.467  20.780  0.00  0.00    +0.000 C 
ENDROOT
BRANCH   6   9
ATOM      9  C   UNL     1       2.047   6.324  19.409  0.00  0.00    +0.000 A 
ATOM     10  C   UNL     1       2.436   5.721  18.201  0.00  0.00    +0.000 A 
ATOM     11  C   UNL     1       2.653   4.347  18.093  0.00  0.00    +0.000 A 
ATOM     12  C   UNL     1       2.479   3.532  19.206  0.00  0.00    +0.000 A 
ATOM     13  C   UNL     1       2.097   4.105  20.414  0.00  0.00    +0.000 A 
ATOM     14 CL   UNL     1       1.877   3.102  21.797  0.00  0.00    +0.000 Cl
ATOM     15  C   UNL     1       1.892   5.484  20.519  0.00  0.00    +0.000 A 
ENDBRANCH   6   9
BRANCH   2  16
ATOM     16  C   UNL     1       1.048  12.620  18.561  0.00  0.00    +0.000 C 
ATOM     17  C   UNL     1       2.460  12.984  18.092  0.00  0.00    +0.000 C 
ATOM     18  C   UNL     1       3.164  14.001  18.981  0.00  0.00    +0.000 C 
ATOM     19  N   UNL     1       2.311  15.207  19.194  0.00  0.00    +0.000 NA
ATOM     20  C   UNL     1       0.975  14.851  19.759  0.00  0.00    +0.000 C 
ATOM     21  C   UNL     1       0.238  13.891  18.826  0.00  0.00    +0.000 C 
BRANCH  19  22
ATOM     22  S   UNL     1       3.091  16.429  20.136  0.00  0.00    +0.000 S 
ATOM     23  O   UNL     1       3.906  17.232  19.252  0.00  0.00    +0.000 OA
ATOM     24  O   UNL     1       2.088  17.034  20.985  0.00  0.00    +0.000 OA
BRANCH  22  25
ATOM     25  C   UNL     1       4.194  15.514  21.158  0.00  0.00    +0.000 A 
ATOM     26  C   UNL     1       5.524  15.306  20.805  0.00  0.00    +0.000 A 
ATOM     27  C   UNL     1       6.334  14.564  21.661  0.00  0.00    +0.000 A 
ATOM     28  C   UNL     1       5.775  14.068  22.831  0.00  0.00    +0.000 A 
ATOM     29  N   UNL     1       4.485  14.259  23.189  0.00  0.00    +0.000 NA
ATOM     30  C   UNL     1       3.712  14.973  22.336  0.00  0.00    +0.000 A 
ENDBRANCH  22  25
ENDBRANCH  19  22
ENDBRANCH   2  16
TORSDOF 4
ENDMDL
MODEL 9
REMARK VINA RESULT:      -7.1      1.059      1.077
REMARK  Name = 
REMARK  4 active torsions:
REMARK  status: ('A' for Active; 'I' for Inactive)
REMARK    1  A    between atoms: C_2  and  C_3
REMARK    2  A    between atoms: N_6  and  S_7
REMARK    3  A    between atoms: S_7  and  C_10
REMARK    4  A    between atoms: N_21  and  C_22
REMARK                            x       y       z     vdW  Elec       q    Type
REMARK                         _______ _______ _______ _____ _____    ______ ____
ROOT
ATOM      1  O   UNL     1       2.030   7.164  20.512  0.00  0.00    +0.000 OA
ATOM      2  C   UNL     1       1.625   8.013  19.717  0.00  0.00    +0.000 C 
ATOM      3  N   UNL     1       1.178   9.249  20.150  0.00  0.00    +0.000 N 
ATOM      4  C   UNL     1       0.530  10.287  19.324  0.00  0.00    +0.000 C 
ATOM      5  C   UNL     1      -0.880  10.632  19.855  0.00  0.00    +0.000 C 
ATOM      6  N   UNL     1      -0.765  10.998  21.271  0.00  0.00    +0.000 N 
ATOM      7  C   UNL     1      -0.174   9.953  22.129  0.00  0.00    +0.000 C 
ATOM      8  C   UNL     1       1.220   9.571  21.588  0.00  0.00    +0.000 C 
ENDROOT
BRANCH   6   9
ATOM      9  C   UNL     1      -1.453  12.055  21.825  0.00  0.00    +0.000 A 
ATOM     10  C   UNL     1      -0.920  12.746  22.925  0.00  0.00    +0.000 A 
ATOM     11  C   UNL     1      -1.560  13.850  23.491  0.00  0.00    +0.000 A 
ATOM     12  C   UNL     1      -2.769  14.289  22.963  0.00  0.00    +0.000 A 
ATOM     13  C   UNL     1      -3.316  13.623  21.873  0.00  0.00    +0.000 A 
ATOM     14 CL   UNL     1      -4.816  14.160  21.216  0.00  0.00    +0.000 Cl
ATOM     15  C   UNL     1      -2.665  12.525  21.303  0.00  0.00    +0.000 A 
ENDBRANCH   6   9
BRANCH   2  16
ATOM     16  C   UNL     1       1.672   7.752  18.209  0.00  0.00    +0.000 C 
ATOM     17  C   UNL     1       1.450   6.281  17.847  0.00  0.00    +0.000 C 
ATOM     18  C   UNL     1       2.641   5.381  18.156  0.00  0.00    +0.000 C 
ATOM     19  N   UNL     1       3.894   5.928  17.557  0.00  0.00    +0.000 NA
ATOM     20  C   UNL     1       4.162   7.327  18.007  0.00  0.00    +0.000 C 
ATOM     21  C   UNL     1       2.999   8.243  17.626  0.00  0.00    +0.000 C 
BRANCH  19  22
ATOM     22  S   UNL     1       5.266   4.908  17.814  0.00  0.00    +0.000 S 
ATOM     23  O   UNL     1       6.216   5.624  18.636  0.00  0.00    +0.000 OA
ATOM     24  O   UNL     1       4.776   3.603  18.200  0.00  0.00    +0.000 OA
BRANCH  22  25
ATOM     25  C   UNL     1       5.979   4.772  16.210  0.00  0.00    +0.000 A 
ATOM     26  C   UNL     1       5.420   3.966  15.222  0.00  0.00    +0.000 A 
ATOM     27  C   UNL     1       6.047   3.902  13.980  0.00  0.00    +0.000 A 
ATOM     28  C   UNL     1       7.201   4.650  13.785  0.00  0.00    +0.000 A 
ATOM     29  N   UNL     1       7.758   5.436  14.734  0.00  0.00    +0.000 NA
ATOM     30  C   UNL     1       7.139   5.474  15.938  0.00  0.00    +0.000 A 
ENDBRANCH  22  25
ENDBRANCH  19  22
ENDBRANCH   2  16
TORSDOF 4
ENDMDL
