MODEL 1
REMARK VINA RESULT:      -8.1      0.000      0.000
REMARK  Name = 
REMARK  6 active torsions:
REMARK  status: ('A' for Active; 'I' for Inactive)
REMARK    1  A    between atoms: C_2  and  C_3
REMARK    2  A    between atoms: C_3  and  N_4
REMARK    3  A    between atoms: C_8  and  C_9
REMARK    4  A    between atoms: C_9  and  C_11
REMARK    5  A    between atoms: N_17  and  C_18
REMARK    6  A    between atoms: C_18  and  C_19
REMARK                            x       y       z     vdW  Elec       q    Type
REMARK                         _______ _______ _______ _____ _____    ______ ____
ROOT
ATOM      1  O   UNL     1       3.565   2.082  17.576  0.00  0.00    +0.000 OA
ATOM      2  C   UNL     1       2.949   3.129  17.384  0.00  0.00    +0.000 C 
ATOM      3  N   UNL     1       3.387   4.112  16.525  0.00  0.00    +0.000 N 
ATOM      4  H   UNL     1       2.899   4.999  16.485  0.00  0.00    +0.000 HD
ENDROOT
BRANCH   2   5
ATOM      5  C   UNL     1       1.643   3.440  18.085  0.00  0.00    +0.000 C 
BRANCH   5   6
ATOM      6  N   UNL     1       1.769   3.468  19.535  0.00  0.00    +0.000 N 
ATOM      7  C   UNL     1       1.088   2.626  20.387  0.00  0.00    +0.000 A 
ATOM      8  C   UNL     1       1.448   2.919  21.677  0.00  0.00    +0.000 A 
ATOM      9  C   UNL     1       2.338   4.010  21.612  0.00  0.00    +0.000 A 
ATOM     10  C   UNL     1       2.496   4.392  20.283  0.00  0.00    +0.000 A 
BRANCH  10  11
ATOM     11  C   UNL     1       3.281   5.500  19.751  0.00  0.00    +0.000 C 
ATOM     12  O   UNL     1       4.487   5.424  19.542  0.00  0.00    +0.000 OA
BRANCH  11  13
ATOM     13  C   UNL     1       2.598   6.796  19.451  0.00  0.00    +0.000 A 
ATOM     14  C   UNL     1       1.843   7.461  20.429  0.00  0.00    +0.000 A 
ATOM     15  C   UNL     1       1.228   8.677  20.133  0.00  0.00    +0.000 A 
ATOM     16  C   UNL     1       1.342   9.224  18.856  0.00  0.00    +0.000 A 
ATOM     17  C   UNL     1       2.064   8.550  17.869  0.00  0.00    +0.000 A 
ATOM     18  C   UNL     1       2.686   7.334  18.162  0.00  0.00    +0.000 A 
ENDBRANCH  11  13
ENDBRANCH  10  11
ENDBRANCH   5   6
ENDBRANCH   2   5
BRANCH   3  19
ATOM     19  C   UNL     1       4.623   3.981  15.808  0.00  0.00    +0.000 C 
BRANCH  19  20
ATOM     20  C   UNL     1       5.722   4.841  16.377  0.00  0.00    +0.000 A 
ATOM     21  C   UNL     1       5.665   6.251  16.255  0.00  0.00    +0.000 A 
ATOM     22  C   UNL     1       6.511   7.071  17.009  0.00  0.00    +0.000 A 
ATOM     23  C   UNL     1       7.376   6.448  17.880  0.00  0.00    +0.000 A 
ATOM     24  C   UNL     1       7.504   5.077  17.922  0.00  0.00    +0.000 A 
ATOM     25  C   UNL     1       6.730   4.245  17.149  0.00  0.00    +0.000 A 
ATOM     26  O   UNL     1       8.355   4.672  18.906  0.00  0.00    +0.000 OA
ATOM     27  C   UNL     1       8.421   5.897  19.661  0.00  0.00    +0.000 C 
ATOM     28  O   UNL     1       8.112   7.054  18.854  0.00  0.00    +0.000 OA
ENDBRANCH  19  20
ENDBRANCH   3  19
TORSDOF 6
ENDMDL
MODEL 2
REMARK VINA RESULT:      -7.7      3.011      6.860
REMARK  Name = 
REMARK  6 active torsions:
REMARK  status: ('A' for Active; 'I' for Inactive)
REMARK    1  A    between atoms: C_2  and  C_3
REMARK    2  A    between atoms: C_3  and  N_4
REMARK    3  A    between atoms: C_8  and  C_9
REMARK    4  A    between atoms: C_9  and  C_11
REMARK    5  A    between atoms: N_17  and  C_18
REMARK    6  A    between atoms: C_18  and  C_19
REMARK                            x       y       z     vdW  Elec       q    Type
REMARK                         _______ _______ _______ _____ _____    ______ ____
ROOT
ATOM      1  O   UNL     1       2.222   6.488  17.610  0.00  0.00    +0.000 OA
ATOM      2  C   UNL     1       3.083   7.325  17.879  0.00  0.00    +0.000 C 
ATOM      3  N   UNL     1       2.792   8.645  18.142  0.00  0.00    +0.000 N 
ATOM      4  H   UNL     1       3.545   9.314  18.250  0.00  0.00    +0.000 HD
ENDROOT
BRANCH   2   5
ATOM      5  C   UNL     1       4.556   6.980  17.940  0.00  0.00    +0.000 C 
BRANCH   5   6
ATOM      6  N   UNL     1       4.924   5.897  17.040  0.00  0.00    +0.000 N 
ATOM      7  C   UNL     1       5.153   6.055  15.691  0.00  0.00    +0.000 A 
ATOM      8  C   UNL     1       5.485   4.839  15.154  0.00  0.00    +0.000 A 
ATOM      9  C   UNL     1       5.405   3.898  16.201  0.00  0.00    +0.000 A 
ATOM     10  C   UNL     1       5.001   4.544  17.364  0.00  0.00    +0.000 A 
BRANCH  10  11
ATOM     11  C   UNL     1       4.739   3.959  18.675  0.00  0.00    +0.000 C 
ATOM     12  O   UNL     1       5.629   3.673  19.469  0.00  0.00    +0.000 OA
BRANCH  11  13
ATOM     13  C   UNL     1       3.325   3.681  19.077  0.00  0.00    +0.000 A 
ATOM     14  C   UNL     1       2.759   4.290  20.205  0.00  0.00    +0.000 A 
ATOM     15  C   UNL     1       1.434   4.030  20.554  0.00  0.00    +0.000 A 
ATOM     16  C   UNL     1       0.675   3.142  19.792  0.00  0.00    +0.000 A 
ATOM     17  C   UNL     1       1.244   2.507  18.687  0.00  0.00    +0.000 A 
ATOM     18  C   UNL     1       2.568   2.769  18.332  0.00  0.00    +0.000 A 
ENDBRANCH  11  13
ENDBRANCH  10  11
ENDBRANCH   5   6
ENDBRANCH   2   5
BRANCH   3  19
ATOM     19  C   UNL     1       1.445   9.137  18.093  0.00  0.00    +0.000 C 
BRANCH  19  20
ATOM     20  C   UNL     1       0.825   9.280  19.459  0.00  0.00    +0.000 A 
ATOM     21  C   UNL     1       1.379   8.601  20.572  0.00  0.00    +0.000 A 
ATOM     22  C   UNL     1       1.002   8.935  21.877  0.00  0.00    +0.000 A 
ATOM     23  C   UNL     1       0.095   9.959  22.025  0.00  0.00    +0.000 A 
ATOM     24  C   UNL     1      -0.521  10.548  20.942  0.00  0.00    +0.000 A 
ATOM     25  C   UNL     1      -0.217  10.199  19.648  0.00  0.00    +0.000 A 
ATOM     26  O   UNL     1      -1.321  11.588  21.310  0.00  0.00    +0.000 OA
ATOM     27  C   UNL     1      -0.831  11.782  22.651  0.00  0.00    +0.000 C 
ATOM     28  O   UNL     1      -0.230  10.585  23.191  0.00  0.00    +0.000 OA
ENDBRANCH  19  20
ENDBRANCH   3  19
TORSDOF 6
ENDMDL
MODEL 3
REMARK VINA RESULT:      -7.6      2.826      6.765
REMARK  Name = 
REMARK  6 active torsions:
REMARK  status: ('A' for Active; 'I' for Inactive)
REMARK    1  A    between atoms: C_2  and  C_3
REMARK    2  A    between atoms: C_3  and  N_4
REMARK    3  A    between atoms: C_8  and  C_9
REMARK    4  A    between atoms: C_9  and  C_11
REMARK    5  A    between atoms: N_17  and  C_18
REMARK    6  A    between atoms: C_18  and  C_19
REMARK                            x       y       z     vdW  Elec       q    Type
REMARK                         _______ _______ _______ _____ _____    ______ ____
ROOT
ATOM      1  O   UNL     1       2.147   6.374  17.711  0.00  0.00    +0.000 OA
ATOM      2  C   UNL     1       2.978   7.270  17.853  0.00  0.00    +0.000 C 
ATOM      3  N   UNL     1       2.641   8.603  17.927  0.00  0.00    +0.000 N 
ATOM      4  H   UNL     1       3.370   9.306  17.936  0.00  0.00    +0.000 HD
ENDROOT
BRANCH   2   5
ATOM      5  C   UNL     1       4.462   6.987  17.955  0.00  0.00    +0.000 C 
BRANCH   5   6
ATOM      6  N   UNL     1       4.903   5.930  17.056  0.00  0.00    +0.000 N 
ATOM      7  C   UNL     1       5.153   6.110  15.714  0.00  0.00    +0.000 A 
ATOM      8  C   UNL     1       5.557   4.916  15.176  0.00  0.00    +0.000 A 
ATOM      9  C   UNL     1       5.501   3.965  16.214  0.00  0.00    +0.000 A 
ATOM     10  C   UNL     1       5.039   4.581  17.373  0.00  0.00    +0.000 A 
BRANCH  10  11
ATOM     11  C   UNL     1       4.778   3.973  18.673  0.00  0.00    +0.000 C 
ATOM     12  O   UNL     1       5.664   3.722  19.483  0.00  0.00    +0.000 OA
BRANCH  11  13
ATOM     13  C   UNL     1       3.371   3.627  19.044  0.00  0.00    +0.000 A 
ATOM     14  C   UNL     1       2.572   2.840  18.203  0.00  0.00    +0.000 A 
ATOM     15  C   UNL     1       1.268   2.515  18.575  0.00  0.00    +0.000 A 
ATOM     16  C   UNL     1       0.747   2.994  19.776  0.00  0.00    +0.000 A 
ATOM     17  C   UNL     1       1.526   3.805  20.602  0.00  0.00    +0.000 A 
ATOM     18  C   UNL     1       2.834   4.129  20.236  0.00  0.00    +0.000 A 
ENDBRANCH  11  13
ENDBRANCH  10  11
ENDBRANCH   5   6
ENDBRANCH   2   5
BRANCH   3  19
ATOM     19  C   UNL     1       1.278   9.036  17.817  0.00  0.00    +0.000 C 
BRANCH  19  20
ATOM     20  C   UNL     1       0.804   9.791  19.031  0.00  0.00    +0.000 A 
ATOM     21  C   UNL     1      -0.276  10.703  18.933  0.00  0.00    +0.000 A 
ATOM     22  C   UNL     1      -0.908  11.193  20.080  0.00  0.00    +0.000 A 
ATOM     23  C   UNL     1      -0.449  10.734  21.294  0.00  0.00    +0.000 A 
ATOM     24  C   UNL     1       0.666   9.930  21.393  0.00  0.00    +0.000 A 
ATOM     25  C   UNL     1       1.346   9.481  20.287  0.00  0.00    +0.000 A 
ATOM     26  O   UNL     1       0.897   9.531  22.675  0.00  0.00    +0.000 OA
ATOM     27  C   UNL     1      -0.382   9.868  23.248  0.00  0.00    +0.000 C 
ATOM     28  O   UNL     1      -1.058  10.904  22.501  0.00  0.00    +0.000 OA
ENDBRANCH  19  20
ENDBRANCH   3  19
TORSDOF 6
ENDMDL
MODEL 4
REMARK VINA RESULT:      -7.5      4.100      6.469
REMARK  Name = 
REMARK  6 active torsions:
REMARK  status: ('A' for Active; 'I' for Inactive)
REMARK    1  A    between atoms: C_2  and  C_3
REMARK    2  A    between atoms: C_3  and  N_4
REMARK    3  A    between atoms: C_8  and  C_9
REMARK    4  A    between atoms: C_9  and  C_11
REMARK    5  A    between atoms: N_17  and  C_18
REMARK    6  A    between atoms: C_18  and  C_19
REMARK                            x       y       z     vdW  Elec       q    Type
REMARK                         _______ _______ _______ _____ _____    ______ ____
ROOT
ATOM      1  O   UNL     1       7.983   6.241  18.431  0.00  0.00    +0.000 OA
ATOM      2  C   UNL     1       7.352   7.156  17.904  0.00  0.00    +0.000 C 
ATOM      3  N   UNL     1       7.780   8.465  17.908  0.00  0.00    +0.000 N 
ATOM      4  H   UNL     1       7.172   9.194  17.555  0.00  0.00    +0.000 HD
ENDROOT
BRANCH   2   5
ATOM      5  C   UNL     1       6.032   6.926  17.198  0.00  0.00    +0.000 C 
BRANCH   5   6
ATOM      6  N   UNL     1       6.023   5.716  16.389  0.00  0.00    +0.000 N 
ATOM      7  C   UNL     1       6.324   5.681  15.045  0.00  0.00    +0.000 A 
ATOM      8  C   UNL     1       6.227   4.387  14.605  0.00  0.00    +0.000 A 
ATOM      9  C   UNL     1       5.802   3.615  15.705  0.00  0.00    +0.000 A 
ATOM     10  C   UNL     1       5.618   4.449  16.803  0.00  0.00    +0.000 A 
BRANCH  10  11
ATOM     11  C   UNL     1       5.139   4.093  18.134  0.00  0.00    +0.000 C 
ATOM     12  O   UNL     1       5.854   4.119  19.131  0.00  0.00    +0.000 OA
BRANCH  11  13
ATOM     13  C   UNL     1       3.715   3.667  18.304  0.00  0.00    +0.000 A 
ATOM     14  C   UNL     1       3.388   2.497  19.005  0.00  0.00    +0.000 A 
ATOM     15  C   UNL     1       2.053   2.126  19.166  0.00  0.00    +0.000 A 
ATOM     16  C   UNL     1       1.041   2.906  18.608  0.00  0.00    +0.000 A 
ATOM     17  C   UNL     1       1.363   4.054  17.881  0.00  0.00    +0.000 A 
ATOM     18  C   UNL     1       2.698   4.432  17.722  0.00  0.00    +0.000 A 
ENDBRANCH  11  13
ENDBRANCH  10  11
ENDBRANCH   5   6
ENDBRANCH   2   5
BRANCH   3  19
ATOM     19  C   UNL     1       8.998   8.850  18.563  0.00  0.00    +0.000 C 
BRANCH  19  20
ATOM     20  C   UNL     1       9.014  10.304  18.958  0.00  0.00    +0.000 A 
ATOM     21  C   UNL     1       9.293  10.681  20.294  0.00  0.00    +0.000 A 
ATOM     22  C   UNL     1       9.590  12.009  20.618  0.00  0.00    +0.000 A 
ATOM     23  C   UNL     1       9.618  12.915  19.583  0.00  0.00    +0.000 A 
ATOM     24  C   UNL     1       9.245  12.570  18.303  0.00  0.00    +0.000 A 
ATOM     25  C   UNL     1       8.889  11.287  17.965  0.00  0.00    +0.000 A 
ATOM     26  O   UNL     1       9.423  13.596  17.423  0.00  0.00    +0.000 OA
ATOM     27  C   UNL     1      10.269  14.437  18.230  0.00  0.00    +0.000 C 
ATOM     28  O   UNL     1      10.099  14.190  19.642  0.00  0.00    +0.000 OA
ENDBRANCH  19  20
ENDBRANCH   3  19
TORSDOF 6
ENDMDL
MODEL 5
REMARK VINA RESULT:      -7.5      4.154      6.439
REMARK  Name = 
REMARK  6 active torsions:
REMARK  status: ('A' for Active; 'I' for Inactive)
REMARK    1  A    between atoms: C_2  and  C_3
REMARK    2  A    between atoms: C_3  and  N_4
REMARK    3  A    between atoms: C_8  and  C_9
REMARK    4  A    between atoms: C_9  and  C_11
REMARK    5  A    between atoms: N_17  and  C_18
REMARK    6  A    between atoms: C_18  and  C_19
REMARK                            x       y       z     vdW  Elec       q    Type
REMARK                         _______ _______ _______ _____ _____    ______ ____
ROOT
ATOM      1  O   UNL     1       6.253   7.794  16.949  0.00  0.00    +0.000 OA
ATOM      2  C   UNL     1       7.289   7.431  17.505  0.00  0.00    +0.000 C 
ATOM      3  N   UNL     1       8.244   8.311  17.963  0.00  0.00    +0.000 N 
ATOM      4  H   UNL     1       9.125   7.957  18.316  0.00  0.00    +0.000 HD
ENDROOT
BRANCH   2   5
ATOM      5  C   UNL     1       7.615   5.970  17.734  0.00  0.00    +0.000 C 
BRANCH   5   6
ATOM      6  N   UNL     1       6.945   5.084  16.794  0.00  0.00    +0.000 N 
ATOM      7  C   UNL     1       7.234   5.022  15.449  0.00  0.00    +0.000 A 
ATOM      8  C   UNL     1       6.425   4.080  14.867  0.00  0.00    +0.000 A 
ATOM      9  C   UNL     1       5.580   3.589  15.882  0.00  0.00    +0.000 A 
ATOM     10  C   UNL     1       5.861   4.253  17.071  0.00  0.00    +0.000 A 
BRANCH  10  11
ATOM     11  C   UNL     1       5.202   4.104  18.364  0.00  0.00    +0.000 C 
ATOM     12  O   UNL     1       5.777   4.285  19.432  0.00  0.00    +0.000 OA
BRANCH  11  13
ATOM     13  C   UNL     1       3.761   3.704  18.403  0.00  0.00    +0.000 A 
ATOM     14  C   UNL     1       2.764   4.535  17.873  0.00  0.00    +0.000 A 
ATOM     15  C   UNL     1       1.428   4.136  17.905  0.00  0.00    +0.000 A 
ATOM     16  C   UNL     1       1.078   2.917  18.486  0.00  0.00    +0.000 A 
ATOM     17  C   UNL     1       2.064   2.101  19.045  0.00  0.00    +0.000 A 
ATOM     18  C   UNL     1       3.403   2.495  19.010  0.00  0.00    +0.000 A 
ENDBRANCH  11  13
ENDBRANCH  10  11
ENDBRANCH   5   6
ENDBRANCH   2   5
BRANCH   3  19
ATOM     19  C   UNL     1       8.096   9.728  17.794  0.00  0.00    +0.000 C 
BRANCH  19  20
ATOM     20  C   UNL     1       9.173  10.516  18.496  0.00  0.00    +0.000 A 
ATOM     21  C   UNL     1      10.237  11.088  17.758  0.00  0.00    +0.000 A 
ATOM     22  C   UNL     1      11.078  12.046  18.337  0.00  0.00    +0.000 A 
ATOM     23  C   UNL     1      10.807  12.414  19.635  0.00  0.00    +0.000 A 
ATOM     24  C   UNL     1       9.839  11.783  20.384  0.00  0.00    +0.000 A 
ATOM     25  C   UNL     1       9.037  10.796  19.863  0.00  0.00    +0.000 A 
ATOM     26  O   UNL     1       9.685  12.356  21.611  0.00  0.00    +0.000 OA
ATOM     27  C   UNL     1      10.384  13.592  21.369  0.00  0.00    +0.000 C 
ATOM     28  O   UNL     1      11.349  13.474  20.300  0.00  0.00    +0.000 OA
ENDBRANCH  19  20
ENDBRANCH   3  19
TORSDOF 6
ENDMDL
MODEL 6
REMARK VINA RESULT:      -7.5      3.014      6.919
REMARK  Name = 
REMARK  6 active torsions:
REMARK  status: ('A' for Active; 'I' for Inactive)
REMARK    1  A    between atoms: C_2  and  C_3
REMARK    2  A    between atoms: C_3  and  N_4
REMARK    3  A    between atoms: C_8  and  C_9
REMARK    4  A    between atoms: C_9  and  C_11
REMARK    5  A    between atoms: N_17  and  C_18
REMARK    6  A    between atoms: C_18  and  C_19
REMARK                            x       y       z     vdW  Elec       q    Type
REMARK                         _______ _______ _______ _____ _____    ______ ____
ROOT
ATOM      1  O   UNL     1       2.185   6.469  17.844  0.00  0.00    +0.000 OA
ATOM      2  C   UNL     1       3.101   6.738  18.619  0.00  0.00    +0.000 C 
ATOM      3  N   UNL     1       2.897   7.061  19.942  0.00  0.00    +0.000 N 
ATOM      4  H   UNL     1       3.674   7.379  20.508  0.00  0.00    +0.000 HD
ENDROOT
BRANCH   2   5
ATOM      5  C   UNL     1       4.553   6.744  18.185  0.00  0.00    +0.000 C 
BRANCH   5   6
ATOM      6  N   UNL     1       4.862   5.699  17.221  0.00  0.00    +0.000 N 
ATOM      7  C   UNL     1       5.080   5.925  15.879  0.00  0.00    +0.000 A 
ATOM      8  C   UNL     1       5.353   4.728  15.269  0.00  0.00    +0.000 A 
ATOM      9  C   UNL     1       5.248   3.734  16.263  0.00  0.00    +0.000 A 
ATOM     10  C   UNL     1       4.886   4.329  17.467  0.00  0.00    +0.000 A 
BRANCH  10  11
ATOM     11  C   UNL     1       4.617   3.682  18.747  0.00  0.00    +0.000 C 
ATOM     12  O   UNL     1       5.503   3.357  19.531  0.00  0.00    +0.000 OA
BRANCH  11  13
ATOM     13  C   UNL     1       3.201   3.385  19.127  0.00  0.00    +0.000 A 
ATOM     14  C   UNL     1       2.283   2.902  18.185  0.00  0.00    +0.000 A 
ATOM     15  C   UNL     1       0.972   2.616  18.564  0.00  0.00    +0.000 A 
ATOM     16  C   UNL     1       0.564   2.835  19.879  0.00  0.00    +0.000 A 
ATOM     17  C   UNL     1       1.465   3.348  20.815  0.00  0.00    +0.000 A 
ATOM     18  C   UNL     1       2.780   3.630  20.440  0.00  0.00    +0.000 A 
ENDBRANCH  11  13
ENDBRANCH  10  11
ENDBRANCH   5   6
ENDBRANCH   2   5
BRANCH   3  19
ATOM     19  C   UNL     1       1.576   7.128  20.498  0.00  0.00    +0.000 C 
BRANCH  19  20
ATOM     20  C   UNL     1       1.124   8.540  20.763  0.00  0.00    +0.000 A 
ATOM     21  C   UNL     1       0.797   9.402  19.687  0.00  0.00    +0.000 A 
ATOM     22  C   UNL     1       0.115  10.603  19.911  0.00  0.00    +0.000 A 
ATOM     23  C   UNL     1      -0.237  10.890  21.210  0.00  0.00    +0.000 A 
ATOM     24  C   UNL     1       0.171  10.106  22.266  0.00  0.00    +0.000 A 
ATOM     25  C   UNL     1       0.895   8.952  22.084  0.00  0.00    +0.000 A 
ATOM     26  O   UNL     1      -0.353  10.527  23.451  0.00  0.00    +0.000 OA
ATOM     27  C   UNL     1      -1.386  11.394  22.942  0.00  0.00    +0.000 C 
ATOM     28  O   UNL     1      -1.088  11.876  21.614  0.00  0.00    +0.000 OA
ENDBRANCH  19  20
ENDBRANCH   3  19
TORSDOF 6
ENDMDL
MODEL 7
REMARK VINA RESULT:      -7.5      3.249      6.764
REMARK  Name = 
REMARK  6 active torsions:
REMARK  status: ('A' for Active; 'I' for Inactive)
REMARK    1  A    between atoms: C_2  and  C_3
REMARK    2  A    between atoms: C_3  and  N_4
REMARK    3  A    between atoms: C_8  and  C_9
REMARK    4  A    between atoms: C_9  and  C_11
REMARK    5  A    between atoms: N_17  and  C_18
REMARK    6  A    between atoms: C_18  and  C_19
REMARK                            x       y       z     vdW  Elec       q    Type
REMARK                         _______ _______ _______ _____ _____    ______ ____
ROOT
ATOM      1  O   UNL     1       2.317   6.374  18.077  0.00  0.00    +0.000 OA
ATOM      2  C   UNL     1       2.198   6.547  19.289  0.00  0.00    +0.000 C 
ATOM      3  N   UNL     1       1.835   7.754  19.844  0.00  0.00    +0.000 N 
ATOM      4  H   UNL     1       1.858   7.872  20.850  0.00  0.00    +0.000 HD
ENDROOT
BRANCH   2   5
ATOM      5  C   UNL     1       2.449   5.441  20.294  0.00  0.00    +0.000 C 
BRANCH   5   6
ATOM      6  N   UNL     1       2.103   4.122  19.784  0.00  0.00    +0.000 N 
ATOM      7  C   UNL     1       0.824   3.613  19.760  0.00  0.00    +0.000 A 
ATOM      8  C   UNL     1       0.859   2.358  19.210  0.00  0.00    +0.000 A 
ATOM      9  C   UNL     1       2.212   2.073  18.938  0.00  0.00    +0.000 A 
ATOM     10  C   UNL     1       2.996   3.146  19.347  0.00  0.00    +0.000 A 
BRANCH  10  11
ATOM     11  C   UNL     1       4.449   3.269  19.305  0.00  0.00    +0.000 C 
ATOM     12  O   UNL     1       5.192   2.667  20.073  0.00  0.00    +0.000 OA
BRANCH  11  13
ATOM     13  C   UNL     1       5.073   4.174  18.291  0.00  0.00    +0.000 A 
ATOM     14  C   UNL     1       6.054   5.106  18.657  0.00  0.00    +0.000 A 
ATOM     15  C   UNL     1       6.635   5.929  17.693  0.00  0.00    +0.000 A 
ATOM     16  C   UNL     1       6.224   5.843  16.364  0.00  0.00    +0.000 A 
ATOM     17  C   UNL     1       5.224   4.939  15.999  0.00  0.00    +0.000 A 
ATOM     18  C   UNL     1       4.643   4.110  16.960  0.00  0.00    +0.000 A 
ENDBRANCH  11  13
ENDBRANCH  10  11
ENDBRANCH   5   6
ENDBRANCH   2   5
BRANCH   3  19
ATOM     19  C   UNL     1       1.593   8.909  19.027  0.00  0.00    +0.000 C 
BRANCH  19  20
ATOM     20  C   UNL     1       0.780   9.964  19.732  0.00  0.00    +0.000 A 
ATOM     21  C   UNL     1      -0.204  10.700  19.028  0.00  0.00    +0.000 A 
ATOM     22  C   UNL     1      -1.151  11.469  19.713  0.00  0.00    +0.000 A 
ATOM     23  C   UNL     1      -1.092  11.457  21.088  0.00  0.00    +0.000 A 
ATOM     24  C   UNL     1      -0.074  10.826  21.768  0.00  0.00    +0.000 A 
ATOM     25  C   UNL     1       0.906  10.113  21.121  0.00  0.00    +0.000 A 
ATOM     26  O   UNL     1      -0.253  10.872  23.118  0.00  0.00    +0.000 OA
ATOM     27  C   UNL     1      -1.640  11.260  23.145  0.00  0.00    +0.000 C 
ATOM     28  O   UNL     1      -2.040  11.945  21.938  0.00  0.00    +0.000 OA
ENDBRANCH  19  20
ENDBRANCH   3  19
TORSDOF 6
ENDMDL
MODEL 8
REMARK VINA RESULT:      -7.4      3.351      7.219
REMARK  Name = 
REMARK  6 active torsions:
REMARK  status: ('A' for Active; 'I' for Inactive)
REMARK    1  A    between atoms: C_2  and  C_3
REMARK    2  A    between atoms: C_3  and  N_4
REMARK    3  A    between atoms: C_8  and  C_9
REMARK    4  A    between atoms: C_9  and  C_11
REMARK    5  A    between atoms: N_17  and  C_18
REMARK    6  A    between atoms: C_18  and  C_19
REMARK                            x       y       z     vdW  Elec       q    Type
REMARK                         _______ _______ _______ _____ _____    ______ ____
ROOT
ATOM      1  O   UNL     1       2.322   6.480  18.200  0.00  0.00    +0.000 OA
ATOM      2  C   UNL     1       2.430   6.435  19.425  0.00  0.00    +0.000 C 
ATOM      3  N   UNL     1       2.063   7.473  20.251  0.00  0.00    +0.000 N 
ATOM      4  H   UNL     1       2.273   7.427  21.241  0.00  0.00    +0.000 HD
ENDROOT
BRANCH   2   5
ATOM      5  C   UNL     1       2.985   5.223  20.144  0.00  0.00    +0.000 C 
BRANCH   5   6
ATOM      6  N   UNL     1       2.883   4.001  19.360  0.00  0.00    +0.000 N 
ATOM      7  C   UNL     1       1.776   3.181  19.347  0.00  0.00    +0.000 A 
ATOM      8  C   UNL     1       2.015   2.130  18.500  0.00  0.00    +0.000 A 
ATOM      9  C   UNL     1       3.331   2.288  18.020  0.00  0.00    +0.000 A 
ATOM     10  C   UNL     1       3.895   3.421  18.599  0.00  0.00    +0.000 A 
BRANCH  10  11
ATOM     11  C   UNL     1       5.248   3.938  18.432  0.00  0.00    +0.000 C 
ATOM     12  O   UNL     1       6.011   4.128  19.374  0.00  0.00    +0.000 OA
BRANCH  11  13
ATOM     13  C   UNL     1       5.738   4.266  17.057  0.00  0.00    +0.000 A 
ATOM     14  C   UNL     1       7.079   4.601  16.826  0.00  0.00    +0.000 A 
ATOM     15  C   UNL     1       7.518   4.887  15.534  0.00  0.00    +0.000 A 
ATOM     16  C   UNL     1       6.617   4.863  14.470  0.00  0.00    +0.000 A 
ATOM     17  C   UNL     1       5.273   4.562  14.700  0.00  0.00    +0.000 A 
ATOM     18  C   UNL     1       4.830   4.270  15.991  0.00  0.00    +0.000 A 
ENDBRANCH  11  13
ENDBRANCH  10  11
ENDBRANCH   5   6
ENDBRANCH   2   5
BRANCH   3  19
ATOM     19  C   UNL     1       1.547   8.703  19.721  0.00  0.00    +0.000 C 
BRANCH  19  20
ATOM     20  C   UNL     1       0.573   9.378  20.652  0.00  0.00    +0.000 A 
ATOM     21  C   UNL     1       0.306   8.830  21.930  0.00  0.00    +0.000 A 
ATOM     22  C   UNL     1      -0.363   9.576  22.905  0.00  0.00    +0.000 A 
ATOM     23  C   UNL     1      -0.725  10.862  22.572  0.00  0.00    +0.000 A 
ATOM     24  C   UNL     1      -0.558  11.358  21.298  0.00  0.00    +0.000 A 
ATOM     25  C   UNL     1       0.041  10.627  20.300  0.00  0.00    +0.000 A 
ATOM     26  O   UNL     1      -0.910  12.671  21.209  0.00  0.00    +0.000 OA
ATOM     27  C   UNL     1      -0.945  12.988  22.614  0.00  0.00    +0.000 C 
ATOM     28  O   UNL     1      -1.174  11.820  23.432  0.00  0.00    +0.000 OA
ENDBRANCH  19  20
ENDBRANCH   3  19
TORSDOF 6
ENDMDL
MODEL 9
REMARK VINA RESULT:      -7.4      4.247      6.527
REMARK  Name = 
REMARK  6 active torsions:
REMARK  status: ('A' for Active; 'I' for Inactive)
REMARK    1  A    between atoms: C_2  and  C_3
REMARK    2  A    between atoms: C_3  and  N_4
REMARK    3  A    between atoms: C_8  and  C_9
REMARK    4  A    between atoms: C_9  and  C_11
REMARK    5  A    between atoms: N_17  and  C_18
REMARK    6  A    between atoms: C_18  and  C_19
REMARK                            x       y       z     vdW  Elec       q    Type
REMARK                         _______ _______ _______ _____ _____    ______ ____
ROOT
ATOM      1  O   UNL     1       7.956   6.519  18.544  0.00  0.00    +0.000 OA
ATOM      2  C   UNL     1       7.358   7.361  17.876  0.00  0.00    +0.000 C 
ATOM      3  N   UNL     1       7.749   8.679  17.804  0.00  0.00    +0.000 N 
ATOM      4  H   UNL     1       7.161   9.353  17.329  0.00  0.00    +0.000 HD
ENDROOT
BRANCH   2   5
ATOM      5  C   UNL     1       6.122   7.025  17.069  0.00  0.00    +0.000 C 
BRANCH   5   6
ATOM      6  N   UNL     1       6.250   5.780  16.325  0.00  0.00    +0.000 N 
ATOM      7  C   UNL     1       6.664   5.702  15.013  0.00  0.00    +0.000 A 
ATOM      8  C   UNL     1       6.679   4.385  14.633  0.00  0.00    +0.000 A 
ATOM      9  C   UNL     1       6.209   3.640  15.734  0.00  0.00    +0.000 A 
ATOM     10  C   UNL     1       5.886   4.511  16.769  0.00  0.00    +0.000 A 
BRANCH  10  11
ATOM     11  C   UNL     1       5.318   4.189  18.074  0.00  0.00    +0.000 C 
ATOM     12  O   UNL     1       5.977   4.193  19.108  0.00  0.00    +0.000 OA
BRANCH  11  13
ATOM     13  C   UNL     1       3.870   3.825  18.166  0.00  0.00    +0.000 A 
ATOM     14  C   UNL     1       2.885   4.808  18.335  0.00  0.00    +0.000 A 
ATOM     15  C   UNL     1       1.539   4.450  18.402  0.00  0.00    +0.000 A 
ATOM     16  C   UNL     1       1.172   3.107  18.326  0.00  0.00    +0.000 A 
ATOM     17  C   UNL     1       2.150   2.121  18.192  0.00  0.00    +0.000 A 
ATOM     18  C   UNL     1       3.499   2.476  18.118  0.00  0.00    +0.000 A 
ENDBRANCH  11  13
ENDBRANCH  10  11
ENDBRANCH   5   6
ENDBRANCH   2   5
BRANCH   3  19
ATOM     19  C   UNL     1       8.884   9.163  18.537  0.00  0.00    +0.000 C 
BRANCH  19  20
ATOM     20  C   UNL     1       9.155  10.625  18.297  0.00  0.00    +0.000 A 
ATOM     21  C   UNL     1       8.203  11.429  17.623  0.00  0.00    +0.000 A 
ATOM     22  C   UNL     1       8.302  12.825  17.639  0.00  0.00    +0.000 A 
ATOM     23  C   UNL     1       9.346  13.371  18.352  0.00  0.00    +0.000 A 
ATOM     24  C   UNL     1      10.328  12.589  18.919  0.00  0.00    +0.000 A 
ATOM     25  C   UNL     1      10.292  11.216  18.868  0.00  0.00    +0.000 A 
ATOM     26  O   UNL     1      11.218  13.326  19.641  0.00  0.00    +0.000 OA
ATOM     27  C   UNL     1      10.461  14.548  19.746  0.00  0.00    +0.000 C 
ATOM     28  O   UNL     1       9.495  14.685  18.681  0.00  0.00    +0.000 OA
ENDBRANCH  19  20
ENDBRANCH   3  19
TORSDOF 6
ENDMDL
