MODEL 1
REMARK VINA RESULT:      -7.8      0.000      0.000
REMARK  Name = 
REMARK  4 active torsions:
REMARK  status: ('A' for Active; 'I' for Inactive)
REMARK    1  A    between atoms: C_1  and  N_2
REMARK    2  A    between atoms: N_2  and  C_3
REMARK    3  A    between atoms: C_7  and  C_8
REMARK    4  A    between atoms: C_15  and  C_16
REMARK                            x       y       z     vdW  Elec       q    Type
REMARK                         _______ _______ _______ _____ _____    ______ ____
ROOT
ATOM      1  C   UNL     1       0.594  10.743  20.116  0.00  0.00    +0.000 C 
ATOM      2  N   UNL     1       0.727   9.344  20.493  0.00  0.00    +0.000 N 
ATOM      3  C   UNL     1       0.046   8.836  21.674  0.00  0.00    +0.000 C 
ATOM      4  C   UNL     1       1.524   8.461  19.701  0.00  0.00    +0.000 A 
ATOM      5  N   UNL     1       2.200   8.922  18.624  0.00  0.00    +0.000 NA
ATOM      6  C   UNL     1       2.965   8.106  17.861  0.00  0.00    +0.000 A 
ATOM      7  C   UNL     1       3.108   6.719  18.137  0.00  0.00    +0.000 A 
ATOM      8  C   UNL     1       2.386   6.257  19.314  0.00  0.00    +0.000 A 
ATOM      9  N   UNL     1       1.640   7.150  20.025  0.00  0.00    +0.000 NA
ENDROOT
BRANCH   7  10
ATOM     10  C   UNL     1       4.013   5.870  17.207  0.00  0.00    +0.000 A 
ATOM     11  C   UNL     1       4.898   6.478  16.263  0.00  0.00    +0.000 A 
ATOM     12  C   UNL     1       5.749   5.718  15.447  0.00  0.00    +0.000 A 
ATOM     13  C   UNL     1       5.762   4.331  15.536  0.00  0.00    +0.000 A 
ATOM     14  F   UNL     1       6.598   3.594  14.766  0.00  0.00    +0.000 F 
ATOM     15  C   UNL     1       4.902   3.703  16.414  0.00  0.00    +0.000 A 
ATOM     16  C   UNL     1       4.044   4.452  17.210  0.00  0.00    +0.000 A 
ENDBRANCH   7  10
BRANCH   8  17
ATOM     17  C   UNL     1       2.406   4.832  19.849  0.00  0.00    +0.000 C 
ATOM     18  C   UNL     1       1.347   3.886  19.230  0.00  0.00    +0.000 C 
ATOM     19  N   UNL     1       1.486   2.538  19.808  0.00  0.00    +0.000 NA
ATOM     20  C   UNL     1       1.402   2.599  21.275  0.00  0.00    +0.000 C 
ATOM     21  C   UNL     1       2.431   3.590  21.812  0.00  0.00    +0.000 C 
ATOM     22  O   UNL     1       2.198   4.870  21.255  0.00  0.00    +0.000 OA
ATOM     23  H   UNL     1       2.422   2.148  19.543  0.00  0.00    +0.000 HD
ENDBRANCH   8  17
TORSDOF 2
ENDMDL
MODEL 2
REMARK VINA RESULT:      -7.8      0.074      1.023
REMARK  Name = 
REMARK  4 active torsions:
REMARK  status: ('A' for Active; 'I' for Inactive)
REMARK    1  A    between atoms: C_1  and  N_2
REMARK    2  A    between atoms: N_2  and  C_3
REMARK    3  A    between atoms: C_7  and  C_8
REMARK    4  A    between atoms: C_15  and  C_16
REMARK                            x       y       z     vdW  Elec       q    Type
REMARK                         _______ _______ _______ _____ _____    ______ ____
ROOT
ATOM      1  C   UNL     1       0.562  10.707  20.131  0.00  0.00    +0.000 C 
ATOM      2  N   UNL     1       0.693   9.306  20.498  0.00  0.00    +0.000 N 
ATOM      3  C   UNL     1      -0.004   8.788  21.666  0.00  0.00    +0.000 C 
ATOM      4  C   UNL     1       1.502   8.431  19.710  0.00  0.00    +0.000 A 
ATOM      5  N   UNL     1       2.192   8.902  18.646  0.00  0.00    +0.000 NA
ATOM      6  C   UNL     1       2.970   8.094  17.888  0.00  0.00    +0.000 A 
ATOM      7  C   UNL     1       3.112   6.704  18.154  0.00  0.00    +0.000 A 
ATOM      8  C   UNL     1       2.375   6.232  19.318  0.00  0.00    +0.000 A 
ATOM      9  N   UNL     1       1.617   7.118  20.026  0.00  0.00    +0.000 NA
ENDROOT
BRANCH   7  10
ATOM     10  C   UNL     1       4.031   5.865  17.231  0.00  0.00    +0.000 A 
ATOM     11  C   UNL     1       4.037   4.436  17.278  0.00  0.00    +0.000 A 
ATOM     12  C   UNL     1       4.836   3.667  16.419  0.00  0.00    +0.000 A 
ATOM     13  C   UNL     1       5.655   4.280  15.478  0.00  0.00    +0.000 A 
ATOM     14  F   UNL     1       6.412   3.542  14.630  0.00  0.00    +0.000 F 
ATOM     15  C   UNL     1       5.701   5.659  15.418  0.00  0.00    +0.000 A 
ATOM     16  C   UNL     1       4.926   6.423  16.282  0.00  0.00    +0.000 A 
ENDBRANCH   7  10
BRANCH   8  17
ATOM     17  C   UNL     1       2.390   4.803  19.842  0.00  0.00    +0.000 C 
ATOM     18  C   UNL     1       1.319   3.868  19.227  0.00  0.00    +0.000 C 
ATOM     19  N   UNL     1       1.454   2.516  19.793  0.00  0.00    +0.000 NA
ATOM     20  C   UNL     1       1.385   2.566  21.261  0.00  0.00    +0.000 C 
ATOM     21  C   UNL     1       2.426   3.545  21.795  0.00  0.00    +0.000 C 
ATOM     22  O   UNL     1       2.197   4.831  21.250  0.00  0.00    +0.000 OA
ATOM     23  H   UNL     1       2.384   2.121  19.515  0.00  0.00    +0.000 HD
ENDBRANCH   8  17
TORSDOF 2
ENDMDL
MODEL 3
REMARK VINA RESULT:      -7.6      3.330      5.846
REMARK  Name = 
REMARK  4 active torsions:
REMARK  status: ('A' for Active; 'I' for Inactive)
REMARK    1  A    between atoms: C_1  and  N_2
REMARK    2  A    between atoms: N_2  and  C_3
REMARK    3  A    between atoms: C_7  and  C_8
REMARK    4  A    between atoms: C_15  and  C_16
REMARK                            x       y       z     vdW  Elec       q    Type
REMARK                         _______ _______ _______ _____ _____    ______ ____
ROOT
ATOM      1  C   UNL     1       6.788   5.264  14.930  0.00  0.00    +0.000 C 
ATOM      2  N   UNL     1       5.805   4.637  15.800  0.00  0.00    +0.000 N 
ATOM      3  C   UNL     1       5.749   3.188  15.916  0.00  0.00    +0.000 C 
ATOM      4  C   UNL     1       4.893   5.443  16.549  0.00  0.00    +0.000 A 
ATOM      5  N   UNL     1       4.901   6.790  16.422  0.00  0.00    +0.000 NA
ATOM      6  C   UNL     1       4.043   7.574  17.117  0.00  0.00    +0.000 A 
ATOM      7  C   UNL     1       3.085   7.041  18.022  0.00  0.00    +0.000 A 
ATOM      8  C   UNL     1       3.088   5.588  18.120  0.00  0.00    +0.000 A 
ATOM      9  N   UNL     1       3.987   4.876  17.381  0.00  0.00    +0.000 NA
ENDROOT
BRANCH   7  10
ATOM     10  C   UNL     1       2.143   8.021  18.766  0.00  0.00    +0.000 A 
ATOM     11  C   UNL     1       1.495   9.099  18.085  0.00  0.00    +0.000 A 
ATOM     12  C   UNL     1       0.610   9.967  18.742  0.00  0.00    +0.000 A 
ATOM     13  C   UNL     1       0.328   9.800  20.092  0.00  0.00    +0.000 A 
ATOM     14  F   UNL     1      -0.544  10.622  20.726  0.00  0.00    +0.000 F 
ATOM     15  C   UNL     1       0.955   8.790  20.794  0.00  0.00    +0.000 A 
ATOM     16  C   UNL     1       1.848   7.941  20.151  0.00  0.00    +0.000 A 
ENDBRANCH   7  10
BRANCH   8  17
ATOM     17  C   UNL     1       2.138   4.767  18.981  0.00  0.00    +0.000 C 
ATOM     18  C   UNL     1       2.651   4.460  20.411  0.00  0.00    +0.000 C 
ATOM     19  N   UNL     1       1.636   3.687  21.148  0.00  0.00    +0.000 NA
ATOM     20  C   UNL     1       1.276   2.472  20.403  0.00  0.00    +0.000 C 
ATOM     21  C   UNL     1       0.836   2.843  18.989  0.00  0.00    +0.000 C 
ATOM     22  O   UNL     1       1.882   3.531  18.328  0.00  0.00    +0.000 OA
ATOM     23  H   UNL     1       0.777   4.277  21.263  0.00  0.00    +0.000 HD
ENDBRANCH   8  17
TORSDOF 2
ENDMDL
MODEL 4
REMARK VINA RESULT:      -7.4      3.318      5.905
REMARK  Name = 
REMARK  4 active torsions:
REMARK  status: ('A' for Active; 'I' for Inactive)
REMARK    1  A    between atoms: C_1  and  N_2
REMARK    2  A    between atoms: N_2  and  C_3
REMARK    3  A    between atoms: C_7  and  C_8
REMARK    4  A    between atoms: C_15  and  C_16
REMARK                            x       y       z     vdW  Elec       q    Type
REMARK                         _______ _______ _______ _____ _____    ______ ____
ROOT
ATOM      1  C   UNL     1       6.704   5.197  14.880  0.00  0.00    +0.000 C 
ATOM      2  N   UNL     1       5.743   4.588  15.787  0.00  0.00    +0.000 N 
ATOM      3  C   UNL     1       5.696   3.142  15.939  0.00  0.00    +0.000 C 
ATOM      4  C   UNL     1       4.845   5.409  16.536  0.00  0.00    +0.000 A 
ATOM      5  N   UNL     1       4.843   6.752  16.376  0.00  0.00    +0.000 NA
ATOM      6  C   UNL     1       3.998   7.549  17.070  0.00  0.00    +0.000 A 
ATOM      7  C   UNL     1       3.062   7.035  18.009  0.00  0.00    +0.000 A 
ATOM      8  C   UNL     1       3.073   5.585  18.142  0.00  0.00    +0.000 A 
ATOM      9  N   UNL     1       3.959   4.858  17.401  0.00  0.00    +0.000 NA
ENDROOT
BRANCH   7  10
ATOM     10  C   UNL     1       2.133   8.030  18.749  0.00  0.00    +0.000 A 
ATOM     11  C   UNL     1       1.888   7.924  20.153  0.00  0.00    +0.000 A 
ATOM     12  C   UNL     1       1.080   8.845  20.838  0.00  0.00    +0.000 A 
ATOM     13  C   UNL     1       0.489   9.906  20.163  0.00  0.00    +0.000 A 
ATOM     14  F   UNL     1      -0.273  10.811  20.824  0.00  0.00    +0.000 F 
ATOM     15  C   UNL     1       0.677  10.029  18.801  0.00  0.00    +0.000 A 
ATOM     16  C   UNL     1       1.460   9.107  18.116  0.00  0.00    +0.000 A 
ENDBRANCH   7  10
BRANCH   8  17
ATOM     17  C   UNL     1       2.147   4.782  19.044  0.00  0.00    +0.000 C 
ATOM     18  C   UNL     1       2.711   4.473  20.454  0.00  0.00    +0.000 C 
ATOM     19  N   UNL     1       1.715   3.719  21.234  0.00  0.00    +0.000 NA
ATOM     20  C   UNL     1       1.308   2.506  20.510  0.00  0.00    +0.000 C 
ATOM     21  C   UNL     1       0.817   2.878  19.113  0.00  0.00    +0.000 C 
ATOM     22  O   UNL     1       1.846   3.548  18.407  0.00  0.00    +0.000 OA
ATOM     23  H   UNL     1       0.870   4.321  21.380  0.00  0.00    +0.000 HD
ENDBRANCH   8  17
TORSDOF 2
ENDMDL
MODEL 5
REMARK VINA RESULT:      -7.1      1.581      1.934
REMARK  Name = 
REMARK  4 active torsions:
REMARK  status: ('A' for Active; 'I' for Inactive)
REMARK    1  A    between atoms: C_1  and  N_2
REMARK    2  A    between atoms: N_2  and  C_3
REMARK    3  A    between atoms: C_7  and  C_8
REMARK    4  A    between atoms: C_15  and  C_16
REMARK                            x       y       z     vdW  Elec       q    Type
REMARK                         _______ _______ _______ _____ _____    ______ ____
ROOT
ATOM      1  C   UNL     1       0.719  10.091  19.946  0.00  0.00    +0.000 C 
ATOM      2  N   UNL     1       1.076   8.724  20.294  0.00  0.00    +0.000 N 
ATOM      3  C   UNL     1       0.517   8.104  21.486  0.00  0.00    +0.000 C 
ATOM      4  C   UNL     1       1.973   7.984  19.464  0.00  0.00    +0.000 A 
ATOM      5  N   UNL     1       2.537   8.558  18.376  0.00  0.00    +0.000 NA
ATOM      6  C   UNL     1       3.394   7.879  17.578  0.00  0.00    +0.000 A 
ATOM      7  C   UNL     1       3.756   6.526  17.825  0.00  0.00    +0.000 A 
ATOM      8  C   UNL     1       3.150   5.944  19.014  0.00  0.00    +0.000 A 
ATOM      9  N   UNL     1       2.298   6.703  19.762  0.00  0.00    +0.000 NA
ENDROOT
BRANCH   7  10
ATOM     10  C   UNL     1       4.750   5.838  16.855  0.00  0.00    +0.000 A 
ATOM     11  C   UNL     1       4.356   4.733  16.038  0.00  0.00    +0.000 A 
ATOM     12  C   UNL     1       5.239   4.130  15.129  0.00  0.00    +0.000 A 
ATOM     13  C   UNL     1       6.539   4.599  14.989  0.00  0.00    +0.000 A 
ATOM     14  F   UNL     1       7.388   4.034  14.096  0.00  0.00    +0.000 F 
ATOM     15  C   UNL     1       6.969   5.646  15.779  0.00  0.00    +0.000 A 
ATOM     16  C   UNL     1       6.103   6.232  16.695  0.00  0.00    +0.000 A 
ENDBRANCH   7  10
BRANCH   8  17
ATOM     17  C   UNL     1       3.404   4.533  19.524  0.00  0.00    +0.000 C 
ATOM     18  C   UNL     1       4.861   4.032  19.367  0.00  0.00    +0.000 C 
ATOM     19  N   UNL     1       4.982   2.672  19.919  0.00  0.00    +0.000 NA
ATOM     20  C   UNL     1       4.004   1.774  19.288  0.00  0.00    +0.000 C 
ATOM     21  C   UNL     1       2.600   2.355  19.430  0.00  0.00    +0.000 C 
ATOM     22  O   UNL     1       2.550   3.635  18.829  0.00  0.00    +0.000 OA
ATOM     23  H   UNL     1       4.791   2.704  20.949  0.00  0.00    +0.000 HD
ENDBRANCH   8  17
TORSDOF 2
ENDMDL
MODEL 6
REMARK VINA RESULT:      -6.9      3.393      5.278
REMARK  Name = 
REMARK  4 active torsions:
REMARK  status: ('A' for Active; 'I' for Inactive)
REMARK    1  A    between atoms: C_1  and  N_2
REMARK    2  A    between atoms: N_2  and  C_3
REMARK    3  A    between atoms: C_7  and  C_8
REMARK    4  A    between atoms: C_15  and  C_16
REMARK                            x       y       z     vdW  Elec       q    Type
REMARK                         _______ _______ _______ _____ _____    ______ ____
ROOT
ATOM      1  C   UNL     1       1.040   3.311  19.734  0.00  0.00    +0.000 C 
ATOM      2  N   UNL     1       2.326   3.990  19.785  0.00  0.00    +0.000 N 
ATOM      3  C   UNL     1       2.779   4.606  21.023  0.00  0.00    +0.000 C 
ATOM      4  C   UNL     1       3.151   4.051  18.620  0.00  0.00    +0.000 A 
ATOM      5  N   UNL     1       2.728   3.523  17.448  0.00  0.00    +0.000 NA
ATOM      6  C   UNL     1       3.489   3.573  16.330  0.00  0.00    +0.000 A 
ATOM      7  C   UNL     1       4.776   4.178  16.311  0.00  0.00    +0.000 A 
ATOM      8  C   UNL     1       5.194   4.756  17.580  0.00  0.00    +0.000 A 
ATOM      9  N   UNL     1       4.361   4.660  18.657  0.00  0.00    +0.000 NA
ENDROOT
BRANCH   7  10
ATOM     10  C   UNL     1       5.568   4.190  14.978  0.00  0.00    +0.000 A 
ATOM     11  C   UNL     1       5.068   3.545  13.804  0.00  0.00    +0.000 A 
ATOM     12  C   UNL     1       5.759   3.585  12.583  0.00  0.00    +0.000 A 
ATOM     13  C   UNL     1       6.965   4.268  12.475  0.00  0.00    +0.000 A 
ATOM     14  F   UNL     1       7.624   4.330  11.293  0.00  0.00    +0.000 F 
ATOM     15  C   UNL     1       7.496   4.881  13.592  0.00  0.00    +0.000 A 
ATOM     16  C   UNL     1       6.825   4.826  14.808  0.00  0.00    +0.000 A 
ENDBRANCH   7  10
BRANCH   8  17
ATOM     17  C   UNL     1       6.503   5.495  17.817  0.00  0.00    +0.000 C 
ATOM     18  C   UNL     1       6.994   5.502  19.287  0.00  0.00    +0.000 C 
ATOM     19  N   UNL     1       8.276   6.221  19.379  0.00  0.00    +0.000 NA
ATOM     20  C   UNL     1       8.146   7.574  18.820  0.00  0.00    +0.000 C 
ATOM     21  C   UNL     1       7.605   7.497  17.395  0.00  0.00    +0.000 C 
ATOM     22  O   UNL     1       6.348   6.843  17.396  0.00  0.00    +0.000 OA
ATOM     23  H   UNL     1       9.000   5.700  18.829  0.00  0.00    +0.000 HD
ENDBRANCH   8  17
TORSDOF 2
ENDMDL
MODEL 7
REMARK VINA RESULT:      -6.9      1.484      1.623
REMARK  Name = 
REMARK  4 active torsions:
REMARK  status: ('A' for Active; 'I' for Inactive)
REMARK    1  A    between atoms: C_1  and  N_2
REMARK    2  A    between atoms: N_2  and  C_3
REMARK    3  A    between atoms: C_7  and  C_8
REMARK    4  A    between atoms: C_15  and  C_16
REMARK                            x       y       z     vdW  Elec       q    Type
REMARK                         _______ _______ _______ _____ _____    ______ ____
ROOT
ATOM      1  C   UNL     1       0.409  10.219  20.024  0.00  0.00    +0.000 C 
ATOM      2  N   UNL     1       0.817   8.874  20.397  0.00  0.00    +0.000 N 
ATOM      3  C   UNL     1       0.274   8.251  21.595  0.00  0.00    +0.000 C 
ATOM      4  C   UNL     1       1.749   8.156  19.586  0.00  0.00    +0.000 A 
ATOM      5  N   UNL     1       2.297   8.733  18.493  0.00  0.00    +0.000 NA
ATOM      6  C   UNL     1       3.187   8.076  17.712  0.00  0.00    +0.000 A 
ATOM      7  C   UNL     1       3.600   6.743  17.984  0.00  0.00    +0.000 A 
ATOM      8  C   UNL     1       3.008   6.157  19.178  0.00  0.00    +0.000 A 
ATOM      9  N   UNL     1       2.122   6.894  19.908  0.00  0.00    +0.000 NA
ENDROOT
BRANCH   7  10
ATOM     10  C   UNL     1       4.628   6.078  17.033  0.00  0.00    +0.000 A 
ATOM     11  C   UNL     1       5.963   6.575  16.907  0.00  0.00    +0.000 A 
ATOM     12  C   UNL     1       6.911   5.956  16.079  0.00  0.00    +0.000 A 
ATOM     13  C   UNL     1       6.579   4.821  15.350  0.00  0.00    +0.000 A 
ATOM     14  F   UNL     1       7.498   4.205  14.567  0.00  0.00    +0.000 F 
ATOM     15  C   UNL     1       5.292   4.324  15.421  0.00  0.00    +0.000 A 
ATOM     16  C   UNL     1       4.345   4.948  16.224  0.00  0.00    +0.000 A 
ENDBRANCH   7  10
BRANCH   8  17
ATOM     17  C   UNL     1       3.313   4.765  19.714  0.00  0.00    +0.000 C 
ATOM     18  C   UNL     1       4.781   4.302  19.536  0.00  0.00    +0.000 C 
ATOM     19  N   UNL     1       4.953   2.959  20.116  0.00  0.00    +0.000 NA
ATOM     20  C   UNL     1       3.989   2.020  19.525  0.00  0.00    +0.000 C 
ATOM     21  C   UNL     1       2.572   2.563  19.685  0.00  0.00    +0.000 C 
ATOM     22  O   UNL     1       2.471   3.828  19.056  0.00  0.00    +0.000 OA
ATOM     23  H   UNL     1       4.783   3.009  21.148  0.00  0.00    +0.000 HD
ENDBRANCH   8  17
TORSDOF 2
ENDMDL
MODEL 8
REMARK VINA RESULT:      -6.9      3.494      5.893
REMARK  Name = 
REMARK  4 active torsions:
REMARK  status: ('A' for Active; 'I' for Inactive)
REMARK    1  A    between atoms: C_1  and  N_2
REMARK    2  A    between atoms: N_2  and  C_3
REMARK    3  A    between atoms: C_7  and  C_8
REMARK    4  A    between atoms: C_15  and  C_16
REMARK                            x       y       z     vdW  Elec       q    Type
REMARK                         _______ _______ _______ _____ _____    ______ ____
ROOT
ATOM      1  C   UNL     1       7.189   5.508  14.164  0.00  0.00    +0.000 C 
ATOM      2  N   UNL     1       6.304   4.699  14.988  0.00  0.00    +0.000 N 
ATOM      3  C   UNL     1       6.331   3.248  14.884  0.00  0.00    +0.000 C 
ATOM      4  C   UNL     1       5.406   5.328  15.905  0.00  0.00    +0.000 A 
ATOM      5  N   UNL     1       5.335   6.676  15.985  0.00  0.00    +0.000 NA
ATOM      6  C   UNL     1       4.489   7.294  16.842  0.00  0.00    +0.000 A 
ATOM      7  C   UNL     1       3.626   6.574  17.713  0.00  0.00    +0.000 A 
ATOM      8  C   UNL     1       3.711   5.125  17.589  0.00  0.00    +0.000 A 
ATOM      9  N   UNL     1       4.591   4.588  16.696  0.00  0.00    +0.000 NA
ENDROOT
BRANCH   7  10
ATOM     10  C   UNL     1       2.690   7.373  18.654  0.00  0.00    +0.000 A 
ATOM     11  C   UNL     1       2.086   8.603  18.243  0.00  0.00    +0.000 A 
ATOM     12  C   UNL     1       1.206   9.312  19.074  0.00  0.00    +0.000 A 
ATOM     13  C   UNL     1       0.884   8.832  20.338  0.00  0.00    +0.000 A 
ATOM     14  F   UNL     1       0.016   9.501  21.135  0.00  0.00    +0.000 F 
ATOM     15  C   UNL     1       1.466   7.663  20.784  0.00  0.00    +0.000 A 
ATOM     16  C   UNL     1       2.355   6.968  19.972  0.00  0.00    +0.000 A 
ENDBRANCH   7  10
BRANCH   8  17
ATOM     17  C   UNL     1       2.868   4.129  18.372  0.00  0.00    +0.000 C 
ATOM     18  C   UNL     1       3.242   2.641  18.154  0.00  0.00    +0.000 C 
ATOM     19  N   UNL     1       2.377   1.784  18.982  0.00  0.00    +0.000 NA
ATOM     20  C   UNL     1       0.961   2.059  18.699  0.00  0.00    +0.000 C 
ATOM     21  C   UNL     1       0.676   3.547  18.878  0.00  0.00    +0.000 C 
ATOM     22  O   UNL     1       1.505   4.300  18.011  0.00  0.00    +0.000 OA
ATOM     23  H   UNL     1       2.562   1.989  19.993  0.00  0.00    +0.000 HD
ENDBRANCH   8  17
TORSDOF 2
ENDMDL
MODEL 9
REMARK VINA RESULT:      -6.9      3.496      5.970
REMARK  Name = 
REMARK  4 active torsions:
REMARK  status: ('A' for Active; 'I' for Inactive)
REMARK    1  A    between atoms: C_1  and  N_2
REMARK    2  A    between atoms: N_2  and  C_3
REMARK    3  A    between atoms: C_7  and  C_8
REMARK    4  A    between atoms: C_15  and  C_16
REMARK                            x       y       z     vdW  Elec       q    Type
REMARK                         _______ _______ _______ _____ _____    ______ ____
ROOT
ATOM      1  C   UNL     1       7.172   5.491  14.052  0.00  0.00    +0.000 C 
ATOM      2  N   UNL     1       6.303   4.684  14.896  0.00  0.00    +0.000 N 
ATOM      3  C   UNL     1       6.348   3.233  14.816  0.00  0.00    +0.000 C 
ATOM      4  C   UNL     1       5.405   5.316  15.810  0.00  0.00    +0.000 A 
ATOM      5  N   UNL     1       5.318   6.665  15.869  0.00  0.00    +0.000 NA
ATOM      6  C   UNL     1       4.471   7.286  16.723  0.00  0.00    +0.000 A 
ATOM      7  C   UNL     1       3.624   6.569  17.613  0.00  0.00    +0.000 A 
ATOM      8  C   UNL     1       3.726   5.120  17.511  0.00  0.00    +0.000 A 
ATOM      9  N   UNL     1       4.606   4.580  16.620  0.00  0.00    +0.000 NA
ENDROOT
BRANCH   7  10
ATOM     10  C   UNL     1       2.685   7.372  18.548  0.00  0.00    +0.000 A 
ATOM     11  C   UNL     1       2.400   6.935  19.879  0.00  0.00    +0.000 A 
ATOM     12  C   UNL     1       1.583   7.677  20.746  0.00  0.00    +0.000 A 
ATOM     13  C   UNL     1       1.022   8.879  20.333  0.00  0.00    +0.000 A 
ATOM     14  F   UNL     1       0.251   9.611  21.174  0.00  0.00    +0.000 F 
ATOM     15  C   UNL     1       1.249   9.324  19.046  0.00  0.00    +0.000 A 
ATOM     16  C   UNL     1       2.041   8.582  18.179  0.00  0.00    +0.000 A 
ENDBRANCH   7  10
BRANCH   8  17
ATOM     17  C   UNL     1       2.902   4.126  18.317  0.00  0.00    +0.000 C 
ATOM     18  C   UNL     1       3.243   2.636  18.064  0.00  0.00    +0.000 C 
ATOM     19  N   UNL     1       2.401   1.781  18.918  0.00  0.00    +0.000 NA
ATOM     20  C   UNL     1       0.978   2.081  18.699  0.00  0.00    +0.000 C 
ATOM     21  C   UNL     1       0.725   3.571  18.909  0.00  0.00    +0.000 C 
ATOM     22  O   UNL     1       1.527   4.323  18.017  0.00  0.00    +0.000 OA
ATOM     23  H   UNL     1       2.632   1.970  19.922  0.00  0.00    +0.000 HD
ENDBRANCH   8  17
TORSDOF 2
ENDMDL
