MODEL 1
REMARK VINA RESULT:      -6.9      0.000      0.000
REMARK  Name = 
REMARK  6 active torsions:
REMARK  status: ('A' for Active; 'I' for Inactive)
REMARK    1  A    between atoms: C_1  and  C_2
REMARK    2  A    between atoms: N_4  and  C_5
REMARK    3  A    between atoms: N_16  and  C_17
REMARK    4  A    between atoms: C_17  and  C_18
REMARK    5  A    between atoms: C_18  and  O_19
REMARK    6  A    between atoms: O_19  and  C_20
REMARK                            x       y       z     vdW  Elec       q    Type
REMARK                         _______ _______ _______ _____ _____    ______ ____
ROOT
ATOM      1  C   UNL     1       8.625  13.363  17.312  0.00  0.00    +0.000 C 
ATOM      2  C   UNL     1       9.990  12.719  17.585  0.00  0.00    +0.000 C 
ATOM      3  C   UNL     1      11.161  13.696  17.270  0.00  0.00    +0.000 C 
ATOM      4  N   UNL     1      11.637  14.565  18.367  0.00  0.00    +0.000 NA
ATOM      5  C   UNL     1      11.934  13.691  19.514  0.00  0.00    +0.000 C 
ATOM      6  C   UNL     1      10.733  12.870  19.996  0.00  0.00    +0.000 C 
ATOM      7  N   UNL     1      10.083  12.101  18.924  0.00  0.00    +0.000 N 
ATOM      8  C   UNL     1       9.540  10.878  19.295  0.00  0.00    +0.000 C 
ATOM      9  O   UNL     1       9.607  10.427  20.432  0.00  0.00    +0.000 OA
ATOM     10  N   UNL     1       8.970  10.166  18.276  0.00  0.00    +0.000 N 
ATOM     11  H   UNL     1       8.448  10.696  17.591  0.00  0.00    +0.000 HD
ENDROOT
BRANCH   4  12
ATOM     12  C   UNL     1      10.800  15.753  18.665  0.00  0.00    +0.000 C 
ATOM     13  C   UNL     1      10.861  16.755  17.489  0.00  0.00    +0.000 C 
ATOM     14  C   UNL     1      10.457  18.187  17.830  0.00  0.00    +0.000 C 
ATOM     15  O   UNL     1      10.990  18.630  19.070  0.00  0.00    +0.000 OA
ATOM     16  C   UNL     1      10.561  17.799  20.139  0.00  0.00    +0.000 C 
ATOM     17  C   UNL     1      11.199  16.432  19.990  0.00  0.00    +0.000 C 
ENDBRANCH   4  12
BRANCH  10  18
ATOM     18  C   UNL     1       8.435   8.835  18.518  0.00  0.00    +0.000 C 
BRANCH  18  19
ATOM     19  C   UNL     1       7.402   8.432  17.475  0.00  0.00    +0.000 C 
BRANCH  19  20
ATOM     20  O   UNL     1       7.759   7.133  16.982  0.00  0.00    +0.000 OA
BRANCH  20  21
ATOM     21  C   UNL     1       7.065   6.044  17.602  0.00  0.00    +0.000 C 
ATOM     22  C   UNL     1       5.567   6.347  17.465  0.00  0.00    +0.000 C 
ATOM     23  C   UNL     1       5.131   6.366  15.996  0.00  0.00    +0.000 C 
ATOM     24  C   UNL     1       5.504   5.074  15.273  0.00  0.00    +0.000 C 
ATOM     25  C   UNL     1       6.975   4.709  15.455  0.00  0.00    +0.000 C 
ATOM     26  C   UNL     1       7.369   4.698  16.931  0.00  0.00    +0.000 C 
ENDBRANCH  20  21
ENDBRANCH  19  20
ENDBRANCH  18  19
ENDBRANCH  10  18
TORSDOF 5
ENDMDL
MODEL 2
REMARK VINA RESULT:      -6.8      8.691      9.745
REMARK  Name = 
REMARK  6 active torsions:
REMARK  status: ('A' for Active; 'I' for Inactive)
REMARK    1  A    between atoms: C_1  and  C_2
REMARK    2  A    between atoms: N_4  and  C_5
REMARK    3  A    between atoms: N_16  and  C_17
REMARK    4  A    between atoms: C_17  and  C_18
REMARK    5  A    between atoms: C_18  and  O_19
REMARK    6  A    between atoms: O_19  and  C_20
REMARK                            x       y       z     vdW  Elec       q    Type
REMARK                         _______ _______ _______ _____ _____    ______ ____
ROOT
ATOM      1  C   UNL     1       1.735   9.341  21.657  0.00  0.00    +0.000 C 
ATOM      2  C   UNL     1       0.722   8.937  20.578  0.00  0.00    +0.000 C 
ATOM      3  C   UNL     1      -0.703   9.483  20.891  0.00  0.00    +0.000 C 
ATOM      4  N   UNL     1      -1.053  10.816  20.360  0.00  0.00    +0.000 NA
ATOM      5  C   UNL     1      -0.770  10.796  18.915  0.00  0.00    +0.000 C 
ATOM      6  C   UNL     1       0.690  10.477  18.574  0.00  0.00    +0.000 C 
ATOM      7  N   UNL     1       1.182   9.244  19.207  0.00  0.00    +0.000 N 
ATOM      8  C   UNL     1       2.108   8.512  18.477  0.00  0.00    +0.000 C 
ATOM      9  O   UNL     1       2.490   8.832  17.358  0.00  0.00    +0.000 OA
ATOM     10  N   UNL     1       2.527   7.354  19.071  0.00  0.00    +0.000 N 
ATOM     11  H   UNL     1       2.674   7.386  20.071  0.00  0.00    +0.000 HD
ENDROOT
BRANCH   4  12
ATOM     12  C   UNL     1      -0.506  11.978  21.105  0.00  0.00    +0.000 C 
ATOM     13  C   UNL     1      -1.137  12.050  22.514  0.00  0.00    +0.000 C 
ATOM     14  C   UNL     1      -1.044  13.409  23.203  0.00  0.00    +0.000 C 
ATOM     15  O   UNL     1      -1.324  14.491  22.325  0.00  0.00    +0.000 OA
ATOM     16  C   UNL     1      -0.424  14.506  21.226  0.00  0.00    +0.000 C 
ATOM     17  C   UNL     1      -0.700  13.304  20.345  0.00  0.00    +0.000 C 
ENDBRANCH   4  12
BRANCH  10  18
ATOM     18  C   UNL     1       3.437   6.457  18.375  0.00  0.00    +0.000 C 
BRANCH  18  19
ATOM     19  C   UNL     1       4.085   5.451  19.317  0.00  0.00    +0.000 C 
BRANCH  19  20
ATOM     20  O   UNL     1       3.038   4.783  20.034  0.00  0.00    +0.000 OA
BRANCH  20  21
ATOM     21  C   UNL     1       3.235   3.376  20.212  0.00  0.00    +0.000 C 
ATOM     22  C   UNL     1       2.007   2.858  20.975  0.00  0.00    +0.000 C 
ATOM     23  C   UNL     1       0.726   3.021  20.151  0.00  0.00    +0.000 C 
ATOM     24  C   UNL     1       0.843   2.365  18.778  0.00  0.00    +0.000 C 
ATOM     25  C   UNL     1       2.096   2.807  18.026  0.00  0.00    +0.000 C 
ATOM     26  C   UNL     1       3.351   2.626  18.878  0.00  0.00    +0.000 C 
ENDBRANCH  20  21
ENDBRANCH  19  20
ENDBRANCH  18  19
ENDBRANCH  10  18
TORSDOF 5
ENDMDL
MODEL 3
REMARK VINA RESULT:      -6.7      8.800     11.313
REMARK  Name = 
REMARK  6 active torsions:
REMARK  status: ('A' for Active; 'I' for Inactive)
REMARK    1  A    between atoms: C_1  and  C_2
REMARK    2  A    between atoms: N_4  and  C_5
REMARK    3  A    between atoms: N_16  and  C_17
REMARK    4  A    between atoms: C_17  and  C_18
REMARK    5  A    between atoms: C_18  and  O_19
REMARK    6  A    between atoms: O_19  and  C_20
REMARK                            x       y       z     vdW  Elec       q    Type
REMARK                         _______ _______ _______ _____ _____    ______ ____
ROOT
ATOM      1  C   UNL     1      -1.680   9.797  17.341  0.00  0.00    +0.000 C 
ATOM      2  C   UNL     1      -0.769  10.856  17.974  0.00  0.00    +0.000 C 
ATOM      3  C   UNL     1      -1.472  12.243  18.062  0.00  0.00    +0.000 C 
ATOM      4  N   UNL     1      -2.242  12.540  19.288  0.00  0.00    +0.000 NA
ATOM      5  C   UNL     1      -1.348  12.297  20.432  0.00  0.00    +0.000 C 
ATOM      6  C   UNL     1      -0.807  10.864  20.502  0.00  0.00    +0.000 C 
ATOM      7  N   UNL     1      -0.171  10.417  19.253  0.00  0.00    +0.000 N 
ATOM      8  C   UNL     1       0.903   9.549  19.393  0.00  0.00    +0.000 C 
ATOM      9  O   UNL     1       1.336   9.181  20.478  0.00  0.00    +0.000 OA
ATOM     10  N   UNL     1       1.499   9.173  18.221  0.00  0.00    +0.000 N 
ATOM     11  H   UNL     1       0.885   8.999  17.437  0.00  0.00    +0.000 HD
ENDROOT
BRANCH   4  12
ATOM     12  C   UNL     1      -3.586  11.916  19.379  0.00  0.00    +0.000 C 
ATOM     13  C   UNL     1      -4.278  11.941  17.998  0.00  0.00    +0.000 C 
ATOM     14  C   UNL     1      -5.796  11.779  18.025  0.00  0.00    +0.000 C 
ATOM     15  O   UNL     1      -6.412  12.536  19.058  0.00  0.00    +0.000 OA
ATOM     16  C   UNL     1      -5.918  12.157  20.335  0.00  0.00    +0.000 C 
ATOM     17  C   UNL     1      -4.469  12.583  20.452  0.00  0.00    +0.000 C 
ENDBRANCH   4  12
BRANCH  10  18
ATOM     18  C   UNL     1       2.683   8.328  18.235  0.00  0.00    +0.000 C 
BRANCH  18  19
ATOM     19  C   UNL     1       2.351   6.868  17.959  0.00  0.00    +0.000 C 
BRANCH  19  20
ATOM     20  O   UNL     1       2.148   6.218  19.221  0.00  0.00    +0.000 OA
BRANCH  20  21
ATOM     21  C   UNL     1       3.000   5.092  19.461  0.00  0.00    +0.000 C 
ATOM     22  C   UNL     1       2.495   4.431  20.751  0.00  0.00    +0.000 C 
ATOM     23  C   UNL     1       1.075   3.881  20.581  0.00  0.00    +0.000 C 
ATOM     24  C   UNL     1       0.972   2.927  19.392  0.00  0.00    +0.000 C 
ATOM     25  C   UNL     1       1.536   3.532  18.110  0.00  0.00    +0.000 C 
ATOM     26  C   UNL     1       2.952   4.067  18.319  0.00  0.00    +0.000 C 
ENDBRANCH  20  21
ENDBRANCH  19  20
ENDBRANCH  18  19
ENDBRANCH  10  18
TORSDOF 5
ENDMDL
MODEL 4
REMARK VINA RESULT:      -6.6      8.645      9.845
REMARK  Name = 
REMARK  6 active torsions:
REMARK  status: ('A' for Active; 'I' for Inactive)
REMARK    1  A    between atoms: C_1  and  C_2
REMARK    2  A    between atoms: N_4  and  C_5
REMARK    3  A    between atoms: N_16  and  C_17
REMARK    4  A    between atoms: C_17  and  C_18
REMARK    5  A    between atoms: C_18  and  O_19
REMARK    6  A    between atoms: O_19  and  C_20
REMARK                            x       y       z     vdW  Elec       q    Type
REMARK                         _______ _______ _______ _____ _____    ______ ____
ROOT
ATOM      1  C   UNL     1       1.633   9.218  21.654  0.00  0.00    +0.000 C 
ATOM      2  C   UNL     1       0.655   8.941  20.506  0.00  0.00    +0.000 C 
ATOM      3  C   UNL     1      -0.758   9.529  20.798  0.00  0.00    +0.000 C 
ATOM      4  N   UNL     1      -1.024  10.913  20.353  0.00  0.00    +0.000 NA
ATOM      5  C   UNL     1      -0.677  10.984  18.924  0.00  0.00    +0.000 C 
ATOM      6  C   UNL     1       0.782  10.621  18.622  0.00  0.00    +0.000 C 
ATOM      7  N   UNL     1       1.190   9.324  19.182  0.00  0.00    +0.000 N 
ATOM      8  C   UNL     1       2.115   8.603  18.440  0.00  0.00    +0.000 C 
ATOM      9  O   UNL     1       2.562   8.985  17.364  0.00  0.00    +0.000 OA
ATOM     10  N   UNL     1       2.455   7.386  18.964  0.00  0.00    +0.000 N 
ATOM     11  H   UNL     1       2.557   7.339  19.968  0.00  0.00    +0.000 HD
ENDROOT
BRANCH   4  12
ATOM     12  C   UNL     1      -0.461  11.990  21.204  0.00  0.00    +0.000 C 
ATOM     13  C   UNL     1      -1.226  12.062  22.545  0.00  0.00    +0.000 C 
ATOM     14  C   UNL     1      -1.090  13.379  23.305  0.00  0.00    +0.000 C 
ATOM     15  O   UNL     1      -1.185  14.516  22.458  0.00  0.00    +0.000 OA
ATOM     16  C   UNL     1      -0.179  14.494  21.456  0.00  0.00    +0.000 C 
ATOM     17  C   UNL     1      -0.462  13.358  20.494  0.00  0.00    +0.000 C 
ENDBRANCH   4  12
BRANCH  10  18
ATOM     18  C   UNL     1       3.355   6.500  18.242  0.00  0.00    +0.000 C 
BRANCH  18  19
ATOM     19  C   UNL     1       2.673   5.204  17.826  0.00  0.00    +0.000 C 
BRANCH  19  20
ATOM     20  O   UNL     1       3.248   4.139  18.594  0.00  0.00    +0.000 OA
BRANCH  20  21
ATOM     21  C   UNL     1       2.490   2.923  18.599  0.00  0.00    +0.000 C 
ATOM     22  C   UNL     1       3.107   2.029  19.683  0.00  0.00    +0.000 C 
ATOM     23  C   UNL     1       2.952   2.648  21.075  0.00  0.00    +0.000 C 
ATOM     24  C   UNL     1       1.496   2.980  21.393  0.00  0.00    +0.000 C 
ATOM     25  C   UNL     1       0.835   3.808  20.295  0.00  0.00    +0.000 C 
ATOM     26  C   UNL     1       1.009   3.157  18.924  0.00  0.00    +0.000 C 
ENDBRANCH  20  21
ENDBRANCH  19  20
ENDBRANCH  18  19
ENDBRANCH  10  18
TORSDOF 5
ENDMDL
MODEL 5
REMARK VINA RESULT:      -6.5      0.945      1.038
REMARK  Name = 
REMARK  6 active torsions:
REMARK  status: ('A' for Active; 'I' for Inactive)
REMARK    1  A    between atoms: C_1  and  C_2
REMARK    2  A    between atoms: N_4  and  C_5
REMARK    3  A    between atoms: N_16  and  C_17
REMARK    4  A    between atoms: C_17  and  C_18
REMARK    5  A    between atoms: C_18  and  O_19
REMARK    6  A    between atoms: O_19  and  C_20
REMARK                            x       y       z     vdW  Elec       q    Type
REMARK                         _______ _______ _______ _____ _____    ______ ____
ROOT
ATOM      1  C   UNL     1       8.176  13.004  17.371  0.00  0.00    +0.000 C 
ATOM      2  C   UNL     1       9.580  12.421  17.574  0.00  0.00    +0.000 C 
ATOM      3  C   UNL     1      10.690  13.465  17.251  0.00  0.00    +0.000 C 
ATOM      4  N   UNL     1      11.162  14.320  18.360  0.00  0.00    +0.000 NA
ATOM      5  C   UNL     1      11.544  13.426  19.466  0.00  0.00    +0.000 C 
ATOM      6  C   UNL     1      10.402  12.532  19.961  0.00  0.00    +0.000 C 
ATOM      7  N   UNL     1       9.751  11.766  18.887  0.00  0.00    +0.000 N 
ATOM      8  C   UNL     1       9.283  10.506  19.235  0.00  0.00    +0.000 C 
ATOM      9  O   UNL     1       9.413  10.023  20.353  0.00  0.00    +0.000 OA
ATOM     10  N   UNL     1       8.711   9.800  18.213  0.00  0.00    +0.000 N 
ATOM     11  H   UNL     1       8.139  10.324  17.566  0.00  0.00    +0.000 HD
ENDROOT
BRANCH   4  12
ATOM     12  C   UNL     1      10.280  15.456  18.727  0.00  0.00    +0.000 C 
ATOM     13  C   UNL     1       9.988  16.325  17.483  0.00  0.00    +0.000 C 
ATOM     14  C   UNL     1       9.508  17.745  17.777  0.00  0.00    +0.000 C 
ATOM     15  O   UNL     1      10.234  18.365  18.829  0.00  0.00    +0.000 OA
ATOM     16  C   UNL     1      10.129  17.619  20.034  0.00  0.00    +0.000 C 
ATOM     17  C   UNL     1      10.867  16.307  19.870  0.00  0.00    +0.000 C 
ENDBRANCH   4  12
BRANCH  10  18
ATOM     18  C   UNL     1       8.251   8.436  18.428  0.00  0.00    +0.000 C 
BRANCH  18  19
ATOM     19  C   UNL     1       7.557   7.863  17.200  0.00  0.00    +0.000 C 
BRANCH  19  20
ATOM     20  O   UNL     1       6.529   6.972  17.652  0.00  0.00    +0.000 OA
BRANCH  20  21
ATOM     21  C   UNL     1       6.987   5.667  18.028  0.00  0.00    +0.000 C 
ATOM     22  C   UNL     1       5.927   5.090  18.976  0.00  0.00    +0.000 C 
ATOM     23  C   UNL     1       4.584   4.896  18.263  0.00  0.00    +0.000 C 
ATOM     24  C   UNL     1       4.725   4.044  17.003  0.00  0.00    +0.000 C 
ATOM     25  C   UNL     1       5.825   4.554  16.076  0.00  0.00    +0.000 C 
ATOM     26  C   UNL     1       7.146   4.732  16.822  0.00  0.00    +0.000 C 
ENDBRANCH  20  21
ENDBRANCH  19  20
ENDBRANCH  18  19
ENDBRANCH  10  18
TORSDOF 5
ENDMDL
MODEL 6
REMARK VINA RESULT:      -6.5      7.488      8.872
REMARK  Name = 
REMARK  6 active torsions:
REMARK  status: ('A' for Active; 'I' for Inactive)
REMARK    1  A    between atoms: C_1  and  C_2
REMARK    2  A    between atoms: N_4  and  C_5
REMARK    3  A    between atoms: N_16  and  C_17
REMARK    4  A    between atoms: C_17  and  C_18
REMARK    5  A    between atoms: C_18  and  O_19
REMARK    6  A    between atoms: O_19  and  C_20
REMARK                            x       y       z     vdW  Elec       q    Type
REMARK                         _______ _______ _______ _____ _____    ______ ____
ROOT
ATOM      1  C   UNL     1       1.410   9.107  21.874  0.00  0.00    +0.000 C 
ATOM      2  C   UNL     1       0.543   8.966  20.618  0.00  0.00    +0.000 C 
ATOM      3  C   UNL     1      -0.701   9.901  20.667  0.00  0.00    +0.000 C 
ATOM      4  N   UNL     1      -0.554  11.259  20.103  0.00  0.00    +0.000 NA
ATOM      5  C   UNL     1      -0.026  11.108  18.737  0.00  0.00    +0.000 C 
ATOM      6  C   UNL     1       1.320  10.378  18.671  0.00  0.00    +0.000 C 
ATOM      7  N   UNL     1       1.317   9.081  19.363  0.00  0.00    +0.000 N 
ATOM      8  C   UNL     1       2.115   8.091  18.807  0.00  0.00    +0.000 C 
ATOM      9  O   UNL     1       2.773   8.249  17.785  0.00  0.00    +0.000 OA
ATOM     10  N   UNL     1       2.072   6.884  19.449  0.00  0.00    +0.000 N 
ATOM     11  H   UNL     1       2.033   6.910  20.458  0.00  0.00    +0.000 HD
ENDROOT
BRANCH   4  12
ATOM     12  C   UNL     1       0.152  12.246  20.958  0.00  0.00    +0.000 C 
ATOM     13  C   UNL     1      -0.803  12.785  22.047  0.00  0.00    +0.000 C 
ATOM     14  C   UNL     1      -0.389  14.110  22.682  0.00  0.00    +0.000 C 
ATOM     15  O   UNL     1       0.084  15.053  21.730  0.00  0.00    +0.000 OA
ATOM     16  C   UNL     1       1.208  14.547  21.023  0.00  0.00    +0.000 C 
ATOM     17  C   UNL     1       0.761  13.400  20.138  0.00  0.00    +0.000 C 
ENDBRANCH   4  12
BRANCH  10  18
ATOM     18  C   UNL     1       2.802   5.742  18.920  0.00  0.00    +0.000 C 
BRANCH  18  19
ATOM     19  C   UNL     1       4.213   5.651  19.485  0.00  0.00    +0.000 C 
BRANCH  19  20
ATOM     20  O   UNL     1       5.076   5.186  18.438  0.00  0.00    +0.000 OA
BRANCH  20  21
ATOM     21  C   UNL     1       5.733   6.221  17.698  0.00  0.00    +0.000 C 
ATOM     22  C   UNL     1       7.230   5.882  17.711  0.00  0.00    +0.000 C 
ATOM     23  C   UNL     1       7.513   4.568  16.976  0.00  0.00    +0.000 C 
ATOM     24  C   UNL     1       6.960   4.579  15.553  0.00  0.00    +0.000 C 
ATOM     25  C   UNL     1       5.489   4.986  15.503  0.00  0.00    +0.000 C 
ATOM     26  C   UNL     1       5.249   6.301  16.244  0.00  0.00    +0.000 C 
ENDBRANCH  20  21
ENDBRANCH  19  20
ENDBRANCH  18  19
ENDBRANCH  10  18
TORSDOF 5
ENDMDL
MODEL 7
REMARK VINA RESULT:      -6.5      8.943     10.330
REMARK  Name = 
REMARK  6 active torsions:
REMARK  status: ('A' for Active; 'I' for Inactive)
REMARK    1  A    between atoms: C_1  and  C_2
REMARK    2  A    between atoms: N_4  and  C_5
REMARK    3  A    between atoms: N_16  and  C_17
REMARK    4  A    between atoms: C_17  and  C_18
REMARK    5  A    between atoms: C_18  and  O_19
REMARK    6  A    between atoms: O_19  and  C_20
REMARK                            x       y       z     vdW  Elec       q    Type
REMARK                         _______ _______ _______ _____ _____    ______ ____
ROOT
ATOM      1  C   UNL     1      -0.766   9.728  18.132  0.00  0.00    +0.000 C 
ATOM      2  C   UNL     1       0.511  10.279  18.778  0.00  0.00    +0.000 C 
ATOM      3  C   UNL     1       0.341  11.764  19.218  0.00  0.00    +0.000 C 
ATOM      4  N   UNL     1      -0.155  12.014  20.588  0.00  0.00    +0.000 NA
ATOM      5  C   UNL     1       0.709  11.258  21.508  0.00  0.00    +0.000 C 
ATOM      6  C   UNL     1       0.728   9.748  21.240  0.00  0.00    +0.000 C 
ATOM      7  N   UNL     1       1.045   9.407  19.845  0.00  0.00    +0.000 N 
ATOM      8  C   UNL     1       1.764   8.234  19.653  0.00  0.00    +0.000 C 
ATOM      9  O   UNL     1       2.149   7.521  20.571  0.00  0.00    +0.000 OA
ATOM     10  N   UNL     1       2.075   7.953  18.351  0.00  0.00    +0.000 N 
ATOM     11  H   UNL     1       1.364   8.158  17.662  0.00  0.00    +0.000 HD
ENDROOT
BRANCH   4  12
ATOM     12  C   UNL     1      -1.615  11.845  20.792  0.00  0.00    +0.000 C 
ATOM     13  C   UNL     1      -2.396  12.560  19.666  0.00  0.00    +0.000 C 
ATOM     14  C   UNL     1      -3.856  12.876  19.983  0.00  0.00    +0.000 C 
ATOM     15  O   UNL     1      -4.038  13.377  21.300  0.00  0.00    +0.000 OA
ATOM     16  C   UNL     1      -3.581  12.446  22.271  0.00  0.00    +0.000 C 
ATOM     17  C   UNL     1      -2.073  12.336  22.180  0.00  0.00    +0.000 C 
ENDBRANCH   4  12
BRANCH  10  18
ATOM     18  C   UNL     1       2.892   6.795  18.023  0.00  0.00    +0.000 C 
BRANCH  18  19
ATOM     19  C   UNL     1       2.060   5.528  17.878  0.00  0.00    +0.000 C 
BRANCH  19  20
ATOM     20  O   UNL     1       2.771   4.461  18.519  0.00  0.00    +0.000 OA
BRANCH  20  21
ATOM     21  C   UNL     1       2.036   3.237  18.642  0.00  0.00    +0.000 C 
ATOM     22  C   UNL     1       3.039   2.171  19.105  0.00  0.00    +0.000 C 
ATOM     23  C   UNL     1       3.594   2.491  20.497  0.00  0.00    +0.000 C 
ATOM     24  C   UNL     1       2.481   2.689  21.523  0.00  0.00    +0.000 C 
ATOM     25  C   UNL     1       1.429   3.691  21.056  0.00  0.00    +0.000 C 
ATOM     26  C   UNL     1       0.899   3.337  19.667  0.00  0.00    +0.000 C 
ENDBRANCH  20  21
ENDBRANCH  19  20
ENDBRANCH  18  19
ENDBRANCH  10  18
TORSDOF 5
ENDMDL
MODEL 8
REMARK VINA RESULT:      -6.5      8.122      9.315
REMARK  Name = 
REMARK  6 active torsions:
REMARK  status: ('A' for Active; 'I' for Inactive)
REMARK    1  A    between atoms: C_1  and  C_2
REMARK    2  A    between atoms: N_4  and  C_5
REMARK    3  A    between atoms: N_16  and  C_17
REMARK    4  A    between atoms: C_17  and  C_18
REMARK    5  A    between atoms: C_18  and  O_19
REMARK    6  A    between atoms: O_19  and  C_20
REMARK                            x       y       z     vdW  Elec       q    Type
REMARK                         _______ _______ _______ _____ _____    ______ ____
ROOT
ATOM      1  C   UNL     1       1.392   9.229  22.198  0.00  0.00    +0.000 C 
ATOM      2  C   UNL     1       0.539   8.821  20.990  0.00  0.00    +0.000 C 
ATOM      3  C   UNL     1      -0.837   9.550  20.983  0.00  0.00    +0.000 C 
ATOM      4  N   UNL     1      -0.916  10.848  20.279  0.00  0.00    +0.000 NA
ATOM      5  C   UNL     1      -0.392  10.637  18.920  0.00  0.00    +0.000 C 
ATOM      6  C   UNL     1       1.053  10.125  18.886  0.00  0.00    +0.000 C 
ATOM      7  N   UNL     1       1.266   8.923  19.707  0.00  0.00    +0.000 N 
ATOM      8  C   UNL     1       2.203   8.017  19.230  0.00  0.00    +0.000 C 
ATOM      9  O   UNL     1       2.812   8.168  18.177  0.00  0.00    +0.000 OA
ATOM     10  N   UNL     1       2.362   6.893  19.992  0.00  0.00    +0.000 N 
ATOM     11  H   UNL     1       2.335   7.019  20.994  0.00  0.00    +0.000 HD
ENDROOT
BRANCH   4  12
ATOM     12  C   UNL     1      -0.364  12.017  21.007  0.00  0.00    +0.000 C 
ATOM     13  C   UNL     1      -1.041  12.152  22.390  0.00  0.00    +0.000 C 
ATOM     14  C   UNL     1      -0.935  13.530  23.038  0.00  0.00    +0.000 C 
ATOM     15  O   UNL     1      -1.153  14.590  22.118  0.00  0.00    +0.000 OA
ATOM     16  C   UNL     1      -0.216  14.545  21.051  0.00  0.00    +0.000 C 
ATOM     17  C   UNL     1      -0.494  13.324  20.199  0.00  0.00    +0.000 C 
ENDBRANCH   4  12
BRANCH  10  18
ATOM     18  C   UNL     1       3.256   5.830  19.560  0.00  0.00    +0.000 C 
BRANCH  18  19
ATOM     19  C   UNL     1       2.646   4.980  18.454  0.00  0.00    +0.000 C 
BRANCH  19  20
ATOM     20  O   UNL     1       3.512   5.056  17.313  0.00  0.00    +0.000 OA
BRANCH  20  21
ATOM     21  C   UNL     1       4.870   5.401  17.611  0.00  0.00    +0.000 C 
ATOM     22  C   UNL     1       5.713   4.154  17.310  0.00  0.00    +0.000 C 
ATOM     23  C   UNL     1       5.667   3.793  15.822  0.00  0.00    +0.000 C 
ATOM     24  C   UNL     1       6.079   4.967  14.937  0.00  0.00    +0.000 C 
ATOM     25  C   UNL     1       5.308   6.243  15.265  0.00  0.00    +0.000 C 
ATOM     26  C   UNL     1       5.379   6.570  16.756  0.00  0.00    +0.000 C 
ENDBRANCH  20  21
ENDBRANCH  19  20
ENDBRANCH  18  19
ENDBRANCH  10  18
TORSDOF 5
ENDMDL
MODEL 9
REMARK VINA RESULT:      -6.5      0.891      1.271
REMARK  Name = 
REMARK  6 active torsions:
REMARK  status: ('A' for Active; 'I' for Inactive)
REMARK    1  A    between atoms: C_1  and  C_2
REMARK    2  A    between atoms: N_4  and  C_5
REMARK    3  A    between atoms: N_16  and  C_17
REMARK    4  A    between atoms: C_17  and  C_18
REMARK    5  A    between atoms: C_18  and  O_19
REMARK    6  A    between atoms: O_19  and  C_20
REMARK                            x       y       z     vdW  Elec       q    Type
REMARK                         _______ _______ _______ _____ _____    ______ ____
ROOT
ATOM      1  C   UNL     1       8.159  13.041  17.373  0.00  0.00    +0.000 C 
ATOM      2  C   UNL     1       9.568  12.503  17.652  0.00  0.00    +0.000 C 
ATOM      3  C   UNL     1      10.658  13.588  17.411  0.00  0.00    +0.000 C 
ATOM      4  N   UNL     1      11.034  14.442  18.558  0.00  0.00    +0.000 NA
ATOM      5  C   UNL     1      11.380  13.545  19.672  0.00  0.00    +0.000 C 
ATOM      6  C   UNL     1      10.243  12.604  20.086  0.00  0.00    +0.000 C 
ATOM      7  N   UNL     1       9.684  11.833  18.965  0.00  0.00    +0.000 N 
ATOM      8  C   UNL     1       9.240  10.553  19.267  0.00  0.00    +0.000 C 
ATOM      9  O   UNL     1       9.320  10.057  20.384  0.00  0.00    +0.000 OA
ATOM     10  N   UNL     1       8.755   9.843  18.203  0.00  0.00    +0.000 N 
ATOM     11  H   UNL     1       8.205  10.358  17.529  0.00  0.00    +0.000 HD
ENDROOT
BRANCH   4  12
ATOM     12  C   UNL     1      10.092  15.541  18.887  0.00  0.00    +0.000 C 
ATOM     13  C   UNL     1       9.957  16.503  17.684  0.00  0.00    +0.000 C 
ATOM     14  C   UNL     1       9.420  17.893  18.017  0.00  0.00    +0.000 C 
ATOM     15  O   UNL     1       9.987  18.433  19.203  0.00  0.00    +0.000 OA
ATOM     16  C   UNL     1       9.731  17.596  20.321  0.00  0.00    +0.000 C 
ATOM     17  C   UNL     1      10.506  16.304  20.160  0.00  0.00    +0.000 C 
ENDBRANCH   4  12
BRANCH  10  18
ATOM     18  C   UNL     1       8.331   8.462  18.372  0.00  0.00    +0.000 C 
BRANCH  18  19
ATOM     19  C   UNL     1       7.368   8.019  17.278  0.00  0.00    +0.000 C 
BRANCH  19  20
ATOM     20  O   UNL     1       6.678   6.852  17.747  0.00  0.00    +0.000 OA
BRANCH  20  21
ATOM     21  C   UNL     1       5.301   6.774  17.363  0.00  0.00    +0.000 C 
ATOM     22  C   UNL     1       5.285   6.484  15.856  0.00  0.00    +0.000 C 
ATOM     23  C   UNL     1       5.907   5.120  15.541  0.00  0.00    +0.000 C 
ATOM     24  C   UNL     1       5.242   3.994  16.330  0.00  0.00    +0.000 C 
ATOM     25  C   UNL     1       5.178   4.290  17.825  0.00  0.00    +0.000 C 
ATOM     26  C   UNL     1       4.550   5.656  18.098  0.00  0.00    +0.000 C 
ENDBRANCH  20  21
ENDBRANCH  19  20
ENDBRANCH  18  19
ENDBRANCH  10  18
TORSDOF 5
ENDMDL
