MODEL 1
REMARK VINA RESULT:      -8.6      0.000      0.000
REMARK  Name = 
REMARK  8 active torsions:
REMARK  status: ('A' for Active; 'I' for Inactive)
REMARK    1  A    between atoms: C_1  and  N_2
REMARK    2  A    between atoms: C_6  and  C_7
REMARK    3  A    between atoms: C_7  and  N_8
REMARK    4  A    between atoms: N_8  and  C_9
REMARK    5  A    between atoms: C_9  and  C_10
REMARK    6  A    between atoms: C_13  and  C_14
REMARK    7  A    between atoms: C_23  and  C_24
REMARK    8  A    between atoms: C_26  and  C_27
REMARK                            x       y       z     vdW  Elec       q    Type
REMARK                         _______ _______ _______ _____ _____    ______ ____
ROOT
ATOM      1  N   UNL     1       1.141  11.364  19.223  0.00  0.00    +0.000 N 
ATOM      2  C   UNL     1       1.524  10.195  18.582  0.00  0.00    +0.000 C 
ATOM      3  O   UNL     1       1.875  10.253  17.394  0.00  0.00    +0.000 OA
ATOM      4  N   UNL     1       1.569   8.956  19.204  0.00  0.00    +0.000 N 
ATOM      5  C   UNL     1       1.295   8.710  20.606  0.00  0.00    +0.000 C 
ATOM      6  C   UNL     1       1.259   7.286  21.112  0.00  0.00    +0.000 C 
ATOM      7  C   UNL     1       1.977   6.290  20.274  0.00  0.00    +0.000 C 
ATOM      8  C   UNL     1       2.397   6.558  19.032  0.00  0.00    +0.000 C 
ATOM      9  C   UNL     1       2.203   7.898  18.380  0.00  0.00    +0.000 C 
ENDROOT
BRANCH   8  10
ATOM     10  C   UNL     1       2.997   5.497  18.179  0.00  0.00    +0.000 A 
ATOM     11  C   UNL     1       2.177   4.398  17.870  0.00  0.00    +0.000 A 
ATOM     12  C   UNL     1       2.653   3.345  17.094  0.00  0.00    +0.000 A 
ATOM     13  C   UNL     1       3.955   3.377  16.606  0.00  0.00    +0.000 A 
ATOM     14  C   UNL     1       4.804   4.454  16.894  0.00  0.00    +0.000 A 
ATOM     15  C   UNL     1       6.113   4.460  16.385  0.00  0.00    +0.000 A 
ATOM     16  C   UNL     1       6.986   5.507  16.668  0.00  0.00    +0.000 A 
ATOM     17  C   UNL     1       6.562   6.557  17.473  0.00  0.00    +0.000 A 
ATOM     18  C   UNL     1       5.257   6.569  17.982  0.00  0.00    +0.000 A 
ATOM     19  C   UNL     1       4.341   5.528  17.701  0.00  0.00    +0.000 A 
ENDBRANCH   8  10
BRANCH   7  20
ATOM     20  C   UNL     1       2.101   4.928  20.936  0.00  0.00    +0.000 C 
ATOM     21  N   UNL     1       2.204   3.797  21.486  0.00  0.00    +0.000 NA
ENDBRANCH   7  20
BRANCH   1  22
ATOM     22  C   UNL     1       1.412  12.598  18.463  0.00  0.00    +0.000 C 
BRANCH  22  28
ATOM     23  C   UNL     1      -0.070  15.337  19.164  0.00  0.00    +0.000 C 
ATOM     24  N   UNL     1       1.218  14.885  19.637  0.00  0.00    +0.000 N 
ATOM     25  C   UNL     1       1.989  15.591  20.516  0.00  0.00    +0.000 A 
ATOM     26  N   UNL     1       3.048  14.919  20.892  0.00  0.00    +0.000 NA
ATOM     27  C   UNL     1       2.967  13.733  20.217  0.00  0.00    +0.000 A 
ATOM     28  C   UNL     1       1.865  13.692  19.380  0.00  0.00    +0.000 A 
ENDBRANCH  22  28
ENDBRANCH   1  22
BRANCH   1  29
ATOM     29  C   UNL     1       0.574  11.605  20.571  0.00  0.00    +0.000 C 
BRANCH  29  30
ATOM     30  C   UNL     1      -0.900  11.991  20.664  0.00  0.00    +0.000 A 
ATOM     31  C   UNL     1      -1.778  11.971  19.574  0.00  0.00    +0.000 A 
ATOM     32  C   UNL     1      -3.137  12.294  19.736  0.00  0.00    +0.000 A 
ATOM     33  C   UNL     1      -3.643  12.658  20.992  0.00  0.00    +0.000 A 
ATOM     34  C   UNL     1      -2.769  12.730  22.077  0.00  0.00    +0.000 A 
ATOM     35  C   UNL     1      -1.410  12.406  21.912  0.00  0.00    +0.000 A 
BRANCH  33  36
ATOM     36  C   UNL     1      -5.049  12.935  21.162  0.00  0.00    +0.000 C 
ATOM     37  N   UNL     1      -6.184  13.132  21.290  0.00  0.00    +0.000 NA
ENDBRANCH  33  36
ENDBRANCH  29  30
ENDBRANCH   1  29
TORSDOF 7
ENDMDL
MODEL 2
REMARK VINA RESULT:      -8.0      0.521      1.320
REMARK  Name = 
REMARK  8 active torsions:
REMARK  status: ('A' for Active; 'I' for Inactive)
REMARK    1  A    between atoms: C_1  and  N_2
REMARK    2  A    between atoms: C_6  and  C_7
REMARK    3  A    between atoms: C_7  and  N_8
REMARK    4  A    between atoms: N_8  and  C_9
REMARK    5  A    between atoms: C_9  and  C_10
REMARK    6  A    between atoms: C_13  and  C_14
REMARK    7  A    between atoms: C_23  and  C_24
REMARK    8  A    between atoms: C_26  and  C_27
REMARK                            x       y       z     vdW  Elec       q    Type
REMARK                         _______ _______ _______ _____ _____    ______ ____
ROOT
ATOM      1  N   UNL     1       1.399  11.528  19.018  0.00  0.00    +0.000 N 
ATOM      2  C   UNL     1       1.759  10.334  18.412  0.00  0.00    +0.000 C 
ATOM      3  O   UNL     1       2.178  10.357  17.245  0.00  0.00    +0.000 OA
ATOM      4  N   UNL     1       1.710   9.102  19.049  0.00  0.00    +0.000 N 
ATOM      5  C   UNL     1       1.346   8.889  20.436  0.00  0.00    +0.000 C 
ATOM      6  C   UNL     1       1.213   7.475  20.956  0.00  0.00    +0.000 C 
ATOM      7  C   UNL     1       1.926   6.434  20.169  0.00  0.00    +0.000 C 
ATOM      8  C   UNL     1       2.428   6.665  18.951  0.00  0.00    +0.000 C 
ATOM      9  C   UNL     1       2.335   8.004  18.274  0.00  0.00    +0.000 C 
ENDROOT
BRANCH   8  10
ATOM     10  C   UNL     1       3.021   5.564  18.144  0.00  0.00    +0.000 A 
ATOM     11  C   UNL     1       2.186   4.469  17.862  0.00  0.00    +0.000 A 
ATOM     12  C   UNL     1       2.655   3.381  17.131  0.00  0.00    +0.000 A 
ATOM     13  C   UNL     1       3.965   3.375  16.661  0.00  0.00    +0.000 A 
ATOM     14  C   UNL     1       4.828   4.446  16.923  0.00  0.00    +0.000 A 
ATOM     15  C   UNL     1       6.144   4.412  16.434  0.00  0.00    +0.000 A 
ATOM     16  C   UNL     1       7.031   5.454  16.694  0.00  0.00    +0.000 A 
ATOM     17  C   UNL     1       6.613   6.538  17.454  0.00  0.00    +0.000 A 
ATOM     18  C   UNL     1       5.302   6.591  17.944  0.00  0.00    +0.000 A 
ATOM     19  C   UNL     1       4.372   5.556  17.686  0.00  0.00    +0.000 A 
ENDBRANCH   8  10
BRANCH   7  20
ATOM     20  C   UNL     1       1.947   5.077  20.853  0.00  0.00    +0.000 C 
ATOM     21  N   UNL     1       1.964   3.951  21.420  0.00  0.00    +0.000 NA
ENDBRANCH   7  20
BRANCH   1  22
ATOM     22  C   UNL     1       1.773  12.737  18.260  0.00  0.00    +0.000 C 
BRANCH  22  28
ATOM     23  C   UNL     1       3.572  14.166  20.476  0.00  0.00    +0.000 C 
ATOM     24  N   UNL     1       2.252  14.546  20.034  0.00  0.00    +0.000 N 
ATOM     25  C   UNL     1       1.584  15.641  20.505  0.00  0.00    +0.000 A 
ATOM     26  N   UNL     1       0.463  15.848  19.862  0.00  0.00    +0.000 NA
ATOM     27  C   UNL     1       0.394  14.837  18.943  0.00  0.00    +0.000 A 
ATOM     28  C   UNL     1       1.467  13.970  19.053  0.00  0.00    +0.000 A 
ENDBRANCH  22  28
ENDBRANCH   1  22
BRANCH   1  29
ATOM     29  C   UNL     1       0.771  11.815  20.329  0.00  0.00    +0.000 C 
BRANCH  29  30
ATOM     30  C   UNL     1      -0.739  12.033  20.362  0.00  0.00    +0.000 A 
ATOM     31  C   UNL     1      -1.426  12.544  21.470  0.00  0.00    +0.000 A 
ATOM     32  C   UNL     1      -2.814  12.764  21.419  0.00  0.00    +0.000 A 
ATOM     33  C   UNL     1      -3.547  12.463  20.262  0.00  0.00    +0.000 A 
ATOM     34  C   UNL     1      -2.882  11.906  19.168  0.00  0.00    +0.000 A 
ATOM     35  C   UNL     1      -1.494  11.688  19.222  0.00  0.00    +0.000 A 
BRANCH  33  36
ATOM     36  C   UNL     1      -4.961  12.742  20.198  0.00  0.00    +0.000 C 
ATOM     37  N   UNL     1      -6.100  12.954  20.170  0.00  0.00    +0.000 NA
ENDBRANCH  33  36
ENDBRANCH  29  30
ENDBRANCH   1  29
TORSDOF 7
ENDMDL
MODEL 3
REMARK VINA RESULT:      -7.8      1.849      2.675
REMARK  Name = 
REMARK  8 active torsions:
REMARK  status: ('A' for Active; 'I' for Inactive)
REMARK    1  A    between atoms: C_1  and  N_2
REMARK    2  A    between atoms: C_6  and  C_7
REMARK    3  A    between atoms: C_7  and  N_8
REMARK    4  A    between atoms: N_8  and  C_9
REMARK    5  A    between atoms: C_9  and  C_10
REMARK    6  A    between atoms: C_13  and  C_14
REMARK    7  A    between atoms: C_23  and  C_24
REMARK    8  A    between atoms: C_26  and  C_27
REMARK                            x       y       z     vdW  Elec       q    Type
REMARK                         _______ _______ _______ _____ _____    ______ ____
ROOT
ATOM      1  N   UNL     1       1.068  10.262  18.526  0.00  0.00    +0.000 N 
ATOM      2  C   UNL     1       2.145   9.479  18.140  0.00  0.00    +0.000 C 
ATOM      3  O   UNL     1       3.013   9.974  17.405  0.00  0.00    +0.000 OA
ATOM      4  N   UNL     1       2.331   8.168  18.556  0.00  0.00    +0.000 N 
ATOM      5  C   UNL     1       1.482   7.456  19.491  0.00  0.00    +0.000 C 
ATOM      6  C   UNL     1       1.739   5.988  19.749  0.00  0.00    +0.000 C 
ATOM      7  C   UNL     1       3.108   5.509  19.420  0.00  0.00    +0.000 C 
ATOM      8  C   UNL     1       3.974   6.232  18.702  0.00  0.00    +0.000 C 
ATOM      9  C   UNL     1       3.652   7.606  18.182  0.00  0.00    +0.000 C 
ENDROOT
BRANCH   8  10
ATOM     10  C   UNL     1       5.286   5.667  18.285  0.00  0.00    +0.000 A 
ATOM     11  C   UNL     1       6.312   5.680  19.247  0.00  0.00    +0.000 A 
ATOM     12  C   UNL     1       7.580   5.190  18.947  0.00  0.00    +0.000 A 
ATOM     13  C   UNL     1       7.841   4.671  17.683  0.00  0.00    +0.000 A 
ATOM     14  C   UNL     1       6.846   4.643  16.697  0.00  0.00    +0.000 A 
ATOM     15  C   UNL     1       7.139   4.111  15.431  0.00  0.00    +0.000 A 
ATOM     16  C   UNL     1       6.175   4.085  14.425  0.00  0.00    +0.000 A 
ATOM     17  C   UNL     1       4.910   4.602  14.673  0.00  0.00    +0.000 A 
ATOM     18  C   UNL     1       4.600   5.130  15.932  0.00  0.00    +0.000 A 
ATOM     19  C   UNL     1       5.550   5.157  16.980  0.00  0.00    +0.000 A 
ENDBRANCH   8  10
BRANCH   7  20
ATOM     20  C   UNL     1       3.379   4.095  19.904  0.00  0.00    +0.000 C 
ATOM     21  N   UNL     1       3.605   2.920  20.306  0.00  0.00    +0.000 NA
ENDBRANCH   7  20
BRANCH   1  22
ATOM     22  C   UNL     1       1.198  11.692  18.188  0.00  0.00    +0.000 C 
BRANCH  22  28
ATOM     23  C   UNL     1       3.447  13.956  18.222  0.00  0.00    +0.000 C 
ATOM     24  N   UNL     1       2.726  13.415  19.349  0.00  0.00    +0.000 N 
ATOM     25  C   UNL     1       2.897  13.847  20.633  0.00  0.00    +0.000 A 
ATOM     26  N   UNL     1       2.042  13.296  21.456  0.00  0.00    +0.000 NA
ATOM     27  C   UNL     1       1.293  12.459  20.675  0.00  0.00    +0.000 A 
ATOM     28  C   UNL     1       1.724  12.463  19.360  0.00  0.00    +0.000 A 
ENDBRANCH  22  28
ENDBRANCH   1  22
BRANCH   1  29
ATOM     29  C   UNL     1      -0.162   9.937  19.286  0.00  0.00    +0.000 C 
BRANCH  29  30
ATOM     30  C   UNL     1      -1.490  10.458  18.746  0.00  0.00    +0.000 A 
ATOM     31  C   UNL     1      -2.103   9.968  17.586  0.00  0.00    +0.000 A 
ATOM     32  C   UNL     1      -3.352  10.460  17.167  0.00  0.00    +0.000 A 
ATOM     33  C   UNL     1      -4.007  11.465  17.892  0.00  0.00    +0.000 A 
ATOM     34  C   UNL     1      -3.385  11.998  19.022  0.00  0.00    +0.000 A 
ATOM     35  C   UNL     1      -2.136  11.504  19.439  0.00  0.00    +0.000 A 
BRANCH  33  36
ATOM     36  C   UNL     1      -5.312  11.927  17.487  0.00  0.00    +0.000 C 
ATOM     37  N   UNL     1      -6.358  12.321  17.175  0.00  0.00    +0.000 NA
ENDBRANCH  33  36
ENDBRANCH  29  30
ENDBRANCH   1  29
TORSDOF 7
ENDMDL
MODEL 4
REMARK VINA RESULT:      -7.7      2.472     10.268
REMARK  Name = 
REMARK  8 active torsions:
REMARK  status: ('A' for Active; 'I' for Inactive)
REMARK    1  A    between atoms: C_1  and  N_2
REMARK    2  A    between atoms: C_6  and  C_7
REMARK    3  A    between atoms: C_7  and  N_8
REMARK    4  A    between atoms: N_8  and  C_9
REMARK    5  A    between atoms: C_9  and  C_10
REMARK    6  A    between atoms: C_13  and  C_14
REMARK    7  A    between atoms: C_23  and  C_24
REMARK    8  A    between atoms: C_26  and  C_27
REMARK                            x       y       z     vdW  Elec       q    Type
REMARK                         _______ _______ _______ _____ _____    ______ ____
ROOT
ATOM      1  N   UNL     1       0.170  11.962  19.956  0.00  0.00    +0.000 N 
ATOM      2  C   UNL     1      -0.887  12.631  20.556  0.00  0.00    +0.000 C 
ATOM      3  O   UNL     1      -0.656  13.360  21.532  0.00  0.00    +0.000 OA
ATOM      4  N   UNL     1      -2.197  12.558  20.107  0.00  0.00    +0.000 N 
ATOM      5  C   UNL     1      -2.642  11.841  18.927  0.00  0.00    +0.000 C 
ATOM      6  C   UNL     1      -4.123  11.746  18.636  0.00  0.00    +0.000 C 
ATOM      7  C   UNL     1      -4.971  12.782  19.283  0.00  0.00    +0.000 C 
ATOM      8  C   UNL     1      -4.521  13.579  20.260  0.00  0.00    +0.000 C 
ATOM      9  C   UNL     1      -3.111  13.514  20.777  0.00  0.00    +0.000 C 
ENDROOT
BRANCH   8  10
ATOM     10  C   UNL     1      -5.436  14.514  20.969  0.00  0.00    +0.000 A 
ATOM     11  C   UNL     1      -5.509  15.825  20.466  0.00  0.00    +0.000 A 
ATOM     12  C   UNL     1      -6.321  16.779  21.072  0.00  0.00    +0.000 A 
ATOM     13  C   UNL     1      -7.082  16.436  22.185  0.00  0.00    +0.000 A 
ATOM     14  C   UNL     1      -7.034  15.140  22.717  0.00  0.00    +0.000 A 
ATOM     15  C   UNL     1      -7.815  14.823  23.840  0.00  0.00    +0.000 A 
ATOM     16  C   UNL     1      -7.775  13.549  24.402  0.00  0.00    +0.000 A 
ATOM     17  C   UNL     1      -6.946  12.581  23.851  0.00  0.00    +0.000 A 
ATOM     18  C   UNL     1      -6.167  12.879  22.726  0.00  0.00    +0.000 A 
ATOM     19  C   UNL     1      -6.195  14.159  22.123  0.00  0.00    +0.000 A 
ENDBRANCH   8  10
BRANCH   7  20
ATOM     20  C   UNL     1      -6.406  12.779  18.784  0.00  0.00    +0.000 C 
ATOM     21  N   UNL     1      -7.597  12.776  18.369  0.00  0.00    +0.000 NA
ENDBRANCH   7  20
BRANCH   1  22
ATOM     22  C   UNL     1       1.505  12.380  20.423  0.00  0.00    +0.000 C 
BRANCH  22  28
ATOM     23  C   UNL     1       2.042  15.435  21.178  0.00  0.00    +0.000 C 
ATOM     24  N   UNL     1       2.238  14.796  19.898  0.00  0.00    +0.000 N 
ATOM     25  C   UNL     1       2.735  15.440  18.800  0.00  0.00    +0.000 A 
ATOM     26  N   UNL     1       2.940  14.621  17.800  0.00  0.00    +0.000 NA
ATOM     27  C   UNL     1       2.545  13.396  18.263  0.00  0.00    +0.000 A 
ATOM     28  C   UNL     1       2.049  13.471  19.553  0.00  0.00    +0.000 A 
ENDBRANCH  22  28
ENDBRANCH   1  22
BRANCH   1  29
ATOM     29  C   UNL     1       0.206  10.953  18.871  0.00  0.00    +0.000 C 
BRANCH  29  30
ATOM     30  C   UNL     1       0.967   9.656  19.132  0.00  0.00    +0.000 A 
ATOM     31  C   UNL     1       0.985   9.001  20.370  0.00  0.00    +0.000 A 
ATOM     32  C   UNL     1       1.669   7.783  20.532  0.00  0.00    +0.000 A 
ATOM     33  C   UNL     1       2.362   7.202  19.462  0.00  0.00    +0.000 A 
ATOM     34  C   UNL     1       2.394   7.868  18.236  0.00  0.00    +0.000 A 
ATOM     35  C   UNL     1       1.709   9.086  18.077  0.00  0.00    +0.000 A 
BRANCH  33  36
ATOM     36  C   UNL     1       3.016   5.926  19.621  0.00  0.00    +0.000 C 
ATOM     37  N   UNL     1       3.538   4.895  19.722  0.00  0.00    +0.000 NA
ENDBRANCH  33  36
ENDBRANCH  29  30
ENDBRANCH   1  29
TORSDOF 7
ENDMDL
MODEL 5
REMARK VINA RESULT:      -7.4      2.498     10.061
REMARK  Name = 
REMARK  8 active torsions:
REMARK  status: ('A' for Active; 'I' for Inactive)
REMARK    1  A    between atoms: C_1  and  N_2
REMARK    2  A    between atoms: C_6  and  C_7
REMARK    3  A    between atoms: C_7  and  N_8
REMARK    4  A    between atoms: N_8  and  C_9
REMARK    5  A    between atoms: C_9  and  C_10
REMARK    6  A    between atoms: C_13  and  C_14
REMARK    7  A    between atoms: C_23  and  C_24
REMARK    8  A    between atoms: C_26  and  C_27
REMARK                            x       y       z     vdW  Elec       q    Type
REMARK                         _______ _______ _______ _____ _____    ______ ____
ROOT
ATOM      1  N   UNL     1       0.437  12.411  19.932  0.00  0.00    +0.000 N 
ATOM      2  C   UNL     1      -0.720  12.774  20.605  0.00  0.00    +0.000 C 
ATOM      3  O   UNL     1      -0.622  13.410  21.664  0.00  0.00    +0.000 OA
ATOM      4  N   UNL     1      -1.998  12.493  20.142  0.00  0.00    +0.000 N 
ATOM      5  C   UNL     1      -2.312  11.852  18.881  0.00  0.00    +0.000 C 
ATOM      6  C   UNL     1      -3.749  11.496  18.572  0.00  0.00    +0.000 C 
ATOM      7  C   UNL     1      -4.775  12.253  19.337  0.00  0.00    +0.000 C 
ATOM      8  C   UNL     1      -4.477  12.998  20.407  0.00  0.00    +0.000 C 
ATOM      9  C   UNL     1      -3.072  13.157  20.920  0.00  0.00    +0.000 C 
ENDROOT
BRANCH   8  10
ATOM     10  C   UNL     1      -5.546  13.636  21.221  0.00  0.00    +0.000 A 
ATOM     11  C   UNL     1      -6.017  12.906  22.326  0.00  0.00    +0.000 A 
ATOM     12  C   UNL     1      -7.030  13.409  23.138  0.00  0.00    +0.000 A 
ATOM     13  C   UNL     1      -7.582  14.657  22.864  0.00  0.00    +0.000 A 
ATOM     14  C   UNL     1      -7.140  15.414  21.771  0.00  0.00    +0.000 A 
ATOM     15  C   UNL     1      -7.715  16.670  21.520  0.00  0.00    +0.000 A 
ATOM     16  C   UNL     1      -7.311  17.438  20.431  0.00  0.00    +0.000 A 
ATOM     17  C   UNL     1      -6.332  16.953  19.574  0.00  0.00    +0.000 A 
ATOM     18  C   UNL     1      -5.743  15.704  19.814  0.00  0.00    +0.000 A 
ATOM     19  C   UNL     1      -6.121  14.906  20.919  0.00  0.00    +0.000 A 
ENDBRANCH   8  10
BRANCH   7  20
ATOM     20  C   UNL     1      -6.190  12.020  18.833  0.00  0.00    +0.000 C 
ATOM     21  N   UNL     1      -7.364  11.827  18.414  0.00  0.00    +0.000 NA
ENDBRANCH   7  20
BRANCH   1  22
ATOM     22  C   UNL     1       1.669  13.029  20.456  0.00  0.00    +0.000 C 
BRANCH  22  28
ATOM     23  C   UNL     1       0.823  16.080  20.047  0.00  0.00    +0.000 C 
ATOM     24  N   UNL     1       1.804  15.330  19.298  0.00  0.00    +0.000 N 
ATOM     25  C   UNL     1       2.557  15.865  18.292  0.00  0.00    +0.000 A 
ATOM     26  N   UNL     1       3.462  15.026  17.855  0.00  0.00    +0.000 NA
ATOM     27  C   UNL     1       3.278  13.893  18.599  0.00  0.00    +0.000 A 
ATOM     28  C   UNL     1       2.216  14.022  19.477  0.00  0.00    +0.000 A 
ENDBRANCH  22  28
ENDBRANCH   1  22
BRANCH   1  29
ATOM     29  C   UNL     1       0.654  11.569  18.732  0.00  0.00    +0.000 C 
BRANCH  29  30
ATOM     30  C   UNL     1       1.213  10.165  18.939  0.00  0.00    +0.000 A 
ATOM     31  C   UNL     1       1.063   9.437  20.127  0.00  0.00    +0.000 A 
ATOM     32  C   UNL     1       1.563   8.127  20.238  0.00  0.00    +0.000 A 
ATOM     33  C   UNL     1       2.236   7.523  19.167  0.00  0.00    +0.000 A 
ATOM     34  C   UNL     1       2.436   8.255  17.995  0.00  0.00    +0.000 A 
ATOM     35  C   UNL     1       1.935   9.564  17.887  0.00  0.00    +0.000 A 
BRANCH  33  36
ATOM     36  C   UNL     1       2.698   6.160  19.269  0.00  0.00    +0.000 C 
ATOM     37  N   UNL     1       3.091   5.073  19.363  0.00  0.00    +0.000 NA
ENDBRANCH  33  36
ENDBRANCH  29  30
ENDBRANCH   1  29
TORSDOF 7
ENDMDL
MODEL 6
REMARK VINA RESULT:      -7.3      2.257      4.969
REMARK  Name = 
REMARK  8 active torsions:
REMARK  status: ('A' for Active; 'I' for Inactive)
REMARK    1  A    between atoms: C_1  and  N_2
REMARK    2  A    between atoms: C_6  and  C_7
REMARK    3  A    between atoms: C_7  and  N_8
REMARK    4  A    between atoms: N_8  and  C_9
REMARK    5  A    between atoms: C_9  and  C_10
REMARK    6  A    between atoms: C_13  and  C_14
REMARK    7  A    between atoms: C_23  and  C_24
REMARK    8  A    between atoms: C_26  and  C_27
REMARK                            x       y       z     vdW  Elec       q    Type
REMARK                         _______ _______ _______ _____ _____    ______ ____
ROOT
ATOM      1  N   UNL     1      -0.129  10.438  20.373  0.00  0.00    +0.000 N 
ATOM      2  C   UNL     1       0.628   9.282  20.487  0.00  0.00    +0.000 C 
ATOM      3  O   UNL     1       0.472   8.560  21.483  0.00  0.00    +0.000 OA
ATOM      4  N   UNL     1       1.536   8.860  19.526  0.00  0.00    +0.000 N 
ATOM      5  C   UNL     1       1.779   9.514  18.256  0.00  0.00    +0.000 C 
ATOM      6  C   UNL     1       2.893   9.009  17.367  0.00  0.00    +0.000 C 
ATOM      7  C   UNL     1       3.329   7.610  17.617  0.00  0.00    +0.000 C 
ATOM      8  C   UNL     1       2.968   6.924  18.708  0.00  0.00    +0.000 C 
ATOM      9  C   UNL     1       2.071   7.498  19.769  0.00  0.00    +0.000 C 
ENDROOT
BRANCH   8  10
ATOM     10  C   UNL     1       3.528   5.574  18.985  0.00  0.00    +0.000 A 
ATOM     11  C   UNL     1       4.895   5.512  19.305  0.00  0.00    +0.000 A 
ATOM     12  C   UNL     1       5.515   4.292  19.562  0.00  0.00    +0.000 A 
ATOM     13  C   UNL     1       4.776   3.115  19.513  0.00  0.00    +0.000 A 
ATOM     14  C   UNL     1       3.412   3.135  19.195  0.00  0.00    +0.000 A 
ATOM     15  C   UNL     1       2.692   1.930  19.155  0.00  0.00    +0.000 A 
ATOM     16  C   UNL     1       1.339   1.916  18.825  0.00  0.00    +0.000 A 
ATOM     17  C   UNL     1       0.693   3.108  18.522  0.00  0.00    +0.000 A 
ATOM     18  C   UNL     1       1.396   4.319  18.564  0.00  0.00    +0.000 A 
ATOM     19  C   UNL     1       2.767   4.370  18.910  0.00  0.00    +0.000 A 
ENDBRANCH   8  10
BRANCH   7  20
ATOM     20  C   UNL     1       4.285   7.083  16.561  0.00  0.00    +0.000 C 
ATOM     21  N   UNL     1       5.079   6.645  15.683  0.00  0.00    +0.000 NA
ENDBRANCH   7  20
BRANCH   1  22
ATOM     22  C   UNL     1      -1.212  10.562  21.367  0.00  0.00    +0.000 C 
BRANCH  22  28
ATOM     23  C   UNL     1      -3.410  12.583  20.239  0.00  0.00    +0.000 C 
ATOM     24  N   UNL     1      -2.368  12.861  21.199  0.00  0.00    +0.000 N 
ATOM     25  C   UNL     1      -2.202  14.075  21.804  0.00  0.00    +0.000 A 
ATOM     26  N   UNL     1      -1.274  14.042  22.726  0.00  0.00    +0.000 NA
ATOM     27  C   UNL     1      -0.808  12.757  22.709  0.00  0.00    +0.000 A 
ATOM     28  C   UNL     1      -1.428  11.999  21.732  0.00  0.00    +0.000 A 
ENDBRANCH  22  28
ENDBRANCH   1  22
BRANCH   1  29
ATOM     29  C   UNL     1      -0.096  11.542  19.384  0.00  0.00    +0.000 C 
BRANCH  29  30
ATOM     30  C   UNL     1       1.086  12.506  19.434  0.00  0.00    +0.000 A 
ATOM     31  C   UNL     1       1.802  12.797  20.602  0.00  0.00    +0.000 A 
ATOM     32  C   UNL     1       2.912  13.660  20.571  0.00  0.00    +0.000 A 
ATOM     33  C   UNL     1       3.320  14.262  19.373  0.00  0.00    +0.000 A 
ATOM     34  C   UNL     1       2.585  14.020  18.211  0.00  0.00    +0.000 A 
ATOM     35  C   UNL     1       1.476  13.156  18.245  0.00  0.00    +0.000 A 
BRANCH  33  36
ATOM     36  C   UNL     1       4.491  15.103  19.338  0.00  0.00    +0.000 C 
ATOM     37  N   UNL     1       5.448  15.758  19.317  0.00  0.00    +0.000 NA
ENDBRANCH  33  36
ENDBRANCH  29  30
ENDBRANCH   1  29
TORSDOF 7
ENDMDL
MODEL 7
REMARK VINA RESULT:      -7.3      0.952      2.234
REMARK  Name = 
REMARK  8 active torsions:
REMARK  status: ('A' for Active; 'I' for Inactive)
REMARK    1  A    between atoms: C_1  and  N_2
REMARK    2  A    between atoms: C_6  and  C_7
REMARK    3  A    between atoms: C_7  and  N_8
REMARK    4  A    between atoms: N_8  and  C_9
REMARK    5  A    between atoms: C_9  and  C_10
REMARK    6  A    between atoms: C_13  and  C_14
REMARK    7  A    between atoms: C_23  and  C_24
REMARK    8  A    between atoms: C_26  and  C_27
REMARK                            x       y       z     vdW  Elec       q    Type
REMARK                         _______ _______ _______ _____ _____    ______ ____
ROOT
ATOM      1  N   UNL     1       0.583  11.657  19.042  0.00  0.00    +0.000 N 
ATOM      2  C   UNL     1       1.262  10.568  18.516  0.00  0.00    +0.000 C 
ATOM      3  O   UNL     1       1.840  10.692  17.427  0.00  0.00    +0.000 OA
ATOM      4  N   UNL     1       1.361   9.341  19.157  0.00  0.00    +0.000 N 
ATOM      5  C   UNL     1       0.839   9.038  20.475  0.00  0.00    +0.000 C 
ATOM      6  C   UNL     1       0.912   7.618  20.989  0.00  0.00    +0.000 C 
ATOM      7  C   UNL     1       1.929   6.752  20.337  0.00  0.00    +0.000 C 
ATOM      8  C   UNL     1       2.555   7.096  19.206  0.00  0.00    +0.000 C 
ATOM      9  C   UNL     1       2.303   8.401  18.503  0.00  0.00    +0.000 C 
ENDROOT
BRANCH   8  10
ATOM     10  C   UNL     1       3.471   6.148  18.516  0.00  0.00    +0.000 A 
ATOM     11  C   UNL     1       4.752   6.631  18.194  0.00  0.00    +0.000 A 
ATOM     12  C   UNL     1       5.674   5.826  17.532  0.00  0.00    +0.000 A 
ATOM     13  C   UNL     1       5.335   4.522  17.188  0.00  0.00    +0.000 A 
ATOM     14  C   UNL     1       4.068   4.005  17.490  0.00  0.00    +0.000 A 
ATOM     15  C   UNL     1       3.755   2.683  17.132  0.00  0.00    +0.000 A 
ATOM     16  C   UNL     1       2.499   2.147  17.402  0.00  0.00    +0.000 A 
ATOM     17  C   UNL     1       1.537   2.932  18.025  0.00  0.00    +0.000 A 
ATOM     18  C   UNL     1       1.835   4.249  18.395  0.00  0.00    +0.000 A 
ATOM     19  C   UNL     1       3.106   4.819  18.148  0.00  0.00    +0.000 A 
ENDBRANCH   8  10
BRANCH   7  20
ATOM     20  C   UNL     1       2.114   5.415  21.036  0.00  0.00    +0.000 C 
ATOM     21  N   UNL     1       2.268   4.306  21.616  0.00  0.00    +0.000 NA
ENDBRANCH   7  20
BRANCH   1  22
ATOM     22  C   UNL     1       0.821  12.928  18.332  0.00  0.00    +0.000 C 
BRANCH  22  28
ATOM     23  C   UNL     1      -0.175  15.496  19.946  0.00  0.00    +0.000 C 
ATOM     24  N   UNL     1       1.173  14.989  19.841  0.00  0.00    +0.000 N 
ATOM     25  C   UNL     1       2.243  15.551  20.478  0.00  0.00    +0.000 A 
ATOM     26  N   UNL     1       3.332  14.840  20.333  0.00  0.00    +0.000 NA
ATOM     27  C   UNL     1       2.956  13.779  19.556  0.00  0.00    +0.000 A 
ATOM     28  C   UNL     1       1.626  13.862  19.182  0.00  0.00    +0.000 A 
ENDBRANCH  22  28
ENDBRANCH   1  22
BRANCH   1  29
ATOM     29  C   UNL     1      -0.282  11.793  20.238  0.00  0.00    +0.000 C 
BRANCH  29  30
ATOM     30  C   UNL     1      -1.777  12.001  20.014  0.00  0.00    +0.000 A 
ATOM     31  C   UNL     1      -2.604  12.707  20.896  0.00  0.00    +0.000 A 
ATOM     32  C   UNL     1      -3.966  12.903  20.608  0.00  0.00    +0.000 A 
ATOM     33  C   UNL     1      -4.533  12.383  19.436  0.00  0.00    +0.000 A 
ATOM     34  C   UNL     1      -3.732  11.635  18.572  0.00  0.00    +0.000 A 
ATOM     35  C   UNL     1      -2.370  11.441  18.863  0.00  0.00    +0.000 A 
BRANCH  33  36
ATOM     36  C   UNL     1      -5.918  12.634  19.120  0.00  0.00    +0.000 C 
ATOM     37  N   UNL     1      -7.030  12.819  18.846  0.00  0.00    +0.000 NA
ENDBRANCH  33  36
ENDBRANCH  29  30
ENDBRANCH   1  29
TORSDOF 7
ENDMDL
MODEL 8
REMARK VINA RESULT:      -7.3      2.794      4.439
REMARK  Name = 
REMARK  8 active torsions:
REMARK  status: ('A' for Active; 'I' for Inactive)
REMARK    1  A    between atoms: C_1  and  N_2
REMARK    2  A    between atoms: C_6  and  C_7
REMARK    3  A    between atoms: C_7  and  N_8
REMARK    4  A    between atoms: N_8  and  C_9
REMARK    5  A    between atoms: C_9  and  C_10
REMARK    6  A    between atoms: C_13  and  C_14
REMARK    7  A    between atoms: C_23  and  C_24
REMARK    8  A    between atoms: C_26  and  C_27
REMARK                            x       y       z     vdW  Elec       q    Type
REMARK                         _______ _______ _______ _____ _____    ______ ____
ROOT
ATOM      1  N   UNL     1      -0.206  10.294  20.672  0.00  0.00    +0.000 N 
ATOM      2  C   UNL     1       0.613   9.177  20.737  0.00  0.00    +0.000 C 
ATOM      3  O   UNL     1       0.561   8.455  21.744  0.00  0.00    +0.000 OA
ATOM      4  N   UNL     1       1.475   8.795  19.720  0.00  0.00    +0.000 N 
ATOM      5  C   UNL     1       1.599   9.453  18.434  0.00  0.00    +0.000 C 
ATOM      6  C   UNL     1       2.675   8.999  17.473  0.00  0.00    +0.000 C 
ATOM      7  C   UNL     1       3.196   7.624  17.698  0.00  0.00    +0.000 C 
ATOM      8  C   UNL     1       2.944   6.928  18.812  0.00  0.00    +0.000 C 
ATOM      9  C   UNL     1       2.092   7.463  19.929  0.00  0.00    +0.000 C 
ENDROOT
BRANCH   8  10
ATOM     10  C   UNL     1       3.588   5.609  19.055  0.00  0.00    +0.000 A 
ATOM     11  C   UNL     1       4.967   5.621  19.328  0.00  0.00    +0.000 A 
ATOM     12  C   UNL     1       5.663   4.437  19.550  0.00  0.00    +0.000 A 
ATOM     13  C   UNL     1       4.990   3.220  19.512  0.00  0.00    +0.000 A 
ATOM     14  C   UNL     1       3.617   3.166  19.241  0.00  0.00    +0.000 A 
ATOM     15  C   UNL     1       2.964   1.923  19.211  0.00  0.00    +0.000 A 
ATOM     16  C   UNL     1       1.603   1.835  18.927  0.00  0.00    +0.000 A 
ATOM     17  C   UNL     1       0.882   2.991  18.660  0.00  0.00    +0.000 A 
ATOM     18  C   UNL     1       1.516   4.240  18.692  0.00  0.00    +0.000 A 
ATOM     19  C   UNL     1       2.894   4.364  18.992  0.00  0.00    +0.000 A 
ENDBRANCH   8  10
BRANCH   7  20
ATOM     20  C   UNL     1       4.105   7.139  16.581  0.00  0.00    +0.000 C 
ATOM     21  N   UNL     1       4.858   6.735  15.653  0.00  0.00    +0.000 NA
ENDBRANCH   7  20
BRANCH   1  22
ATOM     22  C   UNL     1      -1.225  10.370  21.736  0.00  0.00    +0.000 C 
BRANCH  22  28
ATOM     23  C   UNL     1      -3.663  12.242  20.876  0.00  0.00    +0.000 C 
ATOM     24  N   UNL     1      -2.530  12.593  21.699  0.00  0.00    +0.000 N 
ATOM     25  C   UNL     1      -2.365  13.823  22.272  0.00  0.00    +0.000 A 
ATOM     26  N   UNL     1      -1.331  13.857  23.073  0.00  0.00    +0.000 NA
ATOM     27  C   UNL     1      -0.794  12.602  23.006  0.00  0.00    +0.000 A 
ATOM     28  C   UNL     1      -1.482  11.795  22.117  0.00  0.00    +0.000 A 
ENDBRANCH  22  28
ENDBRANCH   1  22
BRANCH   1  29
ATOM     29  C   UNL     1      -0.295  11.392  19.680  0.00  0.00    +0.000 C 
BRANCH  29  30
ATOM     30  C   UNL     1      -1.165  11.167  18.447  0.00  0.00    +0.000 A 
ATOM     31  C   UNL     1      -1.420  12.154  17.486  0.00  0.00    +0.000 A 
ATOM     32  C   UNL     1      -2.193  11.869  16.347  0.00  0.00    +0.000 A 
ATOM     33  C   UNL     1      -2.741  10.593  16.153  0.00  0.00    +0.000 A 
ATOM     34  C   UNL     1      -2.537   9.615  17.127  0.00  0.00    +0.000 A 
ATOM     35  C   UNL     1      -1.763   9.903  18.265  0.00  0.00    +0.000 A 
BRANCH  33  36
ATOM     36  C   UNL     1      -3.488  10.293  14.955  0.00  0.00    +0.000 C 
ATOM     37  N   UNL     1      -4.107  10.068  14.000  0.00  0.00    +0.000 NA
ENDBRANCH  33  36
ENDBRANCH  29  30
ENDBRANCH   1  29
TORSDOF 7
ENDMDL
MODEL 9
REMARK VINA RESULT:      -7.2      2.490     10.071
REMARK  Name = 
REMARK  8 active torsions:
REMARK  status: ('A' for Active; 'I' for Inactive)
REMARK    1  A    between atoms: C_1  and  N_2
REMARK    2  A    between atoms: C_6  and  C_7
REMARK    3  A    between atoms: C_7  and  N_8
REMARK    4  A    between atoms: N_8  and  C_9
REMARK    5  A    between atoms: C_9  and  C_10
REMARK    6  A    between atoms: C_13  and  C_14
REMARK    7  A    between atoms: C_23  and  C_24
REMARK    8  A    between atoms: C_26  and  C_27
REMARK                            x       y       z     vdW  Elec       q    Type
REMARK                         _______ _______ _______ _____ _____    ______ ____
ROOT
ATOM      1  N   UNL     1       0.388  12.156  19.967  0.00  0.00    +0.000 N 
ATOM      2  C   UNL     1      -0.758  12.551  20.640  0.00  0.00    +0.000 C 
ATOM      3  O   UNL     1      -0.642  13.135  21.727  0.00  0.00    +0.000 OA
ATOM      4  N   UNL     1      -2.042  12.360  20.150  0.00  0.00    +0.000 N 
ATOM      5  C   UNL     1      -2.371  11.791  18.858  0.00  0.00    +0.000 C 
ATOM      6  C   UNL     1      -3.820  11.527  18.515  0.00  0.00    +0.000 C 
ATOM      7  C   UNL     1      -4.816  12.304  19.300  0.00  0.00    +0.000 C 
ATOM      8  C   UNL     1      -4.494  12.985  20.405  0.00  0.00    +0.000 C 
ATOM      9  C   UNL     1      -3.091  13.046  20.942  0.00  0.00    +0.000 C 
ENDROOT
BRANCH   8  10
ATOM     10  C   UNL     1      -5.540  13.644  21.233  0.00  0.00    +0.000 A 
ATOM     11  C   UNL     1      -6.052  12.901  22.311  0.00  0.00    +0.000 A 
ATOM     12  C   UNL     1      -7.047  13.423  23.132  0.00  0.00    +0.000 A 
ATOM     13  C   UNL     1      -7.540  14.702  22.895  0.00  0.00    +0.000 A 
ATOM     14  C   UNL     1      -7.057  15.473  21.830  0.00  0.00    +0.000 A 
ATOM     15  C   UNL     1      -7.573  16.762  21.617  0.00  0.00    +0.000 A 
ATOM     16  C   UNL     1      -7.126  17.545  20.556  0.00  0.00    +0.000 A 
ATOM     17  C   UNL     1      -6.164  17.044  19.690  0.00  0.00    +0.000 A 
ATOM     18  C   UNL     1      -5.633  15.764  19.893  0.00  0.00    +0.000 A 
ATOM     19  C   UNL     1      -6.055  14.948  20.969  0.00  0.00    +0.000 A 
ENDBRANCH   8  10
BRANCH   7  20
ATOM     20  C   UNL     1      -6.233  12.170  18.768  0.00  0.00    +0.000 C 
ATOM     21  N   UNL     1      -7.409  12.058  18.327  0.00  0.00    +0.000 NA
ENDBRANCH   7  20
BRANCH   1  22
ATOM     22  C   UNL     1       1.644  12.684  20.532  0.00  0.00    +0.000 C 
BRANCH  22  28
ATOM     23  C   UNL     1       2.252  15.452  22.002  0.00  0.00    +0.000 C 
ATOM     24  N   UNL     1       2.204  15.200  20.581  0.00  0.00    +0.000 N 
ATOM     25  C   UNL     1       2.460  16.154  19.636  0.00  0.00    +0.000 A 
ATOM     26  N   UNL     1       2.480  15.655  18.426  0.00  0.00    +0.000 NA
ATOM     27  C   UNL     1       2.213  14.324  18.591  0.00  0.00    +0.000 A 
ATOM     28  C   UNL     1       1.981  14.008  19.919  0.00  0.00    +0.000 A 
ENDBRANCH  22  28
ENDBRANCH   1  22
BRANCH   1  29
ATOM     29  C   UNL     1       0.578  11.356  18.733  0.00  0.00    +0.000 C 
BRANCH  29  30
ATOM     30  C   UNL     1       1.176   9.960  18.876  0.00  0.00    +0.000 A 
ATOM     31  C   UNL     1       1.867   9.302  17.851  0.00  0.00    +0.000 A 
ATOM     32  C   UNL     1       2.434   8.032  18.062  0.00  0.00    +0.000 A 
ATOM     33  C   UNL     1       2.309   7.388  19.300  0.00  0.00    +0.000 A 
ATOM     34  C   UNL     1       1.580   8.010  20.315  0.00  0.00    +0.000 A 
ATOM     35  C   UNL     1       1.014   9.279  20.101  0.00  0.00    +0.000 A 
BRANCH  33  36
ATOM     36  C   UNL     1       2.940   6.110  19.527  0.00  0.00    +0.000 C 
ATOM     37  N   UNL     1       3.458   5.093  19.732  0.00  0.00    +0.000 NA
ENDBRANCH  33  36
ENDBRANCH  29  30
ENDBRANCH   1  29
TORSDOF 7
ENDMDL
