MODEL 1
REMARK VINA RESULT:      -8.5      0.000      0.000
REMARK  Name = 
REMARK  6 active torsions:
REMARK  status: ('A' for Active; 'I' for Inactive)
REMARK    1  A    between atoms: C_1  and  C_2
REMARK    2  A    between atoms: N_8  and  C_9
REMARK    3  A    between atoms: C_11  and  C_12
REMARK    4  A    between atoms: C_16  and  N_17
REMARK    5  A    between atoms: N_17  and  S_18
REMARK    6  A    between atoms: S_18  and  C_19
REMARK                            x       y       z     vdW  Elec       q    Type
REMARK                         _______ _______ _______ _____ _____    ______ ____
ROOT
ATOM      1  C   UNL     1       0.482   2.446  18.839  0.00  0.00    +0.000 C 
ATOM      2  C   UNL     1       1.747   3.067  18.324  0.00  0.00    +0.000 A 
ATOM      3  C   UNL     1       2.783   2.284  17.808  0.00  0.00    +0.000 A 
ATOM      4  C   UNL     1       3.938   2.890  17.315  0.00  0.00    +0.000 A 
ATOM      5  C   UNL     1       4.087   4.282  17.384  0.00  0.00    +0.000 A 
ATOM      6  C   UNL     1       5.340   4.912  16.892  0.00  0.00    +0.000 A 
ATOM      7  O   UNL     1       6.184   4.222  16.326  0.00  0.00    +0.000 OA
ATOM      8  N   UNL     1       5.478   6.281  17.130  0.00  0.00    +0.000 N 
ATOM      9  C   UNL     1       6.729   6.935  16.772  0.00  0.00    +0.000 C 
ATOM     10  C   UNL     1       4.491   7.037  17.735  0.00  0.00    +0.000 A 
ATOM     11  C   UNL     1       3.305   6.534  18.126  0.00  0.00    +0.000 A 
ATOM     12  C   UNL     1       3.082   5.082  17.938  0.00  0.00    +0.000 A 
ATOM     13  C   UNL     1       1.895   4.462  18.364  0.00  0.00    +0.000 A 
ENDROOT
BRANCH  11  14
ATOM     14  C   UNL     1       2.411   7.443  18.877  0.00  0.00    +0.000 A 
ATOM     15  C   UNL     1       2.052   7.202  20.205  0.00  0.00    +0.000 A 
ATOM     16  C   UNL     1       1.252   8.123  20.882  0.00  0.00    +0.000 A 
ATOM     17  C   UNL     1       0.817   9.287  20.238  0.00  0.00    +0.000 A 
ATOM     18  C   UNL     1       1.183   9.546  18.918  0.00  0.00    +0.000 A 
ATOM     19  C   UNL     1       1.955   8.609  18.232  0.00  0.00    +0.000 A 
BRANCH  18  20
ATOM     20  N   UNL     1       0.776  10.784  18.340  0.00  0.00    +0.000 N 
ATOM     21  H   UNL     1       0.477  10.807  17.363  0.00  0.00    +0.000 HD
BRANCH  20  22
ATOM     22  S   UNL     1       1.447  12.245  18.832  0.00  0.00    +0.000 S 
ATOM     23  C   UNL     1       0.165  13.408  18.385  0.00  0.00    +0.000 C 
ATOM     24  O   UNL     1       1.643  12.268  20.257  0.00  0.00    +0.000 OA
ATOM     25  O   UNL     1       2.558  12.479  17.917  0.00  0.00    +0.000 OA
ENDBRANCH  20  22
ENDBRANCH  18  20
ENDBRANCH  11  14
TORSDOF 3
ENDMDL
MODEL 2
REMARK VINA RESULT:      -8.4      1.371      1.371
REMARK  Name = 
REMARK  6 active torsions:
REMARK  status: ('A' for Active; 'I' for Inactive)
REMARK    1  A    between atoms: C_1  and  C_2
REMARK    2  A    between atoms: N_8  and  C_9
REMARK    3  A    between atoms: C_11  and  C_12
REMARK    4  A    between atoms: C_16  and  N_17
REMARK    5  A    between atoms: N_17  and  S_18
REMARK    6  A    between atoms: S_18  and  C_19
REMARK                            x       y       z     vdW  Elec       q    Type
REMARK                         _______ _______ _______ _____ _____    ______ ____
ROOT
ATOM      1  C   UNL     1       0.431   2.485  18.922  0.00  0.00    +0.000 C 
ATOM      2  C   UNL     1       1.680   3.101  18.362  0.00  0.00    +0.000 A 
ATOM      3  C   UNL     1       2.700   2.314  17.821  0.00  0.00    +0.000 A 
ATOM      4  C   UNL     1       3.839   2.916  17.288  0.00  0.00    +0.000 A 
ATOM      5  C   UNL     1       3.989   4.308  17.338  0.00  0.00    +0.000 A 
ATOM      6  C   UNL     1       5.226   4.934  16.801  0.00  0.00    +0.000 A 
ATOM      7  O   UNL     1       6.053   4.238  16.217  0.00  0.00    +0.000 OA
ATOM      8  N   UNL     1       5.370   6.304  17.021  0.00  0.00    +0.000 N 
ATOM      9  C   UNL     1       6.609   6.956  16.619  0.00  0.00    +0.000 C 
ATOM     10  C   UNL     1       4.401   7.067  17.649  0.00  0.00    +0.000 A 
ATOM     11  C   UNL     1       3.228   6.567  18.081  0.00  0.00    +0.000 A 
ATOM     12  C   UNL     1       3.001   5.113  17.915  0.00  0.00    +0.000 A 
ATOM     13  C   UNL     1       1.829   4.497  18.383  0.00  0.00    +0.000 A 
ENDROOT
BRANCH  11  14
ATOM     14  C   UNL     1       2.357   7.482  18.850  0.00  0.00    +0.000 A 
ATOM     15  C   UNL     1       2.065   7.272  20.200  0.00  0.00    +0.000 A 
ATOM     16  C   UNL     1       1.284   8.200  20.891  0.00  0.00    +0.000 A 
ATOM     17  C   UNL     1       0.801   9.340  20.238  0.00  0.00    +0.000 A 
ATOM     18  C   UNL     1       1.100   9.569  18.895  0.00  0.00    +0.000 A 
ATOM     19  C   UNL     1       1.853   8.625  18.198  0.00  0.00    +0.000 A 
BRANCH  18  20
ATOM     20  N   UNL     1       0.648  10.785  18.306  0.00  0.00    +0.000 N 
ATOM     21  H   UNL     1       1.306  11.556  18.178  0.00  0.00    +0.000 HD
BRANCH  20  22
ATOM     22  S   UNL     1      -0.930  11.328  18.515  0.00  0.00    +0.000 S 
ATOM     23  C   UNL     1      -1.865  10.096  17.617  0.00  0.00    +0.000 C 
ATOM     24  O   UNL     1      -1.305  11.299  19.903  0.00  0.00    +0.000 OA
ATOM     25  O   UNL     1      -1.013  12.560  17.739  0.00  0.00    +0.000 OA
ENDBRANCH  20  22
ENDBRANCH  18  20
ENDBRANCH  11  14
TORSDOF 3
ENDMDL
MODEL 3
REMARK VINA RESULT:      -8.3      2.627      4.147
REMARK  Name = 
REMARK  6 active torsions:
REMARK  status: ('A' for Active; 'I' for Inactive)
REMARK    1  A    between atoms: C_1  and  C_2
REMARK    2  A    between atoms: N_8  and  C_9
REMARK    3  A    between atoms: C_11  and  C_12
REMARK    4  A    between atoms: C_16  and  N_17
REMARK    5  A    between atoms: N_17  and  S_18
REMARK    6  A    between atoms: S_18  and  C_19
REMARK                            x       y       z     vdW  Elec       q    Type
REMARK                         _______ _______ _______ _____ _____    ______ ____
ROOT
ATOM      1  C   UNL     1       7.371   7.287  17.330  0.00  0.00    +0.000 C 
ATOM      2  C   UNL     1       6.357   6.197  17.519  0.00  0.00    +0.000 A 
ATOM      3  C   UNL     1       6.633   4.876  17.154  0.00  0.00    +0.000 A 
ATOM      4  C   UNL     1       5.679   3.880  17.362  0.00  0.00    +0.000 A 
ATOM      5  C   UNL     1       4.422   4.207  17.890  0.00  0.00    +0.000 A 
ATOM      6  C   UNL     1       3.402   3.142  18.069  0.00  0.00    +0.000 A 
ATOM      7  O   UNL     1       3.705   1.970  17.862  0.00  0.00    +0.000 OA
ATOM      8  N   UNL     1       2.129   3.565  18.457  0.00  0.00    +0.000 N 
ATOM      9  C   UNL     1       1.056   2.585  18.542  0.00  0.00    +0.000 C 
ATOM     10  C   UNL     1       1.830   4.891  18.720  0.00  0.00    +0.000 A 
ATOM     11  C   UNL     1       2.737   5.883  18.652  0.00  0.00    +0.000 A 
ATOM     12  C   UNL     1       4.108   5.529  18.221  0.00  0.00    +0.000 A 
ATOM     13  C   UNL     1       5.105   6.509  18.071  0.00  0.00    +0.000 A 
ENDROOT
BRANCH  11  14
ATOM     14  C   UNL     1       2.230   7.261  18.833  0.00  0.00    +0.000 A 
ATOM     15  C   UNL     1       1.801   8.043  17.757  0.00  0.00    +0.000 A 
ATOM     16  C   UNL     1       1.279   9.315  17.992  0.00  0.00    +0.000 A 
ATOM     17  C   UNL     1       1.176   9.804  19.300  0.00  0.00    +0.000 A 
ATOM     18  C   UNL     1       1.584   9.026  20.383  0.00  0.00    +0.000 A 
ATOM     19  C   UNL     1       2.136   7.769  20.144  0.00  0.00    +0.000 A 
BRANCH  18  20
ATOM     20  N   UNL     1       1.382   9.545  21.695  0.00  0.00    +0.000 N 
ATOM     21  H   UNL     1       2.156   9.538  22.361  0.00  0.00    +0.000 HD
BRANCH  20  22
ATOM     22  S   UNL     1      -0.113   9.442  22.458  0.00  0.00    +0.000 S 
ATOM     23  C   UNL     1      -0.899  10.961  21.936  0.00  0.00    +0.000 C 
ATOM     24  O   UNL     1      -0.865   8.318  21.969  0.00  0.00    +0.000 OA
ATOM     25  O   UNL     1       0.177   9.592  23.880  0.00  0.00    +0.000 OA
ENDBRANCH  20  22
ENDBRANCH  18  20
ENDBRANCH  11  14
TORSDOF 3
ENDMDL
MODEL 4
REMARK VINA RESULT:      -8.2      1.841      2.406
REMARK  Name = 
REMARK  6 active torsions:
REMARK  status: ('A' for Active; 'I' for Inactive)
REMARK    1  A    between atoms: C_1  and  C_2
REMARK    2  A    between atoms: N_8  and  C_9
REMARK    3  A    between atoms: C_11  and  C_12
REMARK    4  A    between atoms: C_16  and  N_17
REMARK    5  A    between atoms: N_17  and  S_18
REMARK    6  A    between atoms: S_18  and  C_19
REMARK                            x       y       z     vdW  Elec       q    Type
REMARK                         _______ _______ _______ _____ _____    ______ ____
ROOT
ATOM      1  C   UNL     1       0.431   2.747  18.790  0.00  0.00    +0.000 C 
ATOM      2  C   UNL     1       1.772   3.259  18.351  0.00  0.00    +0.000 A 
ATOM      3  C   UNL     1       2.827   2.385  18.073  0.00  0.00    +0.000 A 
ATOM      4  C   UNL     1       4.056   2.888  17.646  0.00  0.00    +0.000 A 
ATOM      5  C   UNL     1       4.254   4.271  17.543  0.00  0.00    +0.000 A 
ATOM      6  C   UNL     1       5.580   4.795  17.125  0.00  0.00    +0.000 A 
ATOM      7  O   UNL     1       6.455   4.011  16.763  0.00  0.00    +0.000 OA
ATOM      8  N   UNL     1       5.747   6.179  17.190  0.00  0.00    +0.000 N 
ATOM      9  C   UNL     1       7.057   6.745  16.900  0.00  0.00    +0.000 C 
ATOM     10  C   UNL     1       4.729   7.037  17.565  0.00  0.00    +0.000 A 
ATOM     11  C   UNL     1       3.486   6.623  17.875  0.00  0.00    +0.000 A 
ATOM     12  C   UNL     1       3.226   5.166  17.860  0.00  0.00    +0.000 A 
ATOM     13  C   UNL     1       1.973   4.641  18.220  0.00  0.00    +0.000 A 
ENDROOT
BRANCH  11  14
ATOM     14  C   UNL     1       2.550   7.650  18.383  0.00  0.00    +0.000 A 
ATOM     15  C   UNL     1       1.993   8.626  17.552  0.00  0.00    +0.000 A 
ATOM     16  C   UNL     1       1.072   9.534  18.074  0.00  0.00    +0.000 A 
ATOM     17  C   UNL     1       0.699   9.465  19.421  0.00  0.00    +0.000 A 
ATOM     18  C   UNL     1       1.235   8.485  20.256  0.00  0.00    +0.000 A 
ATOM     19  C   UNL     1       2.180   7.599  19.742  0.00  0.00    +0.000 A 
BRANCH  18  20
ATOM     20  N   UNL     1       0.759   8.414  21.598  0.00  0.00    +0.000 N 
ATOM     21  H   UNL     1      -0.033   7.808  21.818  0.00  0.00    +0.000 HD
BRANCH  20  22
ATOM     22  S   UNL     1       0.851   9.736  22.633  0.00  0.00    +0.000 S 
ATOM     23  C   UNL     1      -0.874  10.048  22.987  0.00  0.00    +0.000 C 
ATOM     24  O   UNL     1       1.537   9.393  23.850  0.00  0.00    +0.000 OA
ATOM     25  O   UNL     1       1.310  10.840  21.797  0.00  0.00    +0.000 OA
ENDBRANCH  20  22
ENDBRANCH  18  20
ENDBRANCH  11  14
TORSDOF 3
ENDMDL
MODEL 5
REMARK VINA RESULT:      -8.1      2.460      3.839
REMARK  Name = 
REMARK  6 active torsions:
REMARK  status: ('A' for Active; 'I' for Inactive)
REMARK    1  A    between atoms: C_1  and  C_2
REMARK    2  A    between atoms: N_8  and  C_9
REMARK    3  A    between atoms: C_11  and  C_12
REMARK    4  A    between atoms: C_16  and  N_17
REMARK    5  A    between atoms: N_17  and  S_18
REMARK    6  A    between atoms: S_18  and  C_19
REMARK                            x       y       z     vdW  Elec       q    Type
REMARK                         _______ _______ _______ _____ _____    ______ ____
ROOT
ATOM      1  C   UNL     1       5.559   6.461  15.246  0.00  0.00    +0.000 C 
ATOM      2  C   UNL     1       5.029   5.677  16.411  0.00  0.00    +0.000 A 
ATOM      3  C   UNL     1       5.305   4.314  16.554  0.00  0.00    +0.000 A 
ATOM      4  C   UNL     1       4.818   3.615  17.659  0.00  0.00    +0.000 A 
ATOM      5  C   UNL     1       4.007   4.263  18.601  0.00  0.00    +0.000 A 
ATOM      6  C   UNL     1       3.462   3.497  19.751  0.00  0.00    +0.000 A 
ATOM      7  O   UNL     1       3.819   2.334  19.929  0.00  0.00    +0.000 OA
ATOM      8  N   UNL     1       2.544   4.167  20.561  0.00  0.00    +0.000 N 
ATOM      9  C   UNL     1       1.890   3.438  21.638  0.00  0.00    +0.000 C 
ATOM     10  C   UNL     1       2.193   5.490  20.355  0.00  0.00    +0.000 A 
ATOM     11  C   UNL     1       2.718   6.253  19.379  0.00  0.00    +0.000 A 
ATOM     12  C   UNL     1       3.680   5.615  18.453  0.00  0.00    +0.000 A 
ATOM     13  C   UNL     1       4.237   6.321  17.374  0.00  0.00    +0.000 A 
ENDROOT
BRANCH  11  14
ATOM     14  C   UNL     1       2.141   7.605  19.209  0.00  0.00    +0.000 A 
ATOM     15  C   UNL     1       2.410   8.393  18.087  0.00  0.00    +0.000 A 
ATOM     16  C   UNL     1       1.793   9.637  17.952  0.00  0.00    +0.000 A 
ATOM     17  C   UNL     1       0.903  10.092  18.931  0.00  0.00    +0.000 A 
ATOM     18  C   UNL     1       0.614   9.308  20.047  0.00  0.00    +0.000 A 
ATOM     19  C   UNL     1       1.255   8.080  20.197  0.00  0.00    +0.000 A 
BRANCH  18  20
ATOM     20  N   UNL     1      -0.360   9.789  20.971  0.00  0.00    +0.000 N 
ATOM     21  H   UNL     1      -1.289  10.044  20.632  0.00  0.00    +0.000 HD
BRANCH  20  22
ATOM     22  S   UNL     1       0.082  10.671  22.332  0.00  0.00    +0.000 S 
ATOM     23  C   UNL     1      -1.506  11.199  22.961  0.00  0.00    +0.000 C 
ATOM     24  O   UNL     1       0.729   9.831  23.304  0.00  0.00    +0.000 OA
ATOM     25  O   UNL     1       0.741  11.864  21.813  0.00  0.00    +0.000 OA
ENDBRANCH  20  22
ENDBRANCH  18  20
ENDBRANCH  11  14
TORSDOF 3
ENDMDL
MODEL 6
REMARK VINA RESULT:      -8.0      2.012      3.887
REMARK  Name = 
REMARK  6 active torsions:
REMARK  status: ('A' for Active; 'I' for Inactive)
REMARK    1  A    between atoms: C_1  and  C_2
REMARK    2  A    between atoms: N_8  and  C_9
REMARK    3  A    between atoms: C_11  and  C_12
REMARK    4  A    between atoms: C_16  and  N_17
REMARK    5  A    between atoms: N_17  and  S_18
REMARK    6  A    between atoms: S_18  and  C_19
REMARK                            x       y       z     vdW  Elec       q    Type
REMARK                         _______ _______ _______ _____ _____    ______ ____
ROOT
ATOM      1  C   UNL     1       7.593   7.420  17.369  0.00  0.00    +0.000 C 
ATOM      2  C   UNL     1       6.583   6.323  17.534  0.00  0.00    +0.000 A 
ATOM      3  C   UNL     1       6.884   5.001  17.195  0.00  0.00    +0.000 A 
ATOM      4  C   UNL     1       5.932   3.998  17.380  0.00  0.00    +0.000 A 
ATOM      5  C   UNL     1       4.654   4.319  17.857  0.00  0.00    +0.000 A 
ATOM      6  C   UNL     1       3.637   3.248  18.012  0.00  0.00    +0.000 A 
ATOM      7  O   UNL     1       3.958   2.076  17.830  0.00  0.00    +0.000 OA
ATOM      8  N   UNL     1       2.347   3.663  18.348  0.00  0.00    +0.000 N 
ATOM      9  C   UNL     1       1.281   2.674  18.406  0.00  0.00    +0.000 C 
ATOM     10  C   UNL     1       2.027   4.988  18.584  0.00  0.00    +0.000 A 
ATOM     11  C   UNL     1       2.927   5.989  18.537  0.00  0.00    +0.000 A 
ATOM     12  C   UNL     1       4.316   5.643  18.161  0.00  0.00    +0.000 A 
ATOM     13  C   UNL     1       5.308   6.629  18.036  0.00  0.00    +0.000 A 
ENDROOT
BRANCH  11  14
ATOM     14  C   UNL     1       2.401   7.364  18.683  0.00  0.00    +0.000 A 
ATOM     15  C   UNL     1       2.444   8.291  17.639  0.00  0.00    +0.000 A 
ATOM     16  C   UNL     1       1.882   9.556  17.814  0.00  0.00    +0.000 A 
ATOM     17  C   UNL     1       1.269   9.893  19.027  0.00  0.00    +0.000 A 
ATOM     18  C   UNL     1       1.205   8.970  20.070  0.00  0.00    +0.000 A 
ATOM     19  C   UNL     1       1.796   7.719  19.905  0.00  0.00    +0.000 A 
BRANCH  18  20
ATOM     20  N   UNL     1       0.500   9.343  21.252  0.00  0.00    +0.000 N 
ATOM     21  H   UNL     1      -0.076   8.649  21.731  0.00  0.00    +0.000 HD
BRANCH  20  22
ATOM     22  S   UNL     1      -0.075  10.907  21.474  0.00  0.00    +0.000 S 
ATOM     23  C   UNL     1      -0.933  10.765  23.036  0.00  0.00    +0.000 C 
ATOM     24  O   UNL     1       1.010  11.842  21.604  0.00  0.00    +0.000 OA
ATOM     25  O   UNL     1      -1.100  11.083  20.451  0.00  0.00    +0.000 OA
ENDBRANCH  20  22
ENDBRANCH  18  20
ENDBRANCH  11  14
TORSDOF 3
ENDMDL
MODEL 7
REMARK VINA RESULT:      -8.0      1.315      1.419
REMARK  Name = 
REMARK  6 active torsions:
REMARK  status: ('A' for Active; 'I' for Inactive)
REMARK    1  A    between atoms: C_1  and  C_2
REMARK    2  A    between atoms: N_8  and  C_9
REMARK    3  A    between atoms: C_11  and  C_12
REMARK    4  A    between atoms: C_16  and  N_17
REMARK    5  A    between atoms: N_17  and  S_18
REMARK    6  A    between atoms: S_18  and  C_19
REMARK                            x       y       z     vdW  Elec       q    Type
REMARK                         _______ _______ _______ _____ _____    ______ ____
ROOT
ATOM      1  C   UNL     1       0.454   2.512  18.873  0.00  0.00    +0.000 C 
ATOM      2  C   UNL     1       1.722   3.124  18.352  0.00  0.00    +0.000 A 
ATOM      3  C   UNL     1       2.756   2.332  17.847  0.00  0.00    +0.000 A 
ATOM      4  C   UNL     1       3.914   2.929  17.349  0.00  0.00    +0.000 A 
ATOM      5  C   UNL     1       4.067   4.321  17.400  0.00  0.00    +0.000 A 
ATOM      6  C   UNL     1       5.322   4.941  16.902  0.00  0.00    +0.000 A 
ATOM      7  O   UNL     1       6.165   4.242  16.347  0.00  0.00    +0.000 OA
ATOM      8  N   UNL     1       5.463   6.312  17.123  0.00  0.00    +0.000 N 
ATOM      9  C   UNL     1       6.716   6.959  16.759  0.00  0.00    +0.000 C 
ATOM     10  C   UNL     1       4.477   7.079  17.718  0.00  0.00    +0.000 A 
ATOM     11  C   UNL     1       3.289   6.584  18.112  0.00  0.00    +0.000 A 
ATOM     12  C   UNL     1       3.063   5.130  17.942  0.00  0.00    +0.000 A 
ATOM     13  C   UNL     1       1.874   4.519  18.374  0.00  0.00    +0.000 A 
ENDROOT
BRANCH  11  14
ATOM     14  C   UNL     1       2.397   7.504  18.850  0.00  0.00    +0.000 A 
ATOM     15  C   UNL     1       2.056   7.296  20.189  0.00  0.00    +0.000 A 
ATOM     16  C   UNL     1       1.257   8.227  20.852  0.00  0.00    +0.000 A 
ATOM     17  C   UNL     1       0.803   9.370  20.183  0.00  0.00    +0.000 A 
ATOM     18  C   UNL     1       1.150   9.597  18.851  0.00  0.00    +0.000 A 
ATOM     19  C   UNL     1       1.921   8.649  18.181  0.00  0.00    +0.000 A 
BRANCH  18  20
ATOM     20  N   UNL     1       0.724  10.816  18.246  0.00  0.00    +0.000 N 
ATOM     21  H   UNL     1       1.419  11.523  18.002  0.00  0.00    +0.000 HD
BRANCH  20  22
ATOM     22  S   UNL     1      -0.774  11.494  18.597  0.00  0.00    +0.000 S 
ATOM     23  C   UNL     1      -0.514  12.125  20.250  0.00  0.00    +0.000 C 
ATOM     24  O   UNL     1      -1.068  12.584  17.706  0.00  0.00    +0.000 OA
ATOM     25  O   UNL     1      -1.683  10.360  18.723  0.00  0.00    +0.000 OA
ENDBRANCH  20  22
ENDBRANCH  18  20
ENDBRANCH  11  14
TORSDOF 3
ENDMDL
MODEL 8
REMARK VINA RESULT:      -8.0      2.148      2.567
REMARK  Name = 
REMARK  6 active torsions:
REMARK  status: ('A' for Active; 'I' for Inactive)
REMARK    1  A    between atoms: C_1  and  C_2
REMARK    2  A    between atoms: N_8  and  C_9
REMARK    3  A    between atoms: C_11  and  C_12
REMARK    4  A    between atoms: C_16  and  N_17
REMARK    5  A    between atoms: N_17  and  S_18
REMARK    6  A    between atoms: S_18  and  C_19
REMARK                            x       y       z     vdW  Elec       q    Type
REMARK                         _______ _______ _______ _____ _____    ______ ____
ROOT
ATOM      1  C   UNL     1       1.133   3.079  21.091  0.00  0.00    +0.000 C 
ATOM      2  C   UNL     1       2.357   3.529  20.347  0.00  0.00    +0.000 A 
ATOM      3  C   UNL     1       3.506   2.735  20.292  0.00  0.00    +0.000 A 
ATOM      4  C   UNL     1       4.621   3.169  19.574  0.00  0.00    +0.000 A 
ATOM      5  C   UNL     1       4.612   4.423  18.950  0.00  0.00    +0.000 A 
ATOM      6  C   UNL     1       5.821   4.890  18.222  0.00  0.00    +0.000 A 
ATOM      7  O   UNL     1       6.773   4.127  18.077  0.00  0.00    +0.000 OA
ATOM      8  N   UNL     1       5.792   6.205  17.756  0.00  0.00    +0.000 N 
ATOM      9  C   UNL     1       6.987   6.758  17.133  0.00  0.00    +0.000 C 
ATOM     10  C   UNL     1       4.688   7.026  17.902  0.00  0.00    +0.000 A 
ATOM     11  C   UNL     1       3.539   6.627  18.480  0.00  0.00    +0.000 A 
ATOM     12  C   UNL     1       3.489   5.253  19.030  0.00  0.00    +0.000 A 
ATOM     13  C   UNL     1       2.350   4.772  19.696  0.00  0.00    +0.000 A 
ENDROOT
BRANCH  11  14
ATOM     14  C   UNL     1       2.501   7.662  18.678  0.00  0.00    +0.000 A 
ATOM     15  C   UNL     1       2.068   8.490  17.639  0.00  0.00    +0.000 A 
ATOM     16  C   UNL     1       1.045   9.411  17.870  0.00  0.00    +0.000 A 
ATOM     17  C   UNL     1       0.447   9.499  19.132  0.00  0.00    +0.000 A 
ATOM     18  C   UNL     1       0.859   8.666  20.172  0.00  0.00    +0.000 A 
ATOM     19  C   UNL     1       1.903   7.771  19.950  0.00  0.00    +0.000 A 
BRANCH  18  20
ATOM     20  N   UNL     1       0.160   8.748  21.412  0.00  0.00    +0.000 N 
ATOM     21  H   UNL     1      -0.766   8.325  21.495  0.00  0.00    +0.000 HD
BRANCH  20  22
ATOM     22  S   UNL     1       0.350  10.063  22.442  0.00  0.00    +0.000 S 
ATOM     23  C   UNL     1      -1.200  10.926  22.226  0.00  0.00    +0.000 C 
ATOM     24  O   UNL     1       0.476   9.634  23.809  0.00  0.00    +0.000 OA
ATOM     25  O   UNL     1       1.377  10.889  21.816  0.00  0.00    +0.000 OA
ENDBRANCH  20  22
ENDBRANCH  18  20
ENDBRANCH  11  14
TORSDOF 3
ENDMDL
MODEL 9
REMARK VINA RESULT:      -7.9      4.454      7.432
REMARK  Name = 
REMARK  6 active torsions:
REMARK  status: ('A' for Active; 'I' for Inactive)
REMARK    1  A    between atoms: C_1  and  C_2
REMARK    2  A    between atoms: N_8  and  C_9
REMARK    3  A    between atoms: C_11  and  C_12
REMARK    4  A    between atoms: C_16  and  N_17
REMARK    5  A    between atoms: N_17  and  S_18
REMARK    6  A    between atoms: S_18  and  C_19
REMARK                            x       y       z     vdW  Elec       q    Type
REMARK                         _______ _______ _______ _____ _____    ______ ____
ROOT
ATOM      1  C   UNL     1       1.977   9.213  18.012  0.00  0.00    +0.000 C 
ATOM      2  C   UNL     1       2.171   7.894  18.700  0.00  0.00    +0.000 A 
ATOM      3  C   UNL     1       1.579   7.625  19.937  0.00  0.00    +0.000 A 
ATOM      4  C   UNL     1       1.758   6.382  20.543  0.00  0.00    +0.000 A 
ATOM      5  C   UNL     1       2.574   5.415  19.939  0.00  0.00    +0.000 A 
ATOM      6  C   UNL     1       2.789   4.109  20.614  0.00  0.00    +0.000 A 
ATOM      7  O   UNL     1       2.160   3.844  21.635  0.00  0.00    +0.000 OA
ATOM      8  N   UNL     1       3.729   3.259  20.030  0.00  0.00    +0.000 N 
ATOM      9  C   UNL     1       4.066   2.013  20.703  0.00  0.00    +0.000 C 
ATOM     10  C   UNL     1       4.392   3.571  18.856  0.00  0.00    +0.000 A 
ATOM     11  C   UNL     1       4.175   4.703  18.161  0.00  0.00    +0.000 A 
ATOM     12  C   UNL     1       3.213   5.679  18.722  0.00  0.00    +0.000 A 
ATOM     13  C   UNL     1       2.965   6.909  18.091  0.00  0.00    +0.000 A 
ENDROOT
BRANCH  11  14
ATOM     14  C   UNL     1       5.058   4.950  16.999  0.00  0.00    +0.000 A 
ATOM     15  C   UNL     1       5.856   6.093  16.902  0.00  0.00    +0.000 A 
ATOM     16  C   UNL     1       6.713   6.246  15.811  0.00  0.00    +0.000 A 
ATOM     17  C   UNL     1       6.780   5.258  14.823  0.00  0.00    +0.000 A 
ATOM     18  C   UNL     1       6.001   4.105  14.918  0.00  0.00    +0.000 A 
ATOM     19  C   UNL     1       5.122   3.968  15.991  0.00  0.00    +0.000 A 
BRANCH  18  20
ATOM     20  N   UNL     1       6.169   3.098  13.923  0.00  0.00    +0.000 N 
ATOM     21  H   UNL     1       6.896   2.390  14.045  0.00  0.00    +0.000 HD
BRANCH  20  22
ATOM     22  S   UNL     1       5.848   3.403  12.302  0.00  0.00    +0.000 S 
ATOM     23  C   UNL     1       5.994   1.772  11.584  0.00  0.00    +0.000 C 
ATOM     24  O   UNL     1       4.505   3.889  12.125  0.00  0.00    +0.000 OA
ATOM     25  O   UNL     1       6.993   4.171  11.826  0.00  0.00    +0.000 OA
ENDBRANCH  20  22
ENDBRANCH  18  20
ENDBRANCH  11  14
TORSDOF 3
ENDMDL
