MODEL 1
REMARK VINA RESULT:      -7.4      0.000      0.000
REMARK  Name = 
REMARK  10 active torsions:
REMARK  status: ('A' for Active; 'I' for Inactive)
REMARK    1  A    between atoms: C_1  and  O_2
REMARK    2  A    between atoms: O_2  and  C_3
REMARK    3  A    between atoms: C_7  and  C_8
REMARK    4  A    between atoms: C_8  and  N_9
REMARK    5  A    between atoms: C_11  and  C_12
REMARK    6  A    between atoms: N_14  and  C_15
REMARK    7  A    between atoms: C_15  and  C_16
REMARK    8  A    between atoms: C_16  and  S_17
REMARK    9  A    between atoms: S_17  and  C_18
REMARK   10  A    between atoms: N_22  and  C_23
REMARK                            x       y       z     vdW  Elec       q    Type
REMARK                         _______ _______ _______ _____ _____    ______ ____
ROOT
ATOM      1  N   UNL     1       3.330   3.125  18.662  0.00  0.00    +0.000 N 
ATOM      2  C   UNL     1       1.929   3.470  18.419  0.00  0.00    +0.000 C 
ATOM      3  C   UNL     1       1.173   4.044  19.624  0.00  0.00    +0.000 C 
ATOM      4  C   UNL     1       1.320   3.063  20.787  0.00  0.00    +0.000 C 
ATOM      5  C   UNL     1       2.780   2.799  21.096  0.00  0.00    +0.000 C 
ATOM      6  C   UNL     1       3.717   2.662  19.907  0.00  0.00    +0.000 C 
ATOM      7  O   UNL     1       4.840   2.141  20.089  0.00  0.00    +0.000 OA
ENDROOT
BRANCH   3   8
ATOM      8  C   UNL     1       1.609   5.449  20.031  0.00  0.00    +0.000 C 
ATOM      9  O   UNL     1       1.611   5.845  21.193  0.00  0.00    +0.000 OA
ATOM     10  N   UNL     1       1.951   6.270  18.983  0.00  0.00    +0.000 N 
ATOM     11  H   UNL     1       1.952   5.918  18.038  0.00  0.00    +0.000 HD
BRANCH  10  12
ATOM     12  C   UNL     1       2.515   7.591  19.227  0.00  0.00    +0.000 C 
BRANCH  12  13
ATOM     13  C   UNL     1       2.353   8.545  18.045  0.00  0.00    +0.000 C 
BRANCH  13  14
ATOM     14  S   UNL     1       0.788   9.427  18.214  0.00  0.00    +0.000 S 
BRANCH  14  15
ATOM     15  C   UNL     1       0.883  10.252  19.724  0.00  0.00    +0.000 A 
ATOM     16  N   UNL     1       1.355  11.480  19.806  0.00  0.00    +0.000 NA
ATOM     17  N   UNL     1       1.188  11.872  21.093  0.00  0.00    +0.000 NA
ATOM     18  N   UNL     1       0.658  10.922  21.821  0.00  0.00    +0.000 NA
ATOM     19  N   UNL     1       0.418   9.890  20.981  0.00  0.00    +0.000 N 
ATOM     20  C   UNL     1      -0.215   8.748  21.594  0.00  0.00    +0.000 C 
ENDBRANCH  14  15
ENDBRANCH  13  14
ENDBRANCH  12  13
ENDBRANCH  10  12
ENDBRANCH   3   8
BRANCH   1  21
ATOM     21  C   UNL     1       4.140   2.673  17.501  0.00  0.00    +0.000 C 
BRANCH  21  26
ATOM     22  C   UNL     1       6.886   5.405  17.063  0.00  0.00    +0.000 A 
ATOM     23  C   UNL     1       6.893   5.596  15.705  0.00  0.00    +0.000 A 
ATOM     24  C   UNL     1       5.996   4.858  14.922  0.00  0.00    +0.000 A 
ATOM     25  C   UNL     1       5.128   3.907  15.494  0.00  0.00    +0.000 A 
ATOM     26  C   UNL     1       5.111   3.660  16.862  0.00  0.00    +0.000 A 
ATOM     27  C   UNL     1       5.968   4.458  17.619  0.00  0.00    +0.000 A 
BRANCH  22  29
ATOM     28  C   UNL     1       7.740   5.819  19.309  0.00  0.00    +0.000 C 
ATOM     29  O   UNL     1       7.674   6.135  17.910  0.00  0.00    +0.000 OA
ENDBRANCH  22  29
ENDBRANCH  21  26
ENDBRANCH   1  21
TORSDOF 8
ENDMDL
MODEL 2
REMARK VINA RESULT:      -7.3      3.462      6.605
REMARK  Name = 
REMARK  10 active torsions:
REMARK  status: ('A' for Active; 'I' for Inactive)
REMARK    1  A    between atoms: C_1  and  O_2
REMARK    2  A    between atoms: O_2  and  C_3
REMARK    3  A    between atoms: C_7  and  C_8
REMARK    4  A    between atoms: C_8  and  N_9
REMARK    5  A    between atoms: C_11  and  C_12
REMARK    6  A    between atoms: N_14  and  C_15
REMARK    7  A    between atoms: C_15  and  C_16
REMARK    8  A    between atoms: C_16  and  S_17
REMARK    9  A    between atoms: S_17  and  C_18
REMARK   10  A    between atoms: N_22  and  C_23
REMARK                            x       y       z     vdW  Elec       q    Type
REMARK                         _______ _______ _______ _____ _____    ______ ____
ROOT
ATOM      1  N   UNL     1       2.567   4.739  19.914  0.00  0.00    +0.000 N 
ATOM      2  C   UNL     1       3.980   4.370  19.822  0.00  0.00    +0.000 C 
ATOM      3  C   UNL     1       4.288   3.151  18.943  0.00  0.00    +0.000 C 
ATOM      4  C   UNL     1       3.430   1.985  19.434  0.00  0.00    +0.000 C 
ATOM      5  C   UNL     1       1.959   2.347  19.420  0.00  0.00    +0.000 C 
ATOM      6  C   UNL     1       1.596   3.754  19.868  0.00  0.00    +0.000 C 
ATOM      7  O   UNL     1       0.408   3.996  20.172  0.00  0.00    +0.000 OA
ENDROOT
BRANCH   3   8
ATOM      8  C   UNL     1       4.094   3.387  17.449  0.00  0.00    +0.000 C 
ATOM      9  O   UNL     1       3.007   3.644  16.940  0.00  0.00    +0.000 OA
ATOM     10  N   UNL     1       5.231   3.233  16.691  0.00  0.00    +0.000 N 
ATOM     11  H   UNL     1       6.116   3.032  17.132  0.00  0.00    +0.000 HD
BRANCH  10  12
ATOM     12  C   UNL     1       5.228   3.559  15.271  0.00  0.00    +0.000 C 
BRANCH  12  13
ATOM     13  C   UNL     1       5.625   5.005  14.982  0.00  0.00    +0.000 C 
BRANCH  13  14
ATOM     14  S   UNL     1       7.385   5.209  15.325  0.00  0.00    +0.000 S 
BRANCH  14  15
ATOM     15  C   UNL     1       7.498   5.461  17.026  0.00  0.00    +0.000 A 
ATOM     16  N   UNL     1       7.610   4.449  17.864  0.00  0.00    +0.000 NA
ATOM     17  N   UNL     1       7.790   4.987  19.095  0.00  0.00    +0.000 NA
ATOM     18  N   UNL     1       7.765   6.295  19.058  0.00  0.00    +0.000 NA
ATOM     19  N   UNL     1       7.617   6.635  17.758  0.00  0.00    +0.000 N 
ATOM     20  C   UNL     1       7.613   8.054  17.502  0.00  0.00    +0.000 C 
ENDBRANCH  14  15
ENDBRANCH  13  14
ENDBRANCH  12  13
ENDBRANCH  10  12
ENDBRANCH   3   8
BRANCH   1  21
ATOM     21  C   UNL     1       2.225   5.979  20.657  0.00  0.00    +0.000 C 
BRANCH  21  26
ATOM     22  C   UNL     1       1.052   9.564  19.674  0.00  0.00    +0.000 A 
ATOM     23  C   UNL     1       1.502   9.674  18.384  0.00  0.00    +0.000 A 
ATOM     24  C   UNL     1       2.171   8.582  17.814  0.00  0.00    +0.000 A 
ATOM     25  C   UNL     1       2.421   7.406  18.548  0.00  0.00    +0.000 A 
ATOM     26  C   UNL     1       2.009   7.266  19.868  0.00  0.00    +0.000 A 
ATOM     27  C   UNL     1       1.290   8.343  20.383  0.00  0.00    +0.000 A 
BRANCH  22  29
ATOM     28  C   UNL     1      -0.784  11.166  19.614  0.00  0.00    +0.000 C 
ATOM     29  O   UNL     1       0.325  10.550  20.284  0.00  0.00    +0.000 OA
ENDBRANCH  22  29
ENDBRANCH  21  26
ENDBRANCH   1  21
TORSDOF 8
ENDMDL
MODEL 3
REMARK VINA RESULT:      -7.3      5.393      7.552
REMARK  Name = 
REMARK  10 active torsions:
REMARK  status: ('A' for Active; 'I' for Inactive)
REMARK    1  A    between atoms: C_1  and  O_2
REMARK    2  A    between atoms: O_2  and  C_3
REMARK    3  A    between atoms: C_7  and  C_8
REMARK    4  A    between atoms: C_8  and  N_9
REMARK    5  A    between atoms: C_11  and  C_12
REMARK    6  A    between atoms: N_14  and  C_15
REMARK    7  A    between atoms: C_15  and  C_16
REMARK    8  A    between atoms: C_16  and  S_17
REMARK    9  A    between atoms: S_17  and  C_18
REMARK   10  A    between atoms: N_22  and  C_23
REMARK                            x       y       z     vdW  Elec       q    Type
REMARK                         _______ _______ _______ _____ _____    ______ ____
ROOT
ATOM      1  N   UNL     1       5.105   5.672  17.280  0.00  0.00    +0.000 N 
ATOM      2  C   UNL     1       5.760   5.855  18.576  0.00  0.00    +0.000 C 
ATOM      3  C   UNL     1       7.287   5.988  18.529  0.00  0.00    +0.000 C 
ATOM      4  C   UNL     1       7.845   4.778  17.779  0.00  0.00    +0.000 C 
ATOM      5  C   UNL     1       7.236   4.666  16.396  0.00  0.00    +0.000 C 
ATOM      6  C   UNL     1       5.752   4.974  16.276  0.00  0.00    +0.000 C 
ATOM      7  O   UNL     1       5.146   4.598  15.249  0.00  0.00    +0.000 OA
ENDROOT
BRANCH   3   8
ATOM      8  C   UNL     1       7.788   7.293  17.919  0.00  0.00    +0.000 C 
ATOM      9  O   UNL     1       7.745   7.538  16.717  0.00  0.00    +0.000 OA
ATOM     10  N   UNL     1       8.352   8.168  18.818  0.00  0.00    +0.000 N 
ATOM     11  H   UNL     1       8.366   7.950  19.803  0.00  0.00    +0.000 HD
BRANCH  10  12
ATOM     12  C   UNL     1       8.749   9.507  18.403  0.00  0.00    +0.000 C 
BRANCH  12  13
ATOM     13  C   UNL     1       9.598  10.235  19.444  0.00  0.00    +0.000 C 
BRANCH  13  14
ATOM     14  S   UNL     1       9.173  11.988  19.425  0.00  0.00    +0.000 S 
BRANCH  14  15
ATOM     15  C   UNL     1      10.346  12.737  18.409  0.00  0.00    +0.000 A 
ATOM     16  N   UNL     1      11.360  12.055  17.913  0.00  0.00    +0.000 NA
ATOM     17  N   UNL     1      12.018  12.896  17.079  0.00  0.00    +0.000 NA
ATOM     18  N   UNL     1      11.469  14.085  17.060  0.00  0.00    +0.000 NA
ATOM     19  N   UNL     1      10.385  14.013  17.865  0.00  0.00    +0.000 N 
ATOM     20  C   UNL     1       9.610  15.227  17.941  0.00  0.00    +0.000 C 
ENDBRANCH  14  15
ENDBRANCH  13  14
ENDBRANCH  12  13
ENDBRANCH  10  12
ENDBRANCH   3   8
BRANCH   1  21
ATOM     21  C   UNL     1       3.620   5.654  17.255  0.00  0.00    +0.000 C 
BRANCH  21  26
ATOM     22  C   UNL     1       1.711   3.424  19.821  0.00  0.00    +0.000 A 
ATOM     23  C   UNL     1       1.601   2.235  19.148  0.00  0.00    +0.000 A 
ATOM     24  C   UNL     1       2.160   2.138  17.866  0.00  0.00    +0.000 A 
ATOM     25  C   UNL     1       2.789   3.238  17.251  0.00  0.00    +0.000 A 
ATOM     26  C   UNL     1       2.894   4.470  17.887  0.00  0.00    +0.000 A 
ATOM     27  C   UNL     1       2.388   4.514  19.185  0.00  0.00    +0.000 A 
BRANCH  22  29
ATOM     28  C   UNL     1       1.375   2.522  22.060  0.00  0.00    +0.000 C 
ATOM     29  O   UNL     1       1.262   3.585  21.103  0.00  0.00    +0.000 OA
ENDBRANCH  22  29
ENDBRANCH  21  26
ENDBRANCH   1  21
TORSDOF 8
ENDMDL
MODEL 4
REMARK VINA RESULT:      -7.2      1.513      2.142
REMARK  Name = 
REMARK  10 active torsions:
REMARK  status: ('A' for Active; 'I' for Inactive)
REMARK    1  A    between atoms: C_1  and  O_2
REMARK    2  A    between atoms: O_2  and  C_3
REMARK    3  A    between atoms: C_7  and  C_8
REMARK    4  A    between atoms: C_8  and  N_9
REMARK    5  A    between atoms: C_11  and  C_12
REMARK    6  A    between atoms: N_14  and  C_15
REMARK    7  A    between atoms: C_15  and  C_16
REMARK    8  A    between atoms: C_16  and  S_17
REMARK    9  A    between atoms: S_17  and  C_18
REMARK   10  A    between atoms: N_22  and  C_23
REMARK                            x       y       z     vdW  Elec       q    Type
REMARK                         _______ _______ _______ _____ _____    ______ ____
ROOT
ATOM      1  N   UNL     1       3.205   3.717  18.653  0.00  0.00    +0.000 N 
ATOM      2  C   UNL     1       1.823   4.194  18.579  0.00  0.00    +0.000 C 
ATOM      3  C   UNL     1       1.289   4.865  19.851  0.00  0.00    +0.000 C 
ATOM      4  C   UNL     1       1.492   3.898  21.017  0.00  0.00    +0.000 C 
ATOM      5  C   UNL     1       2.948   3.498  21.147  0.00  0.00    +0.000 C 
ATOM      6  C   UNL     1       3.705   3.245  19.853  0.00  0.00    +0.000 C 
ATOM      7  O   UNL     1       4.787   2.620  19.908  0.00  0.00    +0.000 OA
ENDROOT
BRANCH   3   8
ATOM      8  C   UNL     1       1.905   6.228  20.152  0.00  0.00    +0.000 C 
ATOM      9  O   UNL     1       2.885   6.672  19.559  0.00  0.00    +0.000 OA
ATOM     10  N   UNL     1       1.313   6.911  21.187  0.00  0.00    +0.000 N 
ATOM     11  H   UNL     1       0.502   6.530  21.651  0.00  0.00    +0.000 HD
BRANCH  10  12
ATOM     12  C   UNL     1       1.705   8.279  21.497  0.00  0.00    +0.000 C 
BRANCH  12  13
ATOM     13  C   UNL     1       0.528   9.172  21.885  0.00  0.00    +0.000 C 
BRANCH  13  14
ATOM     14  S   UNL     1      -0.363   9.649  20.390  0.00  0.00    +0.000 S 
BRANCH  14  15
ATOM     15  C   UNL     1       0.851  10.091  19.250  0.00  0.00    +0.000 A 
ATOM     16  N   UNL     1       1.185   9.290  18.257  0.00  0.00    +0.000 NA
ATOM     17  N   UNL     1       2.070   9.973  17.491  0.00  0.00    +0.000 NA
ATOM     18  N   UNL     1       2.323  11.158  17.987  0.00  0.00    +0.000 NA
ATOM     19  N   UNL     1       1.542  11.284  19.084  0.00  0.00    +0.000 N 
ATOM     20  C   UNL     1       1.644  12.557  19.754  0.00  0.00    +0.000 C 
ENDBRANCH  14  15
ENDBRANCH  13  14
ENDBRANCH  12  13
ENDBRANCH  10  12
ENDBRANCH   3   8
BRANCH   1  21
ATOM     21  C   UNL     1       3.810   3.164  17.414  0.00  0.00    +0.000 C 
BRANCH  21  26
ATOM     22  C   UNL     1       6.323   6.009  16.527  0.00  0.00    +0.000 A 
ATOM     23  C   UNL     1       6.966   5.498  15.429  0.00  0.00    +0.000 A 
ATOM     24  C   UNL     1       6.579   4.238  14.954  0.00  0.00    +0.000 A 
ATOM     25  C   UNL     1       5.582   3.481  15.601  0.00  0.00    +0.000 A 
ATOM     26  C   UNL     1       4.928   3.949  16.735  0.00  0.00    +0.000 A 
ATOM     27  C   UNL     1       5.289   5.232  17.142  0.00  0.00    +0.000 A 
BRANCH  22  29
ATOM     28  C   UNL     1       7.708   7.498  17.872  0.00  0.00    +0.000 C 
ATOM     29  O   UNL     1       6.583   7.262  17.012  0.00  0.00    +0.000 OA
ENDBRANCH  22  29
ENDBRANCH  21  26
ENDBRANCH   1  21
TORSDOF 8
ENDMDL
MODEL 5
REMARK VINA RESULT:      -7.2      0.870      1.359
REMARK  Name = 
REMARK  10 active torsions:
REMARK  status: ('A' for Active; 'I' for Inactive)
REMARK    1  A    between atoms: C_1  and  O_2
REMARK    2  A    between atoms: O_2  and  C_3
REMARK    3  A    between atoms: C_7  and  C_8
REMARK    4  A    between atoms: C_8  and  N_9
REMARK    5  A    between atoms: C_11  and  C_12
REMARK    6  A    between atoms: N_14  and  C_15
REMARK    7  A    between atoms: C_15  and  C_16
REMARK    8  A    between atoms: C_16  and  S_17
REMARK    9  A    between atoms: S_17  and  C_18
REMARK   10  A    between atoms: N_22  and  C_23
REMARK                            x       y       z     vdW  Elec       q    Type
REMARK                         _______ _______ _______ _____ _____    ______ ____
ROOT
ATOM      1  N   UNL     1       3.311   3.207  18.694  0.00  0.00    +0.000 N 
ATOM      2  C   UNL     1       1.894   3.492  18.471  0.00  0.00    +0.000 C 
ATOM      3  C   UNL     1       1.139   4.067  19.676  0.00  0.00    +0.000 C 
ATOM      4  C   UNL     1       1.346   3.122  20.860  0.00  0.00    +0.000 C 
ATOM      5  C   UNL     1       2.820   2.924  21.147  0.00  0.00    +0.000 C 
ATOM      6  C   UNL     1       3.740   2.792  19.943  0.00  0.00    +0.000 C 
ATOM      7  O   UNL     1       4.885   2.320  20.116  0.00  0.00    +0.000 OA
ENDROOT
BRANCH   3   8
ATOM      8  C   UNL     1       1.526   5.498  20.039  0.00  0.00    +0.000 C 
ATOM      9  O   UNL     1       1.386   5.971  21.163  0.00  0.00    +0.000 OA
ATOM     10  N   UNL     1       2.000   6.249  18.990  0.00  0.00    +0.000 N 
ATOM     11  H   UNL     1       2.118   5.834  18.077  0.00  0.00    +0.000 HD
BRANCH  10  12
ATOM     12  C   UNL     1       2.536   7.585  19.213  0.00  0.00    +0.000 C 
BRANCH  12  13
ATOM     13  C   UNL     1       2.437   8.488  17.985  0.00  0.00    +0.000 C 
BRANCH  13  14
ATOM     14  S   UNL     1       0.895   9.420  18.065  0.00  0.00    +0.000 S 
BRANCH  14  15
ATOM     15  C   UNL     1       0.943  10.264  19.567  0.00  0.00    +0.000 A 
ATOM     16  N   UNL     1       0.736   9.641  20.711  0.00  0.00    +0.000 NA
ATOM     17  N   UNL     1       0.954  10.552  21.690  0.00  0.00    +0.000 NA
ATOM     18  N   UNL     1       1.260  11.726  21.197  0.00  0.00    +0.000 NA
ATOM     19  N   UNL     1       1.297  11.575  19.855  0.00  0.00    +0.000 N 
ATOM     20  C   UNL     1       1.667  12.763  19.124  0.00  0.00    +0.000 C 
ENDBRANCH  14  15
ENDBRANCH  13  14
ENDBRANCH  12  13
ENDBRANCH  10  12
ENDBRANCH   3   8
BRANCH   1  21
ATOM     21  C   UNL     1       4.116   2.758  17.529  0.00  0.00    +0.000 C 
BRANCH  21  26
ATOM     22  C   UNL     1       6.161   5.995  16.800  0.00  0.00    +0.000 A 
ATOM     23  C   UNL     1       6.742   5.708  15.592  0.00  0.00    +0.000 A 
ATOM     24  C   UNL     1       6.461   4.472  14.993  0.00  0.00    +0.000 A 
ATOM     25  C   UNL     1       5.637   3.518  15.622  0.00  0.00    +0.000 A 
ATOM     26  C   UNL     1       5.054   3.759  16.862  0.00  0.00    +0.000 A 
ATOM     27  C   UNL     1       5.299   5.022  17.398  0.00  0.00    +0.000 A 
BRANCH  22  29
ATOM     28  C   UNL     1       7.624   7.779  17.589  0.00  0.00    +0.000 C 
ATOM     29  O   UNL     1       6.319   7.205  17.419  0.00  0.00    +0.000 OA
ENDBRANCH  22  29
ENDBRANCH  21  26
ENDBRANCH   1  21
TORSDOF 8
ENDMDL
MODEL 6
REMARK VINA RESULT:      -7.2      1.682      1.884
REMARK  Name = 
REMARK  10 active torsions:
REMARK  status: ('A' for Active; 'I' for Inactive)
REMARK    1  A    between atoms: C_1  and  O_2
REMARK    2  A    between atoms: O_2  and  C_3
REMARK    3  A    between atoms: C_7  and  C_8
REMARK    4  A    between atoms: C_8  and  N_9
REMARK    5  A    between atoms: C_11  and  C_12
REMARK    6  A    between atoms: N_14  and  C_15
REMARK    7  A    between atoms: C_15  and  C_16
REMARK    8  A    between atoms: C_16  and  S_17
REMARK    9  A    between atoms: S_17  and  C_18
REMARK   10  A    between atoms: N_22  and  C_23
REMARK                            x       y       z     vdW  Elec       q    Type
REMARK                         _______ _______ _______ _____ _____    ______ ____
ROOT
ATOM      1  N   UNL     1       3.314   3.399  18.689  0.00  0.00    +0.000 N 
ATOM      2  C   UNL     1       1.969   3.946  18.503  0.00  0.00    +0.000 C 
ATOM      3  C   UNL     1       1.360   4.629  19.734  0.00  0.00    +0.000 C 
ATOM      4  C   UNL     1       1.412   3.641  20.898  0.00  0.00    +0.000 C 
ATOM      5  C   UNL     1       2.829   3.167  21.148  0.00  0.00    +0.000 C 
ATOM      6  C   UNL     1       3.683   2.889  19.921  0.00  0.00    +0.000 C 
ATOM      7  O   UNL     1       4.724   2.209  20.059  0.00  0.00    +0.000 OA
ENDROOT
BRANCH   3   8
ATOM      8  C   UNL     1       2.014   5.956  20.107  0.00  0.00    +0.000 C 
ATOM      9  O   UNL     1       3.096   6.325  19.659  0.00  0.00    +0.000 OA
ATOM     10  N   UNL     1       1.324   6.696  21.037  0.00  0.00    +0.000 N 
ATOM     11  H   UNL     1       0.431   6.377  21.382  0.00  0.00    +0.000 HD
BRANCH  10  12
ATOM     12  C   UNL     1       1.756   8.042  21.387  0.00  0.00    +0.000 C 
BRANCH  12  13
ATOM     13  C   UNL     1       0.858   9.134  20.809  0.00  0.00    +0.000 C 
BRANCH  13  14
ATOM     14  S   UNL     1      -0.439   9.518  22.003  0.00  0.00    +0.000 S 
BRANCH  14  15
ATOM     15  C   UNL     1      -0.396  11.230  22.197  0.00  0.00    +0.000 A 
ATOM     16  N   UNL     1       0.593  11.951  21.708  0.00  0.00    +0.000 NA
ATOM     17  N   UNL     1       0.270  13.248  21.930  0.00  0.00    +0.000 NA
ATOM     18  N   UNL     1      -0.869  13.360  22.566  0.00  0.00    +0.000 NA
ATOM     19  N   UNL     1      -1.340  12.102  22.722  0.00  0.00    +0.000 N 
ATOM     20  C   UNL     1      -2.626  12.016  23.370  0.00  0.00    +0.000 C 
ENDBRANCH  14  15
ENDBRANCH  13  14
ENDBRANCH  12  13
ENDBRANCH  10  12
ENDBRANCH   3   8
BRANCH   1  21
ATOM     21  C   UNL     1       3.997   2.829  17.499  0.00  0.00    +0.000 C 
BRANCH  21  26
ATOM     22  C   UNL     1       6.941   5.309  16.887  0.00  0.00    +0.000 A 
ATOM     23  C   UNL     1       7.027   5.327  15.518  0.00  0.00    +0.000 A 
ATOM     24  C   UNL     1       6.121   4.553  14.781  0.00  0.00    +0.000 A 
ATOM     25  C   UNL     1       5.163   3.737  15.415  0.00  0.00    +0.000 A 
ATOM     26  C   UNL     1       5.063   3.666  16.800  0.00  0.00    +0.000 A 
ATOM     27  C   UNL     1       5.934   4.498  17.501  0.00  0.00    +0.000 A 
BRANCH  22  29
ATOM     28  C   UNL     1       7.836   5.842  19.091  0.00  0.00    +0.000 C 
ATOM     29  O   UNL     1       7.734   6.091  17.681  0.00  0.00    +0.000 OA
ENDBRANCH  22  29
ENDBRANCH  21  26
ENDBRANCH   1  21
TORSDOF 8
ENDMDL
MODEL 7
REMARK VINA RESULT:      -7.2      4.556      6.916
REMARK  Name = 
REMARK  10 active torsions:
REMARK  status: ('A' for Active; 'I' for Inactive)
REMARK    1  A    between atoms: C_1  and  O_2
REMARK    2  A    between atoms: O_2  and  C_3
REMARK    3  A    between atoms: C_7  and  C_8
REMARK    4  A    between atoms: C_8  and  N_9
REMARK    5  A    between atoms: C_11  and  C_12
REMARK    6  A    between atoms: N_14  and  C_15
REMARK    7  A    between atoms: C_15  and  C_16
REMARK    8  A    between atoms: C_16  and  S_17
REMARK    9  A    between atoms: S_17  and  C_18
REMARK   10  A    between atoms: N_22  and  C_23
REMARK                            x       y       z     vdW  Elec       q    Type
REMARK                         _______ _______ _______ _____ _____    ______ ____
ROOT
ATOM      1  N   UNL     1       5.103   5.449  18.358  0.00  0.00    +0.000 N 
ATOM      2  C   UNL     1       6.233   5.556  19.280  0.00  0.00    +0.000 C 
ATOM      3  C   UNL     1       7.614   5.668  18.621  0.00  0.00    +0.000 C 
ATOM      4  C   UNL     1       7.777   4.490  17.661  0.00  0.00    +0.000 C 
ATOM      5  C   UNL     1       6.655   4.457  16.643  0.00  0.00    +0.000 C 
ATOM      6  C   UNL     1       5.262   4.793  17.150  0.00  0.00    +0.000 C 
ATOM      7  O   UNL     1       4.278   4.479  16.444  0.00  0.00    +0.000 OA
ENDROOT
BRANCH   3   8
ATOM      8  C   UNL     1       7.869   6.995  17.914  0.00  0.00    +0.000 C 
ATOM      9  O   UNL     1       7.687   7.165  16.711  0.00  0.00    +0.000 OA
ATOM     10  N   UNL     1       8.378   7.987  18.718  0.00  0.00    +0.000 N 
ATOM     11  H   UNL     1       8.509   7.826  19.705  0.00  0.00    +0.000 HD
BRANCH  10  12
ATOM     12  C   UNL     1       8.543   9.343  18.213  0.00  0.00    +0.000 C 
BRANCH  12  13
ATOM     13  C   UNL     1       9.276  10.265  19.185  0.00  0.00    +0.000 C 
BRANCH  13  14
ATOM     14  S   UNL     1       9.570  11.852  18.379  0.00  0.00    +0.000 S 
BRANCH  14  15
ATOM     15  C   UNL     1       8.880  13.036  19.423  0.00  0.00    +0.000 A 
ATOM     16  N   UNL     1       9.008  12.954  20.733  0.00  0.00    +0.000 NA
ATOM     17  N   UNL     1       8.458  14.082  21.245  0.00  0.00    +0.000 NA
ATOM     18  N   UNL     1       7.966  14.849  20.304  0.00  0.00    +0.000 NA
ATOM     19  N   UNL     1       8.245  14.236  19.132  0.00  0.00    +0.000 N 
ATOM     20  C   UNL     1       7.818  14.957  17.958  0.00  0.00    +0.000 C 
ENDBRANCH  14  15
ENDBRANCH  13  14
ENDBRANCH  12  13
ENDBRANCH  10  12
ENDBRANCH   3   8
BRANCH   1  21
ATOM     21  C   UNL     1       3.736   5.454  18.939  0.00  0.00    +0.000 C 
BRANCH  21  26
ATOM     22  C   UNL     1       1.386   8.355  20.062  0.00  0.00    +0.000 A 
ATOM     23  C   UNL     1       1.385   9.172  18.961  0.00  0.00    +0.000 A 
ATOM     24  C   UNL     1       2.129   8.782  17.838  0.00  0.00    +0.000 A 
ATOM     25  C   UNL     1       2.898   7.602  17.838  0.00  0.00    +0.000 A 
ATOM     26  C   UNL     1       2.951   6.762  18.945  0.00  0.00    +0.000 A 
ATOM     27  C   UNL     1       2.148   7.144  20.019  0.00  0.00    +0.000 A 
BRANCH  22  29
ATOM     28  C   UNL     1       1.219   9.209  22.339  0.00  0.00    +0.000 C 
ATOM     29  O   UNL     1       0.629   8.619  21.171  0.00  0.00    +0.000 OA
ENDBRANCH  22  29
ENDBRANCH  21  26
ENDBRANCH   1  21
TORSDOF 8
ENDMDL
MODEL 8
REMARK VINA RESULT:      -7.2      5.214      7.501
REMARK  Name = 
REMARK  10 active torsions:
REMARK  status: ('A' for Active; 'I' for Inactive)
REMARK    1  A    between atoms: C_1  and  O_2
REMARK    2  A    between atoms: O_2  and  C_3
REMARK    3  A    between atoms: C_7  and  C_8
REMARK    4  A    between atoms: C_8  and  N_9
REMARK    5  A    between atoms: C_11  and  C_12
REMARK    6  A    between atoms: N_14  and  C_15
REMARK    7  A    between atoms: C_15  and  C_16
REMARK    8  A    between atoms: C_16  and  S_17
REMARK    9  A    between atoms: S_17  and  C_18
REMARK   10  A    between atoms: N_22  and  C_23
REMARK                            x       y       z     vdW  Elec       q    Type
REMARK                         _______ _______ _______ _____ _____    ______ ____
ROOT
ATOM      1  N   UNL     1       5.131   5.487  18.249  0.00  0.00    +0.000 N 
ATOM      2  C   UNL     1       6.175   5.650  19.260  0.00  0.00    +0.000 C 
ATOM      3  C   UNL     1       7.600   5.811  18.717  0.00  0.00    +0.000 C 
ATOM      4  C   UNL     1       7.890   4.631  17.790  0.00  0.00    +0.000 C 
ATOM      5  C   UNL     1       6.860   4.541  16.683  0.00  0.00    +0.000 C 
ATOM      6  C   UNL     1       5.416   4.825  17.067  0.00  0.00    +0.000 C 
ATOM      7  O   UNL     1       4.509   4.463  16.287  0.00  0.00    +0.000 OA
ENDROOT
BRANCH   3   8
ATOM      8  C   UNL     1       7.860   7.140  18.014  0.00  0.00    +0.000 C 
ATOM      9  O   UNL     1       7.553   7.358  16.845  0.00  0.00    +0.000 OA
ATOM     10  N   UNL     1       8.522   8.074  18.775  0.00  0.00    +0.000 N 
ATOM     11  H   UNL     1       8.754   7.876  19.737  0.00  0.00    +0.000 HD
BRANCH  10  12
ATOM     12  C   UNL     1       8.717   9.432  18.285  0.00  0.00    +0.000 C 
BRANCH  12  13
ATOM     13  C   UNL     1       8.843  10.465  19.402  0.00  0.00    +0.000 C 
BRANCH  13  14
ATOM     14  S   UNL     1      10.557  11.022  19.494  0.00  0.00    +0.000 S 
BRANCH  14  15
ATOM     15  C   UNL     1      10.632  12.447  18.528  0.00  0.00    +0.000 A 
ATOM     16  N   UNL     1      11.223  12.447  17.350  0.00  0.00    +0.000 NA
ATOM     17  N   UNL     1      11.008  13.672  16.811  0.00  0.00    +0.000 NA
ATOM     18  N   UNL     1      10.331  14.444  17.623  0.00  0.00    +0.000 NA
ATOM     19  N   UNL     1      10.044  13.692  18.709  0.00  0.00    +0.000 N 
ATOM     20  C   UNL     1       9.252  14.360  19.713  0.00  0.00    +0.000 C 
ENDBRANCH  14  15
ENDBRANCH  13  14
ENDBRANCH  12  13
ENDBRANCH  10  12
ENDBRANCH   3   8
BRANCH   1  21
ATOM     21  C   UNL     1       3.721   5.442  18.714  0.00  0.00    +0.000 C 
BRANCH  21  26
ATOM     22  C   UNL     1       1.430   8.295  20.060  0.00  0.00    +0.000 A 
ATOM     23  C   UNL     1       1.389   9.161  18.999  0.00  0.00    +0.000 A 
ATOM     24  C   UNL     1       2.086   8.821  17.831  0.00  0.00    +0.000 A 
ATOM     25  C   UNL     1       2.850   7.640  17.746  0.00  0.00    +0.000 A 
ATOM     26  C   UNL     1       2.942   6.750  18.810  0.00  0.00    +0.000 A 
ATOM     27  C   UNL     1       2.185   7.085  19.932  0.00  0.00    +0.000 A 
BRANCH  22  29
ATOM     28  C   UNL     1       1.318   9.181  22.329  0.00  0.00    +0.000 C 
ATOM     29  O   UNL     1       0.720   8.510  21.210  0.00  0.00    +0.000 OA
ENDBRANCH  22  29
ENDBRANCH  21  26
ENDBRANCH   1  21
TORSDOF 8
ENDMDL
MODEL 9
REMARK VINA RESULT:      -7.1      1.630      2.068
REMARK  Name = 
REMARK  10 active torsions:
REMARK  status: ('A' for Active; 'I' for Inactive)
REMARK    1  A    between atoms: C_1  and  O_2
REMARK    2  A    between atoms: O_2  and  C_3
REMARK    3  A    between atoms: C_7  and  C_8
REMARK    4  A    between atoms: C_8  and  N_9
REMARK    5  A    between atoms: C_11  and  C_12
REMARK    6  A    between atoms: N_14  and  C_15
REMARK    7  A    between atoms: C_15  and  C_16
REMARK    8  A    between atoms: C_16  and  S_17
REMARK    9  A    between atoms: S_17  and  C_18
REMARK   10  A    between atoms: N_22  and  C_23
REMARK                            x       y       z     vdW  Elec       q    Type
REMARK                         _______ _______ _______ _____ _____    ______ ____
ROOT
ATOM      1  N   UNL     1       3.279   3.431  18.798  0.00  0.00    +0.000 N 
ATOM      2  C   UNL     1       1.927   3.950  18.591  0.00  0.00    +0.000 C 
ATOM      3  C   UNL     1       1.274   4.597  19.819  0.00  0.00    +0.000 C 
ATOM      4  C   UNL     1       1.322   3.589  20.967  0.00  0.00    +0.000 C 
ATOM      5  C   UNL     1       2.744   3.143  21.241  0.00  0.00    +0.000 C 
ATOM      6  C   UNL     1       3.633   2.907  20.030  0.00  0.00    +0.000 C 
ATOM      7  O   UNL     1       4.685   2.249  20.181  0.00  0.00    +0.000 OA
ENDROOT
BRANCH   3   8
ATOM      8  C   UNL     1       1.888   5.931  20.231  0.00  0.00    +0.000 C 
ATOM      9  O   UNL     1       3.057   6.235  20.007  0.00  0.00    +0.000 OA
ATOM     10  N   UNL     1       1.045   6.761  20.931  0.00  0.00    +0.000 N 
ATOM     11  H   UNL     1       0.085   6.494  21.093  0.00  0.00    +0.000 HD
BRANCH  10  12
ATOM     12  C   UNL     1       1.449   8.119  21.269  0.00  0.00    +0.000 C 
BRANCH  12  13
ATOM     13  C   UNL     1       0.335   8.935  21.922  0.00  0.00    +0.000 C 
BRANCH  13  14
ATOM     14  S   UNL     1       0.514  10.664  21.437  0.00  0.00    +0.000 S 
BRANCH  14  15
ATOM     15  C   UNL     1      -0.456  10.850  20.025  0.00  0.00    +0.000 A 
ATOM     16  N   UNL     1      -1.538  11.603  20.030  0.00  0.00    +0.000 NA
ATOM     17  N   UNL     1      -1.997  11.627  18.755  0.00  0.00    +0.000 NA
ATOM     18  N   UNL     1      -1.257  10.893  17.962  0.00  0.00    +0.000 NA
ATOM     19  N   UNL     1      -0.250  10.411  18.724  0.00  0.00    +0.000 N 
ATOM     20  C   UNL     1       0.711   9.603  18.012  0.00  0.00    +0.000 C 
ENDBRANCH  14  15
ENDBRANCH  13  14
ENDBRANCH  12  13
ENDBRANCH  10  12
ENDBRANCH   3   8
BRANCH   1  21
ATOM     21  C   UNL     1       4.002   2.898  17.615  0.00  0.00    +0.000 C 
BRANCH  21  26
ATOM     22  C   UNL     1       6.861   5.514  17.186  0.00  0.00    +0.000 A 
ATOM     23  C   UNL     1       7.139   5.425  15.847  0.00  0.00    +0.000 A 
ATOM     24  C   UNL     1       6.391   4.532  15.067  0.00  0.00    +0.000 A 
ATOM     25  C   UNL     1       5.400   3.708  15.636  0.00  0.00    +0.000 A 
ATOM     26  C   UNL     1       5.109   3.745  16.995  0.00  0.00    +0.000 A 
ATOM     27  C   UNL     1       5.824   4.690  17.729  0.00  0.00    +0.000 A 
BRANCH  22  29
ATOM     28  C   UNL     1       7.656   7.780  17.609  0.00  0.00    +0.000 C 
ATOM     29  O   UNL     1       7.488   6.411  18.007  0.00  0.00    +0.000 OA
ENDBRANCH  22  29
ENDBRANCH  21  26
ENDBRANCH   1  21
TORSDOF 8
ENDMDL
