MODEL 1
REMARK VINA RESULT:      -6.9      0.000      0.000
REMARK  Name = 
REMARK  10 active torsions:
REMARK  status: ('A' for Active; 'I' for Inactive)
REMARK    1  A    between atoms: C_1  and  C_2
REMARK    2  A    between atoms: C_2  and  N_3
REMARK    3  A    between atoms: N_3  and  C_4
REMARK    4  A    between atoms: N_3  and  C_6
REMARK    5  A    between atoms: C_4  and  C_5
REMARK    6  A    between atoms: C_6  and  C_7
REMARK    7  A    between atoms: C_7  and  C_8
REMARK    8  A    between atoms: C_8  and  O_9
REMARK    9  A    between atoms: O_9  and  C_10
REMARK   10  A    between atoms: C_12  and  C_13
REMARK                            x       y       z     vdW  Elec       q    Type
REMARK                         _______ _______ _______ _____ _____    ______ ____
ROOT
ATOM      1  C   UNL     1       2.372   6.815  19.672  0.00  0.00    +0.000 A 
ATOM      2  N   UNL     1       3.373   6.141  19.080  0.00  0.00    +0.000 NA
ATOM      3  C   UNL     1       3.933   6.715  17.987  0.00  0.00    +0.000 A 
ATOM      4  N   UNL     1       3.565   7.907  17.464  0.00  0.00    +0.000 NA
ATOM      5  C   UNL     1       2.555   8.511  18.094  0.00  0.00    +0.000 A 
ATOM      6  C   UNL     1       1.910   8.010  19.201  0.00  0.00    +0.000 A 
ATOM      7  C   UNL     1       0.866   8.929  19.707  0.00  0.00    +0.000 C 
ATOM      8  C   UNL     1       0.679   9.861  18.499  0.00  0.00    +0.000 C 
ATOM      9  C   UNL     1       2.005   9.857  17.721  0.00  0.00    +0.000 C 
ENDROOT
BRANCH   3  10
ATOM     10  C   UNL     1       5.013   5.975  17.298  0.00  0.00    +0.000 A 
ATOM     11  C   UNL     1       5.074   5.902  15.893  0.00  0.00    +0.000 A 
ATOM     12  C   UNL     1       6.104   5.219  15.239  0.00  0.00    +0.000 A 
ATOM     13  C   UNL     1       7.100   4.588  15.978  0.00  0.00    +0.000 A 
ATOM     14  C   UNL     1       7.067   4.638  17.368  0.00  0.00    +0.000 A 
ATOM     15  C   UNL     1       6.035   5.324  18.017  0.00  0.00    +0.000 A 
ENDBRANCH   3  10
BRANCH   1  16
ATOM     16  O   UNL     1       1.715   6.273  20.751  0.00  0.00    +0.000 OA
BRANCH  16  17
ATOM     17  C   UNL     1       2.167   4.962  21.108  0.00  0.00    +0.000 C 
BRANCH  17  18
ATOM     18  C   UNL     1       1.105   3.993  20.594  0.00  0.00    +0.000 C 
BRANCH  18  19
ATOM     19  C   UNL     1       1.597   2.550  20.424  0.00  0.00    +0.000 C 
BRANCH  19  20
ATOM     20  N   UNL     1       1.965   2.169  19.047  0.00  0.00    +0.000 NA
BRANCH  20  22
ATOM     21  C   UNL     1       2.558   3.362  16.893  0.00  0.00    +0.000 C 
ATOM     22  C   UNL     1       1.612   3.223  18.079  0.00  0.00    +0.000 C 
ENDBRANCH  20  22
BRANCH  20  23
ATOM     23  C   UNL     1       3.371   1.735  18.968  0.00  0.00    +0.000 C 
ATOM     24  C   UNL     1       4.378   2.515  19.816  0.00  0.00    +0.000 C 
ENDBRANCH  20  23
ENDBRANCH  19  20
ENDBRANCH  18  19
ENDBRANCH  17  18
ENDBRANCH  16  17
ENDBRANCH   1  16
TORSDOF 8
ENDMDL
MODEL 2
REMARK VINA RESULT:      -6.8      1.814      5.835
REMARK  Name = 
REMARK  10 active torsions:
REMARK  status: ('A' for Active; 'I' for Inactive)
REMARK    1  A    between atoms: C_1  and  C_2
REMARK    2  A    between atoms: C_2  and  N_3
REMARK    3  A    between atoms: N_3  and  C_4
REMARK    4  A    between atoms: N_3  and  C_6
REMARK    5  A    between atoms: C_4  and  C_5
REMARK    6  A    between atoms: C_6  and  C_7
REMARK    7  A    between atoms: C_7  and  C_8
REMARK    8  A    between atoms: C_8  and  O_9
REMARK    9  A    between atoms: O_9  and  C_10
REMARK   10  A    between atoms: C_12  and  C_13
REMARK                            x       y       z     vdW  Elec       q    Type
REMARK                         _______ _______ _______ _____ _____    ______ ____
ROOT
ATOM      1  C   UNL     1       4.123   4.834  19.556  0.00  0.00    +0.000 A 
ATOM      2  N   UNL     1       3.742   6.100  19.317  0.00  0.00    +0.000 NA
ATOM      3  C   UNL     1       2.479   6.438  19.678  0.00  0.00    +0.000 A 
ATOM      4  N   UNL     1       1.592   5.602  20.263  0.00  0.00    +0.000 NA
ATOM      5  C   UNL     1       2.034   4.357  20.456  0.00  0.00    +0.000 A 
ATOM      6  C   UNL     1       3.288   3.908  20.115  0.00  0.00    +0.000 A 
ATOM      7  C   UNL     1       3.504   2.495  20.499  0.00  0.00    +0.000 C 
ATOM      8  C   UNL     1       2.059   2.027  20.733  0.00  0.00    +0.000 C 
ATOM      9  C   UNL     1       1.243   3.269  21.125  0.00  0.00    +0.000 C 
ENDROOT
BRANCH   3  10
ATOM     10  C   UNL     1       2.027   7.816  19.391  0.00  0.00    +0.000 A 
ATOM     11  C   UNL     1       2.256   8.421  18.139  0.00  0.00    +0.000 A 
ATOM     12  C   UNL     1       1.813   9.717  17.860  0.00  0.00    +0.000 A 
ATOM     13  C   UNL     1       1.131  10.444  18.830  0.00  0.00    +0.000 A 
ATOM     14  C   UNL     1       0.892   9.878  20.079  0.00  0.00    +0.000 A 
ATOM     15  C   UNL     1       1.336   8.580  20.353  0.00  0.00    +0.000 A 
ENDBRANCH   3  10
BRANCH   1  16
ATOM     16  O   UNL     1       5.367   4.399  19.167  0.00  0.00    +0.000 OA
BRANCH  16  17
ATOM     17  C   UNL     1       6.380   5.407  19.228  0.00  0.00    +0.000 C 
BRANCH  17  18
ATOM     18  C   UNL     1       7.447   4.998  18.215  0.00  0.00    +0.000 C 
BRANCH  18  19
ATOM     19  C   UNL     1       7.236   5.575  16.809  0.00  0.00    +0.000 C 
BRANCH  19  20
ATOM     20  N   UNL     1       6.389   4.762  15.916  0.00  0.00    +0.000 NA
BRANCH  20  22
ATOM     21  C   UNL     1       4.881   6.792  16.052  0.00  0.00    +0.000 C 
ATOM     22  C   UNL     1       5.015   5.289  15.841  0.00  0.00    +0.000 C 
ENDBRANCH  20  22
BRANCH  20  23
ATOM     23  C   UNL     1       7.026   4.570  14.601  0.00  0.00    +0.000 C 
ATOM     24  C   UNL     1       6.189   3.866  13.530  0.00  0.00    +0.000 C 
ENDBRANCH  20  23
ENDBRANCH  19  20
ENDBRANCH  18  19
ENDBRANCH  17  18
ENDBRANCH  16  17
ENDBRANCH   1  16
TORSDOF 8
ENDMDL
MODEL 3
REMARK VINA RESULT:      -6.8      1.782      5.887
REMARK  Name = 
REMARK  10 active torsions:
REMARK  status: ('A' for Active; 'I' for Inactive)
REMARK    1  A    between atoms: C_1  and  C_2
REMARK    2  A    between atoms: C_2  and  N_3
REMARK    3  A    between atoms: N_3  and  C_4
REMARK    4  A    between atoms: N_3  and  C_6
REMARK    5  A    between atoms: C_4  and  C_5
REMARK    6  A    between atoms: C_6  and  C_7
REMARK    7  A    between atoms: C_7  and  C_8
REMARK    8  A    between atoms: C_8  and  O_9
REMARK    9  A    between atoms: O_9  and  C_10
REMARK   10  A    between atoms: C_12  and  C_13
REMARK                            x       y       z     vdW  Elec       q    Type
REMARK                         _______ _______ _______ _____ _____    ______ ____
ROOT
ATOM      1  C   UNL     1       4.612   4.627  19.303  0.00  0.00    +0.000 A 
ATOM      2  N   UNL     1       4.131   5.882  19.272  0.00  0.00    +0.000 NA
ATOM      3  C   UNL     1       2.783   6.020  19.246  0.00  0.00    +0.000 A 
ATOM      4  N   UNL     1       1.899   4.996  19.259  0.00  0.00    +0.000 NA
ATOM      5  C   UNL     1       2.448   3.778  19.275  0.00  0.00    +0.000 A 
ATOM      6  C   UNL     1       3.800   3.528  19.289  0.00  0.00    +0.000 A 
ATOM      7  C   UNL     1       4.104   2.081  19.358  0.00  0.00    +0.000 C 
ATOM      8  C   UNL     1       2.751   1.474  18.952  0.00  0.00    +0.000 C 
ATOM      9  C   UNL     1       1.669   2.496  19.335  0.00  0.00    +0.000 C 
ENDROOT
BRANCH   3  10
ATOM     10  C   UNL     1       2.233   7.391  19.175  0.00  0.00    +0.000 A 
ATOM     11  C   UNL     1       1.619   7.995  20.290  0.00  0.00    +0.000 A 
ATOM     12  C   UNL     1       1.115   9.298  20.230  0.00  0.00    +0.000 A 
ATOM     13  C   UNL     1       1.211  10.029  19.051  0.00  0.00    +0.000 A 
ATOM     14  C   UNL     1       1.808   9.460  17.930  0.00  0.00    +0.000 A 
ATOM     15  C   UNL     1       2.311   8.156  17.995  0.00  0.00    +0.000 A 
ENDBRANCH   3  10
BRANCH   1  16
ATOM     16  O   UNL     1       5.967   4.403  19.273  0.00  0.00    +0.000 OA
BRANCH  16  17
ATOM     17  C   UNL     1       6.755   5.595  19.348  0.00  0.00    +0.000 C 
BRANCH  17  18
ATOM     18  C   UNL     1       7.396   5.766  17.973  0.00  0.00    +0.000 C 
BRANCH  18  19
ATOM     19  C   UNL     1       7.218   4.563  17.040  0.00  0.00    +0.000 C 
BRANCH  19  20
ATOM     20  N   UNL     1       6.492   4.842  15.785  0.00  0.00    +0.000 NA
BRANCH  20  22
ATOM     21  C   UNL     1       6.103   3.932  13.454  0.00  0.00    +0.000 C 
ATOM     22  C   UNL     1       6.437   3.654  14.914  0.00  0.00    +0.000 C 
ENDBRANCH  20  22
BRANCH  20  23
ATOM     23  C   UNL     1       5.175   5.447  16.051  0.00  0.00    +0.000 C 
ATOM     24  C   UNL     1       4.990   6.903  15.615  0.00  0.00    +0.000 C 
ENDBRANCH  20  23
ENDBRANCH  19  20
ENDBRANCH  18  19
ENDBRANCH  17  18
ENDBRANCH  16  17
ENDBRANCH   1  16
TORSDOF 8
ENDMDL
MODEL 4
REMARK VINA RESULT:      -6.8      1.781      5.989
REMARK  Name = 
REMARK  10 active torsions:
REMARK  status: ('A' for Active; 'I' for Inactive)
REMARK    1  A    between atoms: C_1  and  C_2
REMARK    2  A    between atoms: C_2  and  N_3
REMARK    3  A    between atoms: N_3  and  C_4
REMARK    4  A    between atoms: N_3  and  C_6
REMARK    5  A    between atoms: C_4  and  C_5
REMARK    6  A    between atoms: C_6  and  C_7
REMARK    7  A    between atoms: C_7  and  C_8
REMARK    8  A    between atoms: C_8  and  O_9
REMARK    9  A    between atoms: O_9  and  C_10
REMARK   10  A    between atoms: C_12  and  C_13
REMARK                            x       y       z     vdW  Elec       q    Type
REMARK                         _______ _______ _______ _____ _____    ______ ____
ROOT
ATOM      1  C   UNL     1       3.907   4.931  19.375  0.00  0.00    +0.000 A 
ATOM      2  N   UNL     1       3.493   6.201  19.231  0.00  0.00    +0.000 NA
ATOM      3  C   UNL     1       2.319   6.533  19.820  0.00  0.00    +0.000 A 
ATOM      4  N   UNL     1       1.549   5.687  20.542  0.00  0.00    +0.000 NA
ATOM      5  C   UNL     1       2.014   4.438  20.631  0.00  0.00    +0.000 A 
ATOM      6  C   UNL     1       3.185   3.996  20.060  0.00  0.00    +0.000 A 
ATOM      7  C   UNL     1       3.462   2.576  20.374  0.00  0.00    +0.000 C 
ATOM      8  C   UNL     1       2.081   2.104  20.858  0.00  0.00    +0.000 C 
ATOM      9  C   UNL     1       1.354   3.340  21.413  0.00  0.00    +0.000 C 
ENDROOT
BRANCH   3  10
ATOM     10  C   UNL     1       1.827   7.916  19.645  0.00  0.00    +0.000 A 
ATOM     11  C   UNL     1       1.964   8.596  18.418  0.00  0.00    +0.000 A 
ATOM     12  C   UNL     1       1.482   9.897  18.244  0.00  0.00    +0.000 A 
ATOM     13  C   UNL     1       0.853  10.554  19.296  0.00  0.00    +0.000 A 
ATOM     14  C   UNL     1       0.706   9.913  20.523  0.00  0.00    +0.000 A 
ATOM     15  C   UNL     1       1.188   8.610  20.691  0.00  0.00    +0.000 A 
ENDBRANCH   3  10
BRANCH   1  16
ATOM     16  O   UNL     1       5.058   4.502  18.759  0.00  0.00    +0.000 OA
BRANCH  16  17
ATOM     17  C   UNL     1       6.238   5.190  19.190  0.00  0.00    +0.000 C 
BRANCH  17  18
ATOM     18  C   UNL     1       7.242   5.063  18.047  0.00  0.00    +0.000 C 
BRANCH  18  19
ATOM     19  C   UNL     1       7.223   6.234  17.056  0.00  0.00    +0.000 C 
BRANCH  19  20
ATOM     20  N   UNL     1       6.700   5.914  15.714  0.00  0.00    +0.000 NA
BRANCH  20  22
ATOM     21  C   UNL     1       6.179   3.847  14.346  0.00  0.00    +0.000 C 
ATOM     22  C   UNL     1       7.150   4.586  15.259  0.00  0.00    +0.000 C 
ENDBRANCH  20  22
BRANCH  20  23
ATOM     23  C   UNL     1       5.240   6.104  15.647  0.00  0.00    +0.000 C 
ATOM     24  C   UNL     1       4.670   7.304  16.407  0.00  0.00    +0.000 C 
ENDBRANCH  20  23
ENDBRANCH  19  20
ENDBRANCH  18  19
ENDBRANCH  17  18
ENDBRANCH  16  17
ENDBRANCH   1  16
TORSDOF 8
ENDMDL
MODEL 5
REMARK VINA RESULT:      -6.7      1.329      4.858
REMARK  Name = 
REMARK  10 active torsions:
REMARK  status: ('A' for Active; 'I' for Inactive)
REMARK    1  A    between atoms: C_1  and  C_2
REMARK    2  A    between atoms: C_2  and  N_3
REMARK    3  A    between atoms: N_3  and  C_4
REMARK    4  A    between atoms: N_3  and  C_6
REMARK    5  A    between atoms: C_4  and  C_5
REMARK    6  A    between atoms: C_6  and  C_7
REMARK    7  A    between atoms: C_7  and  C_8
REMARK    8  A    between atoms: C_8  and  O_9
REMARK    9  A    between atoms: O_9  and  C_10
REMARK   10  A    between atoms: C_12  and  C_13
REMARK                            x       y       z     vdW  Elec       q    Type
REMARK                         _______ _______ _______ _____ _____    ______ ____
ROOT
ATOM      1  C   UNL     1       5.077   4.887  18.482  0.00  0.00    +0.000 A 
ATOM      2  N   UNL     1       4.151   5.745  18.943  0.00  0.00    +0.000 NA
ATOM      3  C   UNL     1       3.687   6.672  18.069  0.00  0.00    +0.000 A 
ATOM      4  N   UNL     1       4.080   6.786  16.780  0.00  0.00    +0.000 NA
ATOM      5  C   UNL     1       5.013   5.911  16.396  0.00  0.00    +0.000 A 
ATOM      6  C   UNL     1       5.559   4.942  17.205  0.00  0.00    +0.000 A 
ATOM      7  C   UNL     1       6.532   4.090  16.484  0.00  0.00    +0.000 C 
ATOM      8  C   UNL     1       6.815   4.949  15.241  0.00  0.00    +0.000 C 
ATOM      9  C   UNL     1       5.570   5.819  15.005  0.00  0.00    +0.000 C 
ENDROOT
BRANCH   3  10
ATOM     10  C   UNL     1       2.693   7.648  18.565  0.00  0.00    +0.000 A 
ATOM     11  C   UNL     1       2.156   7.555  19.864  0.00  0.00    +0.000 A 
ATOM     12  C   UNL     1       1.230   8.489  20.342  0.00  0.00    +0.000 A 
ATOM     13  C   UNL     1       0.816   9.538  19.529  0.00  0.00    +0.000 A 
ATOM     14  C   UNL     1       1.325   9.656  18.238  0.00  0.00    +0.000 A 
ATOM     15  C   UNL     1       2.252   8.721  17.766  0.00  0.00    +0.000 A 
ENDBRANCH   3  10
BRANCH   1  16
ATOM     16  O   UNL     1       5.639   3.956  19.322  0.00  0.00    +0.000 OA
BRANCH  16  17
ATOM     17  C   UNL     1       4.701   3.329  20.203  0.00  0.00    +0.000 C 
BRANCH  17  18
ATOM     18  C   UNL     1       4.146   2.126  19.444  0.00  0.00    +0.000 C 
BRANCH  18  19
ATOM     19  C   UNL     1       2.615   2.091  19.349  0.00  0.00    +0.000 C 
BRANCH  19  20
ATOM     20  N   UNL     1       1.951   3.406  19.427  0.00  0.00    +0.000 NA
BRANCH  20  22
ATOM     21  C   UNL     1       2.150   3.500  16.904  0.00  0.00    +0.000 C 
ATOM     22  C   UNL     1       1.314   3.770  18.149  0.00  0.00    +0.000 C 
ENDBRANCH  20  22
BRANCH  20  23
ATOM     23  C   UNL     1       1.044   3.481  20.586  0.00  0.00    +0.000 C 
ATOM     24  C   UNL     1       1.368   2.566  21.770  0.00  0.00    +0.000 C 
ENDBRANCH  20  23
ENDBRANCH  19  20
ENDBRANCH  18  19
ENDBRANCH  17  18
ENDBRANCH  16  17
ENDBRANCH   1  16
TORSDOF 8
ENDMDL
MODEL 6
REMARK VINA RESULT:      -6.6      4.179      7.895
REMARK  Name = 
REMARK  10 active torsions:
REMARK  status: ('A' for Active; 'I' for Inactive)
REMARK    1  A    between atoms: C_1  and  C_2
REMARK    2  A    between atoms: C_2  and  N_3
REMARK    3  A    between atoms: N_3  and  C_4
REMARK    4  A    between atoms: N_3  and  C_6
REMARK    5  A    between atoms: C_4  and  C_5
REMARK    6  A    between atoms: C_6  and  C_7
REMARK    7  A    between atoms: C_7  and  C_8
REMARK    8  A    between atoms: C_8  and  O_9
REMARK    9  A    between atoms: O_9  and  C_10
REMARK   10  A    between atoms: C_12  and  C_13
REMARK                            x       y       z     vdW  Elec       q    Type
REMARK                         _______ _______ _______ _____ _____    ______ ____
ROOT
ATOM      1  C   UNL     1       5.785   6.412  16.878  0.00  0.00    +0.000 A 
ATOM      2  N   UNL     1       4.842   6.180  17.806  0.00  0.00    +0.000 NA
ATOM      3  C   UNL     1       4.185   4.996  17.729  0.00  0.00    +0.000 A 
ATOM      4  N   UNL     1       4.418   4.041  16.800  0.00  0.00    +0.000 NA
ATOM      5  C   UNL     1       5.358   4.346  15.902  0.00  0.00    +0.000 A 
ATOM      6  C   UNL     1       6.072   5.522  15.883  0.00  0.00    +0.000 A 
ATOM      7  C   UNL     1       7.079   5.551  14.798  0.00  0.00    +0.000 C 
ATOM      8  C   UNL     1       6.583   4.405  13.901  0.00  0.00    +0.000 C 
ATOM      9  C   UNL     1       5.816   3.428  14.806  0.00  0.00    +0.000 C 
ENDROOT
BRANCH   3  10
ATOM     10  C   UNL     1       3.118   4.735  18.719  0.00  0.00    +0.000 A 
ATOM     11  C   UNL     1       2.793   5.676  19.716  0.00  0.00    +0.000 A 
ATOM     12  C   UNL     1       1.772   5.439  20.641  0.00  0.00    +0.000 A 
ATOM     13  C   UNL     1       1.051   4.251  20.594  0.00  0.00    +0.000 A 
ATOM     14  C   UNL     1       1.349   3.298  19.624  0.00  0.00    +0.000 A 
ATOM     15  C   UNL     1       2.371   3.541  18.700  0.00  0.00    +0.000 A 
ENDBRANCH   3  10
BRANCH   1  16
ATOM     16  O   UNL     1       6.455   7.612  16.855  0.00  0.00    +0.000 OA
BRANCH  16  17
ATOM     17  C   UNL     1       7.621   7.643  17.684  0.00  0.00    +0.000 C 
BRANCH  17  18
ATOM     18  C   UNL     1       8.110   9.089  17.673  0.00  0.00    +0.000 C 
BRANCH  18  19
ATOM     19  C   UNL     1       8.942   9.484  18.899  0.00  0.00    +0.000 C 
BRANCH  19  20
ATOM     20  N   UNL     1       9.132  10.934  19.091  0.00  0.00    +0.000 NA
BRANCH  20  22
ATOM     21  C   UNL     1      10.360  12.058  21.000  0.00  0.00    +0.000 C 
ATOM     22  C   UNL     1      10.431  11.234  19.720  0.00  0.00    +0.000 C 
ENDBRANCH  20  22
BRANCH  20  23
ATOM     23  C   UNL     1       8.891  11.677  17.841  0.00  0.00    +0.000 C 
ATOM     24  C   UNL     1       9.746  12.925  17.609  0.00  0.00    +0.000 C 
ENDBRANCH  20  23
ENDBRANCH  19  20
ENDBRANCH  18  19
ENDBRANCH  17  18
ENDBRANCH  16  17
ENDBRANCH   1  16
TORSDOF 8
ENDMDL
MODEL 7
REMARK VINA RESULT:      -6.6      3.988      7.756
REMARK  Name = 
REMARK  10 active torsions:
REMARK  status: ('A' for Active; 'I' for Inactive)
REMARK    1  A    between atoms: C_1  and  C_2
REMARK    2  A    between atoms: C_2  and  N_3
REMARK    3  A    between atoms: N_3  and  C_4
REMARK    4  A    between atoms: N_3  and  C_6
REMARK    5  A    between atoms: C_4  and  C_5
REMARK    6  A    between atoms: C_6  and  C_7
REMARK    7  A    between atoms: C_7  and  C_8
REMARK    8  A    between atoms: C_8  and  O_9
REMARK    9  A    between atoms: O_9  and  C_10
REMARK   10  A    between atoms: C_12  and  C_13
REMARK                            x       y       z     vdW  Elec       q    Type
REMARK                         _______ _______ _______ _____ _____    ______ ____
ROOT
ATOM      1  C   UNL     1       6.479   5.413  17.942  0.00  0.00    +0.000 A 
ATOM      2  N   UNL     1       5.523   5.075  18.824  0.00  0.00    +0.000 NA
ATOM      3  C   UNL     1       4.544   4.249  18.379  0.00  0.00    +0.000 A 
ATOM      4  N   UNL     1       4.469   3.742  17.127  0.00  0.00    +0.000 NA
ATOM      5  C   UNL     1       5.444   4.132  16.302  0.00  0.00    +0.000 A 
ATOM      6  C   UNL     1       6.474   4.976  16.648  0.00  0.00    +0.000 A 
ATOM      7  C   UNL     1       7.428   5.185  15.536  0.00  0.00    +0.000 C 
ATOM      8  C   UNL     1       6.600   4.691  14.338  0.00  0.00    +0.000 C 
ATOM      9  C   UNL     1       5.592   3.666  14.882  0.00  0.00    +0.000 C 
ENDROOT
BRANCH   3  10
ATOM     10  C   UNL     1       3.463   3.893  19.322  0.00  0.00    +0.000 A 
ATOM     11  C   UNL     1       3.660   2.938  20.340  0.00  0.00    +0.000 A 
ATOM     12  C   UNL     1       2.644   2.613  21.245  0.00  0.00    +0.000 A 
ATOM     13  C   UNL     1       1.403   3.234  21.152  0.00  0.00    +0.000 A 
ATOM     14  C   UNL     1       1.174   4.179  20.156  0.00  0.00    +0.000 A 
ATOM     15  C   UNL     1       2.194   4.501  19.254  0.00  0.00    +0.000 A 
ENDBRANCH   3  10
BRANCH   1  16
ATOM     16  O   UNL     1       7.473   6.291  18.300  0.00  0.00    +0.000 OA
BRANCH  16  17
ATOM     17  C   UNL     1       7.412   7.548  17.618  0.00  0.00    +0.000 C 
BRANCH  17  18
ATOM     18  C   UNL     1       8.389   8.471  18.342  0.00  0.00    +0.000 C 
BRANCH  18  19
ATOM     19  C   UNL     1       8.242   9.954  17.981  0.00  0.00    +0.000 C 
BRANCH  19  20
ATOM     20  N   UNL     1       9.330  10.829  18.458  0.00  0.00    +0.000 NA
BRANCH  20  22
ATOM     21  C   UNL     1       7.935  12.626  17.346  0.00  0.00    +0.000 C 
ATOM     22  C   UNL     1       9.311  12.138  17.782  0.00  0.00    +0.000 C 
ENDBRANCH  20  22
BRANCH  20  23
ATOM     23  C   UNL     1       9.341  10.919  19.929  0.00  0.00    +0.000 C 
ATOM     24  C   UNL     1      10.551  11.608  20.565  0.00  0.00    +0.000 C 
ENDBRANCH  20  23
ENDBRANCH  19  20
ENDBRANCH  18  19
ENDBRANCH  17  18
ENDBRANCH  16  17
ENDBRANCH   1  16
TORSDOF 8
ENDMDL
MODEL 8
REMARK VINA RESULT:      -6.6      1.312      4.867
REMARK  Name = 
REMARK  10 active torsions:
REMARK  status: ('A' for Active; 'I' for Inactive)
REMARK    1  A    between atoms: C_1  and  C_2
REMARK    2  A    between atoms: C_2  and  N_3
REMARK    3  A    between atoms: N_3  and  C_4
REMARK    4  A    between atoms: N_3  and  C_6
REMARK    5  A    between atoms: C_4  and  C_5
REMARK    6  A    between atoms: C_6  and  C_7
REMARK    7  A    between atoms: C_7  and  C_8
REMARK    8  A    between atoms: C_8  and  O_9
REMARK    9  A    between atoms: O_9  and  C_10
REMARK   10  A    between atoms: C_12  and  C_13
REMARK                            x       y       z     vdW  Elec       q    Type
REMARK                         _______ _______ _______ _____ _____    ______ ____
ROOT
ATOM      1  C   UNL     1       5.034   4.827  18.527  0.00  0.00    +0.000 A 
ATOM      2  N   UNL     1       4.118   5.671  19.031  0.00  0.00    +0.000 NA
ATOM      3  C   UNL     1       3.653   6.637  18.202  0.00  0.00    +0.000 A 
ATOM      4  N   UNL     1       4.037   6.802  16.915  0.00  0.00    +0.000 NA
ATOM      5  C   UNL     1       4.960   5.938  16.487  0.00  0.00    +0.000 A 
ATOM      6  C   UNL     1       5.506   4.932  17.250  0.00  0.00    +0.000 A 
ATOM      7  C   UNL     1       6.467   4.104  16.486  0.00  0.00    +0.000 C 
ATOM      8  C   UNL     1       6.746   5.013  15.278  0.00  0.00    +0.000 C 
ATOM      9  C   UNL     1       5.506   5.901  15.088  0.00  0.00    +0.000 C 
ENDROOT
BRANCH   3  10
ATOM     10  C   UNL     1       2.671   7.598  18.747  0.00  0.00    +0.000 A 
ATOM     11  C   UNL     1       2.207   8.688  17.983  0.00  0.00    +0.000 A 
ATOM     12  C   UNL     1       1.263   9.587  18.490  0.00  0.00    +0.000 A 
ATOM     13  C   UNL     1       0.762   9.420  19.777  0.00  0.00    +0.000 A 
ATOM     14  C   UNL     1       1.203   8.356  20.559  0.00  0.00    +0.000 A 
ATOM     15  C   UNL     1       2.146   7.458  20.047  0.00  0.00    +0.000 A 
ENDBRANCH   3  10
BRANCH   1  16
ATOM     16  O   UNL     1       5.595   3.856  19.322  0.00  0.00    +0.000 OA
BRANCH  16  17
ATOM     17  C   UNL     1       4.639   3.057  20.025  0.00  0.00    +0.000 C 
BRANCH  17  18
ATOM     18  C   UNL     1       4.017   2.127  18.986  0.00  0.00    +0.000 C 
BRANCH  18  19
ATOM     19  C   UNL     1       2.606   1.641  19.337  0.00  0.00    +0.000 C 
BRANCH  19  20
ATOM     20  N   UNL     1       1.511   2.308  18.607  0.00  0.00    +0.000 NA
BRANCH  20  22
ATOM     21  C   UNL     1       1.163   3.716  20.683  0.00  0.00    +0.000 C 
ATOM     22  C   UNL     1       0.547   2.936  19.529  0.00  0.00    +0.000 C 
ENDBRANCH  20  22
BRANCH  20  23
ATOM     23  C   UNL     1       2.033   3.224  17.577  0.00  0.00    +0.000 C 
ATOM     24  C   UNL     1       1.197   4.472  17.283  0.00  0.00    +0.000 C 
ENDBRANCH  20  23
ENDBRANCH  19  20
ENDBRANCH  18  19
ENDBRANCH  17  18
ENDBRANCH  16  17
ENDBRANCH   1  16
TORSDOF 8
ENDMDL
MODEL 9
REMARK VINA RESULT:      -6.6      4.275      7.894
REMARK  Name = 
REMARK  10 active torsions:
REMARK  status: ('A' for Active; 'I' for Inactive)
REMARK    1  A    between atoms: C_1  and  C_2
REMARK    2  A    between atoms: C_2  and  N_3
REMARK    3  A    between atoms: N_3  and  C_4
REMARK    4  A    between atoms: N_3  and  C_6
REMARK    5  A    between atoms: C_4  and  C_5
REMARK    6  A    between atoms: C_6  and  C_7
REMARK    7  A    between atoms: C_7  and  C_8
REMARK    8  A    between atoms: C_8  and  O_9
REMARK    9  A    between atoms: O_9  and  C_10
REMARK   10  A    between atoms: C_12  and  C_13
REMARK                            x       y       z     vdW  Elec       q    Type
REMARK                         _______ _______ _______ _____ _____    ______ ____
ROOT
ATOM      1  C   UNL     1       6.648   5.890  16.756  0.00  0.00    +0.000 A 
ATOM      2  N   UNL     1       5.791   5.808  17.788  0.00  0.00    +0.000 NA
ATOM      3  C   UNL     1       4.787   4.904  17.679  0.00  0.00    +0.000 A 
ATOM      4  N   UNL     1       4.596   4.083  16.621  0.00  0.00    +0.000 NA
ATOM      5  C   UNL     1       5.476   4.230  15.628  0.00  0.00    +0.000 A 
ATOM      6  C   UNL     1       6.521   5.125  15.632  0.00  0.00    +0.000 A 
ATOM      7  C   UNL     1       7.355   5.022  14.414  0.00  0.00    +0.000 C 
ATOM      8  C   UNL     1       6.421   4.236  13.480  0.00  0.00    +0.000 C 
ATOM      9  C   UNL     1       5.490   3.403  14.375  0.00  0.00    +0.000 C 
ENDROOT
BRANCH   3  10
ATOM     10  C   UNL     1       3.812   4.821  18.788  0.00  0.00    +0.000 A 
ATOM     11  C   UNL     1       3.020   5.926  19.155  0.00  0.00    +0.000 A 
ATOM     12  C   UNL     1       2.084   5.844  20.190  0.00  0.00    +0.000 A 
ATOM     13  C   UNL     1       1.918   4.653  20.888  0.00  0.00    +0.000 A 
ATOM     14  C   UNL     1       2.688   3.542  20.553  0.00  0.00    +0.000 A 
ATOM     15  C   UNL     1       3.623   3.629  19.515  0.00  0.00    +0.000 A 
ENDBRANCH   3  10
BRANCH   1  16
ATOM     16  O   UNL     1       7.658   6.823  16.766  0.00  0.00    +0.000 OA
BRANCH  16  17
ATOM     17  C   UNL     1       7.851   7.456  18.035  0.00  0.00    +0.000 C 
BRANCH  17  18
ATOM     18  C   UNL     1       8.132   8.927  17.735  0.00  0.00    +0.000 C 
BRANCH  18  19
ATOM     19  C   UNL     1       8.918   9.655  18.833  0.00  0.00    +0.000 C 
BRANCH  19  20
ATOM     20  N   UNL     1       9.604  10.889  18.402  0.00  0.00    +0.000 NA
BRANCH  20  22
ATOM     21  C   UNL     1       8.831  13.298  18.299  0.00  0.00    +0.000 C 
ATOM     22  C   UNL     1       8.660  11.861  17.823  0.00  0.00    +0.000 C 
ENDBRANCH  20  22
BRANCH  20  23
ATOM     23  C   UNL     1      10.442  11.442  19.481  0.00  0.00    +0.000 C 
ATOM     24  C   UNL     1      11.942  11.551  19.196  0.00  0.00    +0.000 C 
ENDBRANCH  20  23
ENDBRANCH  19  20
ENDBRANCH  18  19
ENDBRANCH  17  18
ENDBRANCH  16  17
ENDBRANCH   1  16
TORSDOF 8
ENDMDL
