MODEL 1
REMARK VINA RESULT:      -7.4      0.000      0.000
REMARK  Name = 
REMARK  8 active torsions:
REMARK  status: ('A' for Active; 'I' for Inactive)
REMARK    1  A    between atoms: N_6  and  C_7
REMARK    2  A    between atoms: C_9  and  O_10
REMARK    3  A    between atoms: C_11  and  C_12
REMARK    4  A    between atoms: C_12  and  O_13
REMARK    5  A    between atoms: O_13  and  P_14
REMARK    6  A    between atoms: P_14  and  O_16
REMARK    7  A    between atoms: P_14  and  O_17
REMARK    8  A    between atoms: C_20  and  C_21
REMARK                            x       y       z     vdW  Elec       q    Type
REMARK                         _______ _______ _______ _____ _____    ______ ____
ROOT
ATOM      1  C   UNL     1       4.613   3.918  16.310  0.00  0.00    +0.000 C 
ATOM      2  C   UNL     1       4.965   4.986  15.272  0.00  0.00    +0.000 C 
ATOM      3  C   UNL     1       6.329   4.567  14.789  0.00  0.00    +0.000 C 
ATOM      4  C   UNL     1       6.961   3.999  16.052  0.00  0.00    +0.000 C 
ATOM      5  O   UNL     1       5.873   3.388  16.783  0.00  0.00    +0.000 OA
ENDROOT
BRANCH   1  11
ATOM      6  O   UNL     1       1.944   5.604  20.792  0.00  0.00    +0.000 OA
ATOM      7  C   UNL     1       2.461   5.252  19.735  0.00  0.00    +0.000 A 
ATOM      8  N   UNL     1       2.906   3.973  19.574  0.00  0.00    +0.000 N 
ATOM      9  C   UNL     1       3.669   3.509  18.542  0.00  0.00    +0.000 A 
ATOM     10  O   UNL     1       4.205   2.408  18.648  0.00  0.00    +0.000 OA
ATOM     11  N   UNL     1       3.782   4.349  17.443  0.00  0.00    +0.000 N 
ATOM     12  C   UNL     1       3.336   5.668  17.518  0.00  0.00    +0.000 A 
ATOM     13  C   UNL     1       2.692   6.166  18.586  0.00  0.00    +0.000 A 
ATOM     14  H   UNL     1       2.821   3.368  20.379  0.00  0.00    +0.000 HD
BRANCH  13  15
ATOM     15  C   UNL     1       2.288   7.532  18.640  0.00  0.00    +0.000 A 
ATOM     16  C   UNL     1       2.316   8.507  17.643  0.00  0.00    +0.000 A 
ATOM     17  C   UNL     1       1.772   9.701  18.170  0.00  0.00    +0.000 A 
ATOM     18  C   UNL     1       1.433   9.413  19.466  0.00  0.00    +0.000 A 
ATOM     19  O   UNL     1       1.750   8.130  19.766  0.00  0.00    +0.000 OA
ENDBRANCH  13  15
ENDBRANCH   1  11
BRANCH   3  20
ATOM     20  O   UNL     1       6.198   3.571  13.774  0.00  0.00    +0.000 OA
ATOM     21  H   UNL     1       6.630   3.888  12.960  0.00  0.00    +0.000 HD
ENDBRANCH   3  20
BRANCH   4  22
ATOM     22  C   UNL     1       7.602   5.105  16.894  0.00  0.00    +0.000 C 
BRANCH  22  23
ATOM     23  O   UNL     1       7.922   4.619  18.190  0.00  0.00    +0.000 OA
BRANCH  23  24
ATOM     24  P   UNL     1       7.537   5.589  19.401  0.00  0.00    +0.000 P 
ATOM     25  O   UNL     1       6.086   5.732  19.702  0.00  0.00    +0.000 OA
BRANCH  24  26
ATOM     26  O   UNL     1       8.462   5.123  20.609  0.00  0.00    +0.000 OA
ATOM     27  H   UNL     1       8.065   5.352  21.467  0.00  0.00    +0.000 HD
ENDBRANCH  24  26
BRANCH  24  28
ATOM     28  O   UNL     1       8.199   6.989  19.010  0.00  0.00    +0.000 OA
ATOM     29  H   UNL     1       8.559   7.413  19.813  0.00  0.00    +0.000 HD
ENDBRANCH  24  28
ENDBRANCH  23  24
ENDBRANCH  22  23
ENDBRANCH   4  22
TORSDOF 8
ENDMDL
MODEL 2
REMARK VINA RESULT:      -7.3      2.702      6.314
REMARK  Name = 
REMARK  8 active torsions:
REMARK  status: ('A' for Active; 'I' for Inactive)
REMARK    1  A    between atoms: N_6  and  C_7
REMARK    2  A    between atoms: C_9  and  O_10
REMARK    3  A    between atoms: C_11  and  C_12
REMARK    4  A    between atoms: C_12  and  O_13
REMARK    5  A    between atoms: O_13  and  P_14
REMARK    6  A    between atoms: P_14  and  O_16
REMARK    7  A    between atoms: P_14  and  O_17
REMARK    8  A    between atoms: C_20  and  C_21
REMARK                            x       y       z     vdW  Elec       q    Type
REMARK                         _______ _______ _______ _____ _____    ______ ____
ROOT
ATOM      1  C   UNL     1       2.880   3.714  17.773  0.00  0.00    +0.000 C 
ATOM      2  C   UNL     1       2.559   2.738  18.906  0.00  0.00    +0.000 C 
ATOM      3  C   UNL     1       1.223   3.216  19.412  0.00  0.00    +0.000 C 
ATOM      4  C   UNL     1       1.336   4.726  19.249  0.00  0.00    +0.000 C 
ATOM      5  O   UNL     1       2.143   4.924  18.065  0.00  0.00    +0.000 OA
ENDROOT
BRANCH   1  11
ATOM      6  O   UNL     1       8.266   4.363  16.981  0.00  0.00    +0.000 OA
ATOM      7  C   UNL     1       7.047   4.306  17.112  0.00  0.00    +0.000 A 
ATOM      8  N   UNL     1       6.488   4.183  18.350  0.00  0.00    +0.000 N 
ATOM      9  C   UNL     1       5.179   3.911  18.621  0.00  0.00    +0.000 A 
ATOM     10  O   UNL     1       4.864   3.582  19.763  0.00  0.00    +0.000 OA
ATOM     11  N   UNL     1       4.300   4.022  17.552  0.00  0.00    +0.000 N 
ATOM     12  C   UNL     1       4.788   4.167  16.254  0.00  0.00    +0.000 A 
ATOM     13  C   UNL     1       6.093   4.311  15.972  0.00  0.00    +0.000 A 
ATOM     14  H   UNL     1       7.134   4.103  19.124  0.00  0.00    +0.000 HD
BRANCH  13  15
ATOM     15  C   UNL     1       6.556   4.415  14.627  0.00  0.00    +0.000 A 
ATOM     16  C   UNL     1       6.144   3.723  13.489  0.00  0.00    +0.000 A 
ATOM     17  C   UNL     1       6.875   4.208  12.381  0.00  0.00    +0.000 A 
ATOM     18  C   UNL     1       7.706   5.176  12.881  0.00  0.00    +0.000 A 
ATOM     19  O   UNL     1       7.540   5.299  14.221  0.00  0.00    +0.000 OA
ENDBRANCH  13  15
ENDBRANCH   1  11
BRANCH   3  20
ATOM     20  O   UNL     1       0.177   2.678  18.602  0.00  0.00    +0.000 OA
ATOM     21  H   UNL     1      -0.653   3.144  18.803  0.00  0.00    +0.000 HD
ENDBRANCH   3  20
BRANCH   4  22
ATOM     22  C   UNL     1       2.019   5.362  20.462  0.00  0.00    +0.000 C 
BRANCH  22  23
ATOM     23  O   UNL     1       1.134   6.261  21.115  0.00  0.00    +0.000 OA
BRANCH  23  24
ATOM     24  P   UNL     1       1.314   7.803  20.730  0.00  0.00    +0.000 P 
ATOM     25  O   UNL     1       2.092   8.093  19.494  0.00  0.00    +0.000 OA
BRANCH  24  26
ATOM     26  O   UNL     1      -0.152   8.416  20.798  0.00  0.00    +0.000 OA
ATOM     27  H   UNL     1      -0.827   7.716  20.833  0.00  0.00    +0.000 HD
ENDBRANCH  24  26
BRANCH  24  28
ATOM     28  O   UNL     1       1.994   8.454  22.021  0.00  0.00    +0.000 OA
ATOM     29  H   UNL     1       2.526   7.778  22.483  0.00  0.00    +0.000 HD
ENDBRANCH  24  28
ENDBRANCH  23  24
ENDBRANCH  22  23
ENDBRANCH   4  22
TORSDOF 8
ENDMDL
MODEL 3
REMARK VINA RESULT:      -7.1      2.476      4.176
REMARK  Name = 
REMARK  8 active torsions:
REMARK  status: ('A' for Active; 'I' for Inactive)
REMARK    1  A    between atoms: N_6  and  C_7
REMARK    2  A    between atoms: C_9  and  O_10
REMARK    3  A    between atoms: C_11  and  C_12
REMARK    4  A    between atoms: C_12  and  O_13
REMARK    5  A    between atoms: O_13  and  P_14
REMARK    6  A    between atoms: P_14  and  O_16
REMARK    7  A    between atoms: P_14  and  O_17
REMARK    8  A    between atoms: C_20  and  C_21
REMARK                            x       y       z     vdW  Elec       q    Type
REMARK                         _______ _______ _______ _____ _____    ______ ____
ROOT
ATOM      1  C   UNL     1       3.592   5.387  19.383  0.00  0.00    +0.000 C 
ATOM      2  C   UNL     1       3.429   4.418  18.210  0.00  0.00    +0.000 C 
ATOM      3  C   UNL     1       4.669   3.565  18.287  0.00  0.00    +0.000 C 
ATOM      4  C   UNL     1       5.718   4.560  18.764  0.00  0.00    +0.000 C 
ATOM      5  O   UNL     1       5.013   5.469  19.641  0.00  0.00    +0.000 OA
ENDROOT
BRANCH   1  11
ATOM      6  O   UNL     1       1.096  10.184  18.484  0.00  0.00    +0.000 OA
ATOM      7  C   UNL     1       1.700   9.153  18.763  0.00  0.00    +0.000 A 
ATOM      8  N   UNL     1       2.508   8.553  17.842  0.00  0.00    +0.000 N 
ATOM      9  C   UNL     1       3.072   7.315  17.949  0.00  0.00    +0.000 A 
ATOM     10  O   UNL     1       3.566   6.798  16.950  0.00  0.00    +0.000 OA
ATOM     11  N   UNL     1       3.025   6.732  19.209  0.00  0.00    +0.000 N 
ATOM     12  C   UNL     1       2.238   7.292  20.213  0.00  0.00    +0.000 A 
ATOM     13  C   UNL     1       1.577   8.452  20.068  0.00  0.00    +0.000 A 
ATOM     14  H   UNL     1       2.536   8.982  16.928  0.00  0.00    +0.000 HD
BRANCH  13  15
ATOM     15  C   UNL     1       0.748   8.971  21.106  0.00  0.00    +0.000 A 
ATOM     16  C   UNL     1      -0.346   8.389  21.745  0.00  0.00    +0.000 A 
ATOM     17  C   UNL     1      -0.813   9.282  22.736  0.00  0.00    +0.000 A 
ATOM     18  C   UNL     1       0.011  10.375  22.667  0.00  0.00    +0.000 A 
ATOM     19  O   UNL     1       0.935  10.212  21.689  0.00  0.00    +0.000 OA
ENDBRANCH  13  15
ENDBRANCH   1  11
BRANCH   3  20
ATOM     20  O   UNL     1       4.476   2.513  19.232  0.00  0.00    +0.000 OA
ATOM     21  H   UNL     1       4.977   1.730  18.943  0.00  0.00    +0.000 HD
ENDBRANCH   3  20
BRANCH   4  22
ATOM     22  C   UNL     1       6.324   5.331  17.589  0.00  0.00    +0.000 C 
BRANCH  22  23
ATOM     23  O   UNL     1       6.861   4.431  16.629  0.00  0.00    +0.000 OA
BRANCH  23  24
ATOM     24  P   UNL     1       6.566   4.801  15.101  0.00  0.00    +0.000 P 
ATOM     25  O   UNL     1       6.152   3.678  14.215  0.00  0.00    +0.000 OA
BRANCH  24  26
ATOM     26  O   UNL     1       5.581   6.048  15.164  0.00  0.00    +0.000 OA
ATOM     27  H   UNL     1       5.208   6.249  14.287  0.00  0.00    +0.000 HD
ENDBRANCH  24  26
BRANCH  24  28
ATOM     28  O   UNL     1       7.918   5.485  14.594  0.00  0.00    +0.000 OA
ATOM     29  H   UNL     1       7.818   6.455  14.615  0.00  0.00    +0.000 HD
ENDBRANCH  24  28
ENDBRANCH  23  24
ENDBRANCH  22  23
ENDBRANCH   4  22
TORSDOF 8
ENDMDL
MODEL 4
REMARK VINA RESULT:      -7.1      2.665      5.950
REMARK  Name = 
REMARK  8 active torsions:
REMARK  status: ('A' for Active; 'I' for Inactive)
REMARK    1  A    between atoms: N_6  and  C_7
REMARK    2  A    between atoms: C_9  and  O_10
REMARK    3  A    between atoms: C_11  and  C_12
REMARK    4  A    between atoms: C_12  and  O_13
REMARK    5  A    between atoms: O_13  and  P_14
REMARK    6  A    between atoms: P_14  and  O_16
REMARK    7  A    between atoms: P_14  and  O_17
REMARK    8  A    between atoms: C_20  and  C_21
REMARK                            x       y       z     vdW  Elec       q    Type
REMARK                         _______ _______ _______ _____ _____    ______ ____
ROOT
ATOM      1  C   UNL     1       2.965   4.057  18.865  0.00  0.00    +0.000 C 
ATOM      2  C   UNL     1       3.021   3.984  20.392  0.00  0.00    +0.000 C 
ATOM      3  C   UNL     1       1.756   4.682  20.821  0.00  0.00    +0.000 C 
ATOM      4  C   UNL     1       1.613   5.772  19.768  0.00  0.00    +0.000 C 
ATOM      5  O   UNL     1       2.133   5.196  18.547  0.00  0.00    +0.000 OA
ENDROOT
BRANCH   1  11
ATOM      6  O   UNL     1       7.514   4.611  15.856  0.00  0.00    +0.000 OA
ATOM      7  C   UNL     1       6.554   4.489  16.611  0.00  0.00    +0.000 A 
ATOM      8  N   UNL     1       5.715   3.420  16.497  0.00  0.00    +0.000 N 
ATOM      9  C   UNL     1       4.515   3.266  17.128  0.00  0.00    +0.000 A 
ATOM     10  O   UNL     1       3.752   2.382  16.746  0.00  0.00    +0.000 OA
ATOM     11  N   UNL     1       4.254   4.153  18.163  0.00  0.00    +0.000 N 
ATOM     12  C   UNL     1       5.073   5.264  18.361  0.00  0.00    +0.000 A 
ATOM     13  C   UNL     1       6.193   5.485  17.654  0.00  0.00    +0.000 A 
ATOM     14  H   UNL     1       5.911   2.779  15.740  0.00  0.00    +0.000 HD
BRANCH  13  15
ATOM     15  C   UNL     1       6.982   6.655  17.858  0.00  0.00    +0.000 A 
ATOM     16  C   UNL     1       8.054   6.863  18.725  0.00  0.00    +0.000 A 
ATOM     17  C   UNL     1       8.535   8.179  18.535  0.00  0.00    +0.000 A 
ATOM     18  C   UNL     1       7.741   8.725  17.561  0.00  0.00    +0.000 A 
ATOM     19  O   UNL     1       6.800   7.836  17.160  0.00  0.00    +0.000 OA
ENDBRANCH  13  15
ENDBRANCH   1  11
BRANCH   3  20
ATOM     20  O   UNL     1       0.661   3.767  20.780  0.00  0.00    +0.000 OA
ATOM     21  H   UNL     1       0.034   4.051  20.091  0.00  0.00    +0.000 HD
ENDBRANCH   3  20
BRANCH   4  22
ATOM     22  C   UNL     1       2.424   7.015  20.146  0.00  0.00    +0.000 C 
BRANCH  22  23
ATOM     23  O   UNL     1       1.669   8.193  19.899  0.00  0.00    +0.000 OA
BRANCH  23  24
ATOM     24  P   UNL     1       0.939   8.821  21.176  0.00  0.00    +0.000 P 
ATOM     25  O   UNL     1      -0.410   8.283  21.501  0.00  0.00    +0.000 OA
BRANCH  24  26
ATOM     26  O   UNL     1       2.021   8.756  22.340  0.00  0.00    +0.000 OA
ATOM     27  H   UNL     1       2.581   9.552  22.348  0.00  0.00    +0.000 HD
ENDBRANCH  24  26
BRANCH  24  28
ATOM     28  O   UNL     1       0.891  10.389  20.870  0.00  0.00    +0.000 OA
ATOM     29  H   UNL     1       0.051  10.605  20.422  0.00  0.00    +0.000 HD
ENDBRANCH  24  28
ENDBRANCH  23  24
ENDBRANCH  22  23
ENDBRANCH   4  22
TORSDOF 8
ENDMDL
MODEL 5
REMARK VINA RESULT:      -7.1      2.702      6.005
REMARK  Name = 
REMARK  8 active torsions:
REMARK  status: ('A' for Active; 'I' for Inactive)
REMARK    1  A    between atoms: N_6  and  C_7
REMARK    2  A    between atoms: C_9  and  O_10
REMARK    3  A    between atoms: C_11  and  C_12
REMARK    4  A    between atoms: C_12  and  O_13
REMARK    5  A    between atoms: O_13  and  P_14
REMARK    6  A    between atoms: P_14  and  O_16
REMARK    7  A    between atoms: P_14  and  O_17
REMARK    8  A    between atoms: C_20  and  C_21
REMARK                            x       y       z     vdW  Elec       q    Type
REMARK                         _______ _______ _______ _____ _____    ______ ____
ROOT
ATOM      1  C   UNL     1       3.757   3.006  17.714  0.00  0.00    +0.000 C 
ATOM      2  C   UNL     1       3.707   2.705  19.214  0.00  0.00    +0.000 C 
ATOM      3  C   UNL     1       2.251   2.410  19.463  0.00  0.00    +0.000 C 
ATOM      4  C   UNL     1       1.557   3.365  18.502  0.00  0.00    +0.000 C 
ATOM      5  O   UNL     1       2.429   3.451  17.350  0.00  0.00    +0.000 OA
ENDROOT
BRANCH   1  11
ATOM      6  O   UNL     1       7.858   6.333  16.245  0.00  0.00    +0.000 OA
ATOM      7  C   UNL     1       6.884   5.633  16.504  0.00  0.00    +0.000 A 
ATOM      8  N   UNL     1       6.368   5.604  17.766  0.00  0.00    +0.000 N 
ATOM      9  C   UNL     1       5.428   4.733  18.233  0.00  0.00    +0.000 A 
ATOM     10  O   UNL     1       5.238   4.657  19.445  0.00  0.00    +0.000 OA
ATOM     11  N   UNL     1       4.762   3.983  17.272  0.00  0.00    +0.000 N 
ATOM     12  C   UNL     1       5.214   3.971  15.954  0.00  0.00    +0.000 A 
ATOM     13  C   UNL     1       6.225   4.738  15.516  0.00  0.00    +0.000 A 
ATOM     14  H   UNL     1       6.858   6.152  18.459  0.00  0.00    +0.000 HD
BRANCH  13  15
ATOM     15  C   UNL     1       6.684   4.666  14.168  0.00  0.00    +0.000 A 
ATOM     16  C   UNL     1       6.323   3.781  13.153  0.00  0.00    +0.000 A 
ATOM     17  C   UNL     1       7.025   4.137  11.978  0.00  0.00    +0.000 A 
ATOM     18  C   UNL     1       7.787   5.224  12.319  0.00  0.00    +0.000 A 
ATOM     19  O   UNL     1       7.609   5.540  13.625  0.00  0.00    +0.000 OA
ENDBRANCH  13  15
ENDBRANCH   1  11
BRANCH   3  20
ATOM     20  O   UNL     1       1.971   1.047  19.142  0.00  0.00    +0.000 OA
ATOM     21  H   UNL     1       1.043   0.971  18.856  0.00  0.00    +0.000 HD
ENDBRANCH   3  20
BRANCH   4  22
ATOM     22  C   UNL     1       1.381   4.749  19.130  0.00  0.00    +0.000 C 
BRANCH  22  23
ATOM     23  O   UNL     1       1.685   5.765  18.184  0.00  0.00    +0.000 OA
BRANCH  23  24
ATOM     24  P   UNL     1       2.450   7.041  18.769  0.00  0.00    +0.000 P 
ATOM     25  O   UNL     1       1.640   8.278  18.947  0.00  0.00    +0.000 OA
BRANCH  24  26
ATOM     26  O   UNL     1       3.210   6.507  20.061  0.00  0.00    +0.000 OA
ATOM     27  H   UNL     1       3.118   7.126  20.806  0.00  0.00    +0.000 HD
ENDBRANCH  24  26
BRANCH  24  28
ATOM     28  O   UNL     1       3.663   7.272  17.755  0.00  0.00    +0.000 OA
ATOM     29  H   UNL     1       3.939   8.208  17.788  0.00  0.00    +0.000 HD
ENDBRANCH  24  28
ENDBRANCH  23  24
ENDBRANCH  22  23
ENDBRANCH   4  22
TORSDOF 8
ENDMDL
MODEL 6
REMARK VINA RESULT:      -7.0      2.609      5.974
REMARK  Name = 
REMARK  8 active torsions:
REMARK  status: ('A' for Active; 'I' for Inactive)
REMARK    1  A    between atoms: N_6  and  C_7
REMARK    2  A    between atoms: C_9  and  O_10
REMARK    3  A    between atoms: C_11  and  C_12
REMARK    4  A    between atoms: C_12  and  O_13
REMARK    5  A    between atoms: O_13  and  P_14
REMARK    6  A    between atoms: P_14  and  O_16
REMARK    7  A    between atoms: P_14  and  O_17
REMARK    8  A    between atoms: C_20  and  C_21
REMARK                            x       y       z     vdW  Elec       q    Type
REMARK                         _______ _______ _______ _____ _____    ______ ____
ROOT
ATOM      1  C   UNL     1       3.179   2.702  17.655  0.00  0.00    +0.000 C 
ATOM      2  C   UNL     1       2.856   2.300  19.096  0.00  0.00    +0.000 C 
ATOM      3  C   UNL     1       1.353   2.401  19.158  0.00  0.00    +0.000 C 
ATOM      4  C   UNL     1       1.070   3.589  18.249  0.00  0.00    +0.000 C 
ATOM      5  O   UNL     1       2.077   3.527  17.212  0.00  0.00    +0.000 OA
ENDROOT
BRANCH   1  11
ATOM      6  O   UNL     1       8.171   4.837  16.901  0.00  0.00    +0.000 OA
ATOM      7  C   UNL     1       7.017   4.437  17.018  0.00  0.00    +0.000 A 
ATOM      8  N   UNL     1       6.483   4.218  18.254  0.00  0.00    +0.000 N 
ATOM      9  C   UNL     1       5.300   3.592  18.522  0.00  0.00    +0.000 A 
ATOM     10  O   UNL     1       5.062   3.240  19.675  0.00  0.00    +0.000 OA
ATOM     11  N   UNL     1       4.457   3.395  17.437  0.00  0.00    +0.000 N 
ATOM     12  C   UNL     1       4.918   3.613  16.140  0.00  0.00    +0.000 A 
ATOM     13  C   UNL     1       6.134   4.114  15.867  0.00  0.00    +0.000 A 
ATOM     14  H   UNL     1       7.103   4.363  19.039  0.00  0.00    +0.000 HD
BRANCH  13  15
ATOM     15  C   UNL     1       6.584   4.284  14.525  0.00  0.00    +0.000 A 
ATOM     16  C   UNL     1       6.182   3.627  13.363  0.00  0.00    +0.000 A 
ATOM     17  C   UNL     1       6.893   4.175  12.270  0.00  0.00    +0.000 A 
ATOM     18  C   UNL     1       7.702   5.143  12.804  0.00  0.00    +0.000 A 
ATOM     19  O   UNL     1       7.543   5.208  14.148  0.00  0.00    +0.000 OA
ENDBRANCH  13  15
ENDBRANCH   1  11
BRANCH   3  20
ATOM     20  O   UNL     1       0.766   1.202  18.652  0.00  0.00    +0.000 OA
ATOM     21  H   UNL     1       1.458   0.524  18.557  0.00  0.00    +0.000 HD
ENDBRANCH   3  20
BRANCH   4  22
ATOM     22  C   UNL     1       1.188   4.910  19.014  0.00  0.00    +0.000 C 
BRANCH  22  23
ATOM     23  O   UNL     1       1.670   5.937  18.159  0.00  0.00    +0.000 OA
BRANCH  23  24
ATOM     24  P   UNL     1       2.937   6.746  18.704  0.00  0.00    +0.000 P 
ATOM     25  O   UNL     1       4.075   6.914  17.759  0.00  0.00    +0.000 OA
BRANCH  24  26
ATOM     26  O   UNL     1       2.335   8.082  19.323  0.00  0.00    +0.000 OA
ATOM     27  H   UNL     1       3.038   8.714  19.553  0.00  0.00    +0.000 HD
ENDBRANCH  24  26
BRANCH  24  28
ATOM     28  O   UNL     1       3.375   5.952  20.020  0.00  0.00    +0.000 OA
ATOM     29  H   UNL     1       3.230   6.517  20.803  0.00  0.00    +0.000 HD
ENDBRANCH  24  28
ENDBRANCH  23  24
ENDBRANCH  22  23
ENDBRANCH   4  22
TORSDOF 8
ENDMDL
MODEL 7
REMARK VINA RESULT:      -7.0      2.544      4.547
REMARK  Name = 
REMARK  8 active torsions:
REMARK  status: ('A' for Active; 'I' for Inactive)
REMARK    1  A    between atoms: N_6  and  C_7
REMARK    2  A    between atoms: C_9  and  O_10
REMARK    3  A    between atoms: C_11  and  C_12
REMARK    4  A    between atoms: C_12  and  O_13
REMARK    5  A    between atoms: O_13  and  P_14
REMARK    6  A    between atoms: P_14  and  O_16
REMARK    7  A    between atoms: P_14  and  O_17
REMARK    8  A    between atoms: C_20  and  C_21
REMARK                            x       y       z     vdW  Elec       q    Type
REMARK                         _______ _______ _______ _____ _____    ______ ____
ROOT
ATOM      1  C   UNL     1       2.528   5.563  20.009  0.00  0.00    +0.000 C 
ATOM      2  C   UNL     1       1.870   4.517  19.106  0.00  0.00    +0.000 C 
ATOM      3  C   UNL     1       2.894   3.414  19.045  0.00  0.00    +0.000 C 
ATOM      4  C   UNL     1       4.206   4.186  19.072  0.00  0.00    +0.000 C 
ATOM      5  O   UNL     1       3.953   5.340  19.907  0.00  0.00    +0.000 OA
ENDROOT
BRANCH   1  11
ATOM      6  O   UNL     1       0.929  10.643  18.710  0.00  0.00    +0.000 OA
ATOM      7  C   UNL     1       1.337   9.546  19.078  0.00  0.00    +0.000 A 
ATOM      8  N   UNL     1       2.055   8.754  18.230  0.00  0.00    +0.000 N 
ATOM      9  C   UNL     1       2.393   7.449  18.438  0.00  0.00    +0.000 A 
ATOM     10  O   UNL     1       2.819   6.787  17.493  0.00  0.00    +0.000 OA
ATOM     11  N   UNL     1       2.208   6.970  19.728  0.00  0.00    +0.000 N 
ATOM     12  C   UNL     1       1.500   7.724  20.663  0.00  0.00    +0.000 A 
ATOM     13  C   UNL     1       1.056   8.967  20.418  0.00  0.00    +0.000 A 
ATOM     14  H   UNL     1       2.185   9.109  17.293  0.00  0.00    +0.000 HD
BRANCH  13  15
ATOM     15  C   UNL     1       0.299   9.690  21.387  0.00  0.00    +0.000 A 
ATOM     16  C   UNL     1      -0.356   9.229  22.528  0.00  0.00    +0.000 A 
ATOM     17  C   UNL     1      -0.934  10.335  23.191  0.00  0.00    +0.000 A 
ATOM     18  C   UNL     1      -0.612  11.430  22.432  0.00  0.00    +0.000 A 
ATOM     19  O   UNL     1       0.107  11.060  21.344  0.00  0.00    +0.000 OA
ENDBRANCH  13  15
ENDBRANCH   1  11
BRANCH   3  20
ATOM     20  O   UNL     1       2.761   2.566  20.187  0.00  0.00    +0.000 OA
ATOM     21  H   UNL     1       3.339   2.896  20.897  0.00  0.00    +0.000 HD
ENDBRANCH   3  20
BRANCH   4  22
ATOM     22  C   UNL     1       4.610   4.636  17.666  0.00  0.00    +0.000 C 
BRANCH  22  23
ATOM     23  O   UNL     1       5.900   5.231  17.688  0.00  0.00    +0.000 OA
BRANCH  23  24
ATOM     24  P   UNL     1       6.905   4.734  16.548  0.00  0.00    +0.000 P 
ATOM     25  O   UNL     1       6.358   3.768  15.555  0.00  0.00    +0.000 OA
BRANCH  24  26
ATOM     26  O   UNL     1       7.544   6.064  15.955  0.00  0.00    +0.000 OA
ATOM     27  H   UNL     1       7.242   6.227  15.044  0.00  0.00    +0.000 HD
ENDBRANCH  24  26
BRANCH  24  28
ATOM     28  O   UNL     1       8.139   4.116  17.353  0.00  0.00    +0.000 OA
ATOM     29  H   UNL     1       7.998   3.158  17.477  0.00  0.00    +0.000 HD
ENDBRANCH  24  28
ENDBRANCH  23  24
ENDBRANCH  22  23
ENDBRANCH   4  22
TORSDOF 8
ENDMDL
MODEL 8
REMARK VINA RESULT:      -7.0      2.333      3.542
REMARK  Name = 
REMARK  8 active torsions:
REMARK  status: ('A' for Active; 'I' for Inactive)
REMARK    1  A    between atoms: N_6  and  C_7
REMARK    2  A    between atoms: C_9  and  O_10
REMARK    3  A    between atoms: C_11  and  C_12
REMARK    4  A    between atoms: C_12  and  O_13
REMARK    5  A    between atoms: O_13  and  P_14
REMARK    6  A    between atoms: P_14  and  O_16
REMARK    7  A    between atoms: P_14  and  O_17
REMARK    8  A    between atoms: C_20  and  C_21
REMARK                            x       y       z     vdW  Elec       q    Type
REMARK                         _______ _______ _______ _____ _____    ______ ____
ROOT
ATOM      1  C   UNL     1       4.674   6.599  17.186  0.00  0.00    +0.000 C 
ATOM      2  C   UNL     1       6.045   6.231  17.757  0.00  0.00    +0.000 C 
ATOM      3  C   UNL     1       6.599   5.267  16.740  0.00  0.00    +0.000 C 
ATOM      4  C   UNL     1       5.352   4.521  16.285  0.00  0.00    +0.000 C 
ATOM      5  O   UNL     1       4.284   5.496  16.336  0.00  0.00    +0.000 OA
ENDROOT
BRANCH   1  11
ATOM      6  O   UNL     1       1.071   7.935  21.096  0.00  0.00    +0.000 OA
ATOM      7  C   UNL     1       1.800   7.629  20.158  0.00  0.00    +0.000 A 
ATOM      8  N   UNL     1       2.616   6.539  20.241  0.00  0.00    +0.000 N 
ATOM      9  C   UNL     1       3.608   6.205  19.366  0.00  0.00    +0.000 A 
ATOM     10  O   UNL     1       4.423   5.344  19.692  0.00  0.00    +0.000 OA
ATOM     11  N   UNL     1       3.613   6.894  18.160  0.00  0.00    +0.000 N 
ATOM     12  C   UNL     1       2.797   8.010  17.985  0.00  0.00    +0.000 A 
ATOM     13  C   UNL     1       1.903   8.417  18.901  0.00  0.00    +0.000 A 
ATOM     14  H   UNL     1       2.607   6.043  21.122  0.00  0.00    +0.000 HD
BRANCH  13  15
ATOM     15  C   UNL     1       1.114   9.588  18.702  0.00  0.00    +0.000 A 
ATOM     16  C   UNL     1      -0.102   9.738  18.037  0.00  0.00    +0.000 A 
ATOM     17  C   UNL     1      -0.507  11.088  18.144  0.00  0.00    +0.000 A 
ATOM     18  C   UNL     1       0.475  11.713  18.867  0.00  0.00    +0.000 A 
ATOM     19  O   UNL     1       1.457  10.836  19.192  0.00  0.00    +0.000 OA
ENDBRANCH  13  15
ENDBRANCH   1  11
BRANCH   3  20
ATOM     20  O   UNL     1       7.199   5.990  15.664  0.00  0.00    +0.000 OA
ATOM     21  H   UNL     1       6.989   6.936  15.761  0.00  0.00    +0.000 HD
ENDBRANCH   3  20
BRANCH   4  22
ATOM     22  C   UNL     1       5.038   3.350  17.220  0.00  0.00    +0.000 C 
BRANCH  22  23
ATOM     23  O   UNL     1       3.633   3.169  17.331  0.00  0.00    +0.000 OA
BRANCH  23  24
ATOM     24  P   UNL     1       3.163   2.116  18.440  0.00  0.00    +0.000 P 
ATOM     25  O   UNL     1       1.694   1.935  18.603  0.00  0.00    +0.000 OA
BRANCH  24  26
ATOM     26  O   UNL     1       4.004   0.800  18.139  0.00  0.00    +0.000 OA
ATOM     27  H   UNL     1       3.722   0.383  17.306  0.00  0.00    +0.000 HD
ENDBRANCH  24  26
BRANCH  24  28
ATOM     28  O   UNL     1       3.847   2.633  19.789  0.00  0.00    +0.000 OA
ATOM     29  H   UNL     1       4.740   2.247  19.868  0.00  0.00    +0.000 HD
ENDBRANCH  24  28
ENDBRANCH  23  24
ENDBRANCH  22  23
ENDBRANCH   4  22
TORSDOF 8
ENDMDL
MODEL 9
REMARK VINA RESULT:      -6.9      2.591      5.905
REMARK  Name = 
REMARK  8 active torsions:
REMARK  status: ('A' for Active; 'I' for Inactive)
REMARK    1  A    between atoms: N_6  and  C_7
REMARK    2  A    between atoms: C_9  and  O_10
REMARK    3  A    between atoms: C_11  and  C_12
REMARK    4  A    between atoms: C_12  and  O_13
REMARK    5  A    between atoms: O_13  and  P_14
REMARK    6  A    between atoms: P_14  and  O_16
REMARK    7  A    between atoms: P_14  and  O_17
REMARK    8  A    between atoms: C_20  and  C_21
REMARK                            x       y       z     vdW  Elec       q    Type
REMARK                         _______ _______ _______ _____ _____    ______ ____
ROOT
ATOM      1  C   UNL     1       3.040   4.354  18.761  0.00  0.00    +0.000 C 
ATOM      2  C   UNL     1       2.971   4.493  20.283  0.00  0.00    +0.000 C 
ATOM      3  C   UNL     1       1.659   5.199  20.510  0.00  0.00    +0.000 C 
ATOM      4  C   UNL     1       1.579   6.130  19.307  0.00  0.00    +0.000 C 
ATOM      5  O   UNL     1       2.210   5.410  18.223  0.00  0.00    +0.000 OA
ENDROOT
BRANCH   1  11
ATOM      6  O   UNL     1       7.812   4.685  16.082  0.00  0.00    +0.000 OA
ATOM      7  C   UNL     1       6.796   4.619  16.767  0.00  0.00    +0.000 A 
ATOM      8  N   UNL     1       5.959   3.547  16.662  0.00  0.00    +0.000 N 
ATOM      9  C   UNL     1       4.713   3.440  17.207  0.00  0.00    +0.000 A 
ATOM     10  O   UNL     1       3.974   2.534  16.830  0.00  0.00    +0.000 OA
ATOM     11  N   UNL     1       4.379   4.398  18.156  0.00  0.00    +0.000 N 
ATOM     12  C   UNL     1       5.190   5.517  18.339  0.00  0.00    +0.000 A 
ATOM     13  C   UNL     1       6.363   5.686  17.708  0.00  0.00    +0.000 A 
ATOM     14  H   UNL     1       6.207   2.854  15.969  0.00  0.00    +0.000 HD
BRANCH  13  15
ATOM     15  C   UNL     1       7.144   6.865  17.892  0.00  0.00    +0.000 A 
ATOM     16  C   UNL     1       8.188   7.109  18.782  0.00  0.00    +0.000 A 
ATOM     17  C   UNL     1       8.673   8.418  18.557  0.00  0.00    +0.000 A 
ATOM     18  C   UNL     1       7.908   8.924  17.539  0.00  0.00    +0.000 A 
ATOM     19  O   UNL     1       6.981   8.017  17.144  0.00  0.00    +0.000 OA
ENDBRANCH  13  15
ENDBRANCH   1  11
BRANCH   3  20
ATOM     20  O   UNL     1       0.592   4.250  20.510  0.00  0.00    +0.000 OA
ATOM     21  H   UNL     1      -0.166   4.624  20.028  0.00  0.00    +0.000 HD
ENDBRANCH   3  20
BRANCH   4  22
ATOM     22  C   UNL     1       2.326   7.439  19.572  0.00  0.00    +0.000 C 
BRANCH  22  23
ATOM     23  O   UNL     1       2.422   8.205  18.379  0.00  0.00    +0.000 OA
BRANCH  23  24
ATOM     24  P   UNL     1       1.383   9.414  18.255  0.00  0.00    +0.000 P 
ATOM     25  O   UNL     1       0.113   9.127  17.531  0.00  0.00    +0.000 OA
BRANCH  24  26
ATOM     26  O   UNL     1       1.236   9.983  19.733  0.00  0.00    +0.000 OA
ATOM     27  H   UNL     1       2.029   9.794  20.265  0.00  0.00    +0.000 HD
ENDBRANCH  24  26
BRANCH  24  28
ATOM     28  O   UNL     1       2.216  10.578  17.544  0.00  0.00    +0.000 OA
ATOM     29  H   UNL     1       3.131  10.274  17.392  0.00  0.00    +0.000 HD
ENDBRANCH  24  28
ENDBRANCH  23  24
ENDBRANCH  22  23
ENDBRANCH   4  22
TORSDOF 8
ENDMDL
