MODEL 1
REMARK VINA RESULT:      -7.1      0.000      0.000
REMARK  Name = 
REMARK  7 active torsions:
REMARK  status: ('A' for Active; 'I' for Inactive)
REMARK    1  A    between atoms: C_1  and  C_2
REMARK    2  A    between atoms: C_2  and  O_3
REMARK    3  A    between atoms: O_3  and  C_4
REMARK    4  A    between atoms: C_4  and  C_6
REMARK    5  A    between atoms: C_7  and  C_8
REMARK    6  A    between atoms: C_11  and  O_12
REMARK    7  A    between atoms: O_12  and  C_13
REMARK                            x       y       z     vdW  Elec       q    Type
REMARK                         _______ _______ _______ _____ _____    ______ ____
ROOT
ATOM      1  C   UNL     1       3.685   4.901  19.026  0.00  0.00    +0.000 C 
ATOM      2  C   UNL     1       4.012   5.653  17.948  0.00  0.00    +0.000 C 
ATOM      3  C   UNL     1       3.524   7.060  17.817  0.00  0.00    +0.000 C 
ATOM      4  O   UNL     1       3.893   7.791  16.904  0.00  0.00    +0.000 OA
ATOM      5  C   UNL     1       2.556   7.566  18.805  0.00  0.00    +0.000 A 
ATOM      6  C   UNL     1       1.960   8.822  18.626  0.00  0.00    +0.000 A 
ATOM      7  C   UNL     1       1.030   9.296  19.557  0.00  0.00    +0.000 A 
ATOM      8  C   UNL     1       0.704   8.526  20.671  0.00  0.00    +0.000 A 
ATOM      9  C   UNL     1       1.300   7.279  20.849  0.00  0.00    +0.000 A 
ATOM     10  C   UNL     1       2.227   6.798  19.910  0.00  0.00    +0.000 A 
ATOM     11  C   UNL     1       2.821   5.469  20.102  0.00  0.00    +0.000 C 
ATOM     12  O   UNL     1       2.532   4.854  21.122  0.00  0.00    +0.000 OA
ENDROOT
BRANCH   2  13
ATOM     13  C   UNL     1       4.851   5.125  16.848  0.00  0.00    +0.000 A 
ATOM     14  C   UNL     1       6.224   5.410  16.812  0.00  0.00    +0.000 A 
ATOM     15  C   UNL     1       6.989   5.035  15.706  0.00  0.00    +0.000 A 
ATOM     16  C   UNL     1       6.409   4.336  14.647  0.00  0.00    +0.000 A 
ATOM     17  C   UNL     1       5.051   4.018  14.695  0.00  0.00    +0.000 A 
ATOM     18  C   UNL     1       4.275   4.411  15.793  0.00  0.00    +0.000 A 
BRANCH  16  19
ATOM     19  O   UNL     1       7.250   4.065  13.603  0.00  0.00    +0.000 OA
ATOM     20  C   UNL     1       6.623   3.625  12.405  0.00  0.00    +0.000 C 
ENDBRANCH  16  19
ENDBRANCH   2  13
BRANCH   1  21
ATOM     21  C   UNL     1       4.091   3.467  19.106  0.00  0.00    +0.000 C 
ATOM     22  O   UNL     1       5.103   3.062  19.660  0.00  0.00    +0.000 OA
BRANCH  21  23
ATOM     23  O   UNL     1       3.261   2.681  18.378  0.00  0.00    +0.000 OA
BRANCH  23  25
ATOM     24  C   UNL     1       0.897   2.497  18.838  0.00  0.00    +0.000 C 
ATOM     25  C   UNL     1       2.287   1.963  19.152  0.00  0.00    +0.000 C 
ENDBRANCH  23  25
ENDBRANCH  21  23
ENDBRANCH   1  21
TORSDOF 5
ENDMDL
MODEL 2
REMARK VINA RESULT:      -6.8      0.278      1.003
REMARK  Name = 
REMARK  7 active torsions:
REMARK  status: ('A' for Active; 'I' for Inactive)
REMARK    1  A    between atoms: C_1  and  C_2
REMARK    2  A    between atoms: C_2  and  O_3
REMARK    3  A    between atoms: O_3  and  C_4
REMARK    4  A    between atoms: C_4  and  C_6
REMARK    5  A    between atoms: C_7  and  C_8
REMARK    6  A    between atoms: C_11  and  O_12
REMARK    7  A    between atoms: O_12  and  C_13
REMARK                            x       y       z     vdW  Elec       q    Type
REMARK                         _______ _______ _______ _____ _____    ______ ____
ROOT
ATOM      1  C   UNL     1       3.743   5.086  18.955  0.00  0.00    +0.000 C 
ATOM      2  C   UNL     1       4.011   5.918  17.920  0.00  0.00    +0.000 C 
ATOM      3  C   UNL     1       3.433   7.297  17.874  0.00  0.00    +0.000 C 
ATOM      4  O   UNL     1       3.746   8.101  17.003  0.00  0.00    +0.000 OA
ATOM      5  C   UNL     1       2.445   7.681  18.896  0.00  0.00    +0.000 A 
ATOM      6  C   UNL     1       1.769   8.906  18.794  0.00  0.00    +0.000 A 
ATOM      7  C   UNL     1       0.821   9.264  19.758  0.00  0.00    +0.000 A 
ATOM      8  C   UNL     1       0.555   8.412  20.827  0.00  0.00    +0.000 A 
ATOM      9  C   UNL     1       1.231   7.198  20.928  0.00  0.00    +0.000 A 
ATOM     10  C   UNL     1       2.177   6.832  19.957  0.00  0.00    +0.000 A 
ATOM     11  C   UNL     1       2.856   5.535  20.067  0.00  0.00    +0.000 C 
ATOM     12  O   UNL     1       2.617   4.845  21.052  0.00  0.00    +0.000 OA
ENDROOT
BRANCH   2  13
ATOM     13  C   UNL     1       4.870   5.510  16.785  0.00  0.00    +0.000 A 
ATOM     14  C   UNL     1       4.310   4.853  15.681  0.00  0.00    +0.000 A 
ATOM     15  C   UNL     1       5.136   4.342  14.676  0.00  0.00    +0.000 A 
ATOM     16  C   UNL     1       6.519   4.517  14.739  0.00  0.00    +0.000 A 
ATOM     17  C   UNL     1       7.077   5.203  15.818  0.00  0.00    +0.000 A 
ATOM     18  C   UNL     1       6.255   5.699  16.838  0.00  0.00    +0.000 A 
BRANCH  16  19
ATOM     19  O   UNL     1       7.222   3.933  13.721  0.00  0.00    +0.000 OA
ATOM     20  C   UNL     1       6.456   3.547  12.586  0.00  0.00    +0.000 C 
ENDBRANCH  16  19
ENDBRANCH   2  13
BRANCH   1  21
ATOM     21  C   UNL     1       4.241   3.679  18.949  0.00  0.00    +0.000 C 
ATOM     22  O   UNL     1       5.284   3.309  19.466  0.00  0.00    +0.000 OA
BRANCH  21  23
ATOM     23  O   UNL     1       3.450   2.883  18.187  0.00  0.00    +0.000 OA
BRANCH  23  25
ATOM     24  C   UNL     1       1.149   2.398  18.738  0.00  0.00    +0.000 C 
ATOM     25  C   UNL     1       2.603   1.994  18.933  0.00  0.00    +0.000 C 
ENDBRANCH  23  25
ENDBRANCH  21  23
ENDBRANCH   1  21
TORSDOF 5
ENDMDL
MODEL 3
REMARK VINA RESULT:      -6.6      1.577      2.495
REMARK  Name = 
REMARK  7 active torsions:
REMARK  status: ('A' for Active; 'I' for Inactive)
REMARK    1  A    between atoms: C_1  and  C_2
REMARK    2  A    between atoms: C_2  and  O_3
REMARK    3  A    between atoms: O_3  and  C_4
REMARK    4  A    between atoms: C_4  and  C_6
REMARK    5  A    between atoms: C_7  and  C_8
REMARK    6  A    between atoms: C_11  and  O_12
REMARK    7  A    between atoms: O_12  and  C_13
REMARK                            x       y       z     vdW  Elec       q    Type
REMARK                         _______ _______ _______ _____ _____    ______ ____
ROOT
ATOM      1  C   UNL     1       1.957   6.632  20.104  0.00  0.00    +0.000 C 
ATOM      2  C   UNL     1       2.562   6.890  18.920  0.00  0.00    +0.000 C 
ATOM      3  C   UNL     1       2.433   8.229  18.268  0.00  0.00    +0.000 C 
ATOM      4  O   UNL     1       3.057   8.518  17.252  0.00  0.00    +0.000 OA
ATOM      5  C   UNL     1       1.511   9.215  18.858  0.00  0.00    +0.000 A 
ATOM      6  C   UNL     1       1.248  10.419  18.190  0.00  0.00    +0.000 A 
ATOM      7  C   UNL     1       0.363  11.349  18.744  0.00  0.00    +0.000 A 
ATOM      8  C   UNL     1      -0.250  11.086  19.967  0.00  0.00    +0.000 A 
ATOM      9  C   UNL     1       0.016   9.891  20.631  0.00  0.00    +0.000 A 
ATOM     10  C   UNL     1       0.899   8.952  20.073  0.00  0.00    +0.000 A 
ATOM     11  C   UNL     1       1.141   7.686  20.775  0.00  0.00    +0.000 C 
ATOM     12  O   UNL     1       0.611   7.526  21.869  0.00  0.00    +0.000 OA
ENDROOT
BRANCH   2  13
ATOM     13  C   UNL     1       3.365   5.869  18.209  0.00  0.00    +0.000 A 
ATOM     14  C   UNL     1       4.760   5.991  18.147  0.00  0.00    +0.000 A 
ATOM     15  C   UNL     1       5.507   5.110  17.361  0.00  0.00    +0.000 A 
ATOM     16  C   UNL     1       4.880   4.076  16.666  0.00  0.00    +0.000 A 
ATOM     17  C   UNL     1       3.495   3.928  16.755  0.00  0.00    +0.000 A 
ATOM     18  C   UNL     1       2.740   4.821  17.525  0.00  0.00    +0.000 A 
BRANCH  16  19
ATOM     19  O   UNL     1       5.712   3.309  15.896  0.00  0.00    +0.000 OA
ATOM     20  C   UNL     1       6.394   3.997  14.855  0.00  0.00    +0.000 C 
ENDBRANCH  16  19
ENDBRANCH   2  13
BRANCH   1  21
ATOM     21  C   UNL     1       2.006   5.265  20.703  0.00  0.00    +0.000 C 
ATOM     22  O   UNL     1       2.959   4.811  21.319  0.00  0.00    +0.000 OA
BRANCH  21  23
ATOM     23  O   UNL     1       0.908   4.544  20.369  0.00  0.00    +0.000 OA
BRANCH  23  25
ATOM     24  C   UNL     1       0.651   2.491  19.122  0.00  0.00    +0.000 C 
ATOM     25  C   UNL     1       1.086   3.120  20.438  0.00  0.00    +0.000 C 
ENDBRANCH  23  25
ENDBRANCH  21  23
ENDBRANCH   1  21
TORSDOF 5
ENDMDL
MODEL 4
REMARK VINA RESULT:      -6.6      3.085      7.814
REMARK  Name = 
REMARK  7 active torsions:
REMARK  status: ('A' for Active; 'I' for Inactive)
REMARK    1  A    between atoms: C_1  and  C_2
REMARK    2  A    between atoms: C_2  and  O_3
REMARK    3  A    between atoms: O_3  and  C_4
REMARK    4  A    between atoms: C_4  and  C_6
REMARK    5  A    between atoms: C_7  and  C_8
REMARK    6  A    between atoms: C_11  and  O_12
REMARK    7  A    between atoms: O_12  and  C_13
REMARK                            x       y       z     vdW  Elec       q    Type
REMARK                         _______ _______ _______ _____ _____    ______ ____
ROOT
ATOM      1  C   UNL     1       1.113   8.030  20.303  0.00  0.00    +0.000 C 
ATOM      2  C   UNL     1       1.259   8.956  19.325  0.00  0.00    +0.000 C 
ATOM      3  C   UNL     1       2.180   8.716  18.173  0.00  0.00    +0.000 C 
ATOM      4  O   UNL     1       2.248   9.492  17.225  0.00  0.00    +0.000 OA
ATOM      5  C   UNL     1       3.043   7.523  18.196  0.00  0.00    +0.000 A 
ATOM      6  C   UNL     1       4.026   7.348  17.212  0.00  0.00    +0.000 A 
ATOM      7  C   UNL     1       4.854   6.220  17.243  0.00  0.00    +0.000 A 
ATOM      8  C   UNL     1       4.695   5.264  18.242  0.00  0.00    +0.000 A 
ATOM      9  C   UNL     1       3.714   5.439  19.216  0.00  0.00    +0.000 A 
ATOM     10  C   UNL     1       2.888   6.573  19.193  0.00  0.00    +0.000 A 
ATOM     11  C   UNL     1       1.881   6.752  20.246  0.00  0.00    +0.000 C 
ATOM     12  O   UNL     1       1.754   5.858  21.075  0.00  0.00    +0.000 OA
ENDROOT
BRANCH   2  13
ATOM     13  C   UNL     1       0.531  10.246  19.350  0.00  0.00    +0.000 A 
ATOM     14  C   UNL     1       1.165  11.401  19.828  0.00  0.00    +0.000 A 
ATOM     15  C   UNL     1       0.440  12.585  19.985  0.00  0.00    +0.000 A 
ATOM     16  C   UNL     1      -0.907  12.643  19.626  0.00  0.00    +0.000 A 
ATOM     17  C   UNL     1      -1.533  11.505  19.115  0.00  0.00    +0.000 A 
ATOM     18  C   UNL     1      -0.815  10.310  18.976  0.00  0.00    +0.000 A 
BRANCH  16  19
ATOM     19  O   UNL     1      -1.519  13.843  19.869  0.00  0.00    +0.000 OA
ATOM     20  C   UNL     1      -2.364  13.883  21.012  0.00  0.00    +0.000 C 
ENDBRANCH  16  19
ENDBRANCH   2  13
BRANCH   1  21
ATOM     21  C   UNL     1       0.268   8.314  21.501  0.00  0.00    +0.000 C 
ATOM     22  O   UNL     1      -0.888   7.945  21.638  0.00  0.00    +0.000 OA
BRANCH  21  23
ATOM     23  O   UNL     1       0.906   9.141  22.365  0.00  0.00    +0.000 OA
BRANCH  23  25
ATOM     24  C   UNL     1      -0.763  10.778  22.974  0.00  0.00    +0.000 C 
ATOM     25  C   UNL     1       0.092   9.612  23.451  0.00  0.00    +0.000 C 
ENDBRANCH  23  25
ENDBRANCH  21  23
ENDBRANCH   1  21
TORSDOF 5
ENDMDL
MODEL 5
REMARK VINA RESULT:      -6.5      2.992      7.705
REMARK  Name = 
REMARK  7 active torsions:
REMARK  status: ('A' for Active; 'I' for Inactive)
REMARK    1  A    between atoms: C_1  and  C_2
REMARK    2  A    between atoms: C_2  and  O_3
REMARK    3  A    between atoms: O_3  and  C_4
REMARK    4  A    between atoms: C_4  and  C_6
REMARK    5  A    between atoms: C_7  and  C_8
REMARK    6  A    between atoms: C_11  and  O_12
REMARK    7  A    between atoms: O_12  and  C_13
REMARK                            x       y       z     vdW  Elec       q    Type
REMARK                         _______ _______ _______ _____ _____    ______ ____
ROOT
ATOM      1  C   UNL     1       1.193   7.929  20.287  0.00  0.00    +0.000 C 
ATOM      2  C   UNL     1       1.367   8.870  19.328  0.00  0.00    +0.000 C 
ATOM      3  C   UNL     1       2.279   8.625  18.169  0.00  0.00    +0.000 C 
ATOM      4  O   UNL     1       2.370   9.417  17.238  0.00  0.00    +0.000 OA
ATOM      5  C   UNL     1       3.104   7.404  18.167  0.00  0.00    +0.000 A 
ATOM      6  C   UNL     1       4.080   7.218  17.178  0.00  0.00    +0.000 A 
ATOM      7  C   UNL     1       4.872   6.065  17.185  0.00  0.00    +0.000 A 
ATOM      8  C   UNL     1       4.684   5.094  18.165  0.00  0.00    +0.000 A 
ATOM      9  C   UNL     1       3.710   5.279  19.144  0.00  0.00    +0.000 A 
ATOM     10  C   UNL     1       2.920   6.440  19.145  0.00  0.00    +0.000 A 
ATOM     11  C   UNL     1       1.920   6.629  20.203  0.00  0.00    +0.000 C 
ATOM     12  O   UNL     1       1.766   5.723  21.014  0.00  0.00    +0.000 OA
ENDROOT
BRANCH   2  13
ATOM     13  C   UNL     1       0.680  10.181  19.380  0.00  0.00    +0.000 A 
ATOM     14  C   UNL     1      -0.623  10.312  18.880  0.00  0.00    +0.000 A 
ATOM     15  C   UNL     1      -1.219  11.572  18.797  0.00  0.00    +0.000 A 
ATOM     16  C   UNL     1      -0.544  12.706  19.251  0.00  0.00    +0.000 A 
ATOM     17  C   UNL     1       0.740  12.576  19.784  0.00  0.00    +0.000 A 
ATOM     18  C   UNL     1       1.349  11.316  19.849  0.00  0.00    +0.000 A 
BRANCH  16  19
ATOM     19  O   UNL     1      -1.213  13.887  19.075  0.00  0.00    +0.000 OA
ATOM     20  C   UNL     1      -0.993  14.873  20.076  0.00  0.00    +0.000 C 
ENDBRANCH  16  19
ENDBRANCH   2  13
BRANCH   1  21
ATOM     21  C   UNL     1       0.359   8.215  21.492  0.00  0.00    +0.000 C 
ATOM     22  O   UNL     1      -0.809   7.881  21.623  0.00  0.00    +0.000 OA
BRANCH  21  23
ATOM     23  O   UNL     1       1.024   9.004  22.372  0.00  0.00    +0.000 OA
BRANCH  23  25
ATOM     24  C   UNL     1      -0.622  10.701  22.870  0.00  0.00    +0.000 C 
ATOM     25  C   UNL     1       0.206   9.549  23.420  0.00  0.00    +0.000 C 
ENDBRANCH  23  25
ENDBRANCH  21  23
ENDBRANCH   1  21
TORSDOF 5
ENDMDL
MODEL 6
REMARK VINA RESULT:      -6.4      1.553      2.758
REMARK  Name = 
REMARK  7 active torsions:
REMARK  status: ('A' for Active; 'I' for Inactive)
REMARK    1  A    between atoms: C_1  and  C_2
REMARK    2  A    between atoms: C_2  and  O_3
REMARK    3  A    between atoms: O_3  and  C_4
REMARK    4  A    between atoms: C_4  and  C_6
REMARK    5  A    between atoms: C_7  and  C_8
REMARK    6  A    between atoms: C_11  and  O_12
REMARK    7  A    between atoms: O_12  and  C_13
REMARK                            x       y       z     vdW  Elec       q    Type
REMARK                         _______ _______ _______ _____ _____    ______ ____
ROOT
ATOM      1  C   UNL     1       2.031   6.926  19.987  0.00  0.00    +0.000 C 
ATOM      2  C   UNL     1       2.466   7.280  18.754  0.00  0.00    +0.000 C 
ATOM      3  C   UNL     1       2.144   8.624  18.183  0.00  0.00    +0.000 C 
ATOM      4  O   UNL     1       2.615   9.004  17.116  0.00  0.00    +0.000 OA
ATOM      5  C   UNL     1       1.218   9.500  18.920  0.00  0.00    +0.000 A 
ATOM      6  C   UNL     1       0.774  10.697  18.343  0.00  0.00    +0.000 A 
ATOM      7  C   UNL     1      -0.117  11.522  19.038  0.00  0.00    +0.000 A 
ATOM      8  C   UNL     1      -0.554  11.162  20.310  0.00  0.00    +0.000 A 
ATOM      9  C   UNL     1      -0.108   9.973  20.884  0.00  0.00    +0.000 A 
ATOM     10  C   UNL     1       0.780   9.140  20.184  0.00  0.00    +0.000 A 
ATOM     11  C   UNL     1       1.213   7.877  20.795  0.00  0.00    +0.000 C 
ATOM     12  O   UNL     1       0.833   7.631  21.935  0.00  0.00    +0.000 OA
ENDROOT
BRANCH   2  13
ATOM     13  C   UNL     1       3.264   6.362  17.909  0.00  0.00    +0.000 A 
ATOM     14  C   UNL     1       2.743   5.113  17.542  0.00  0.00    +0.000 A 
ATOM     15  C   UNL     1       3.545   4.190  16.867  0.00  0.00    +0.000 A 
ATOM     16  C   UNL     1       4.854   4.516  16.511  0.00  0.00    +0.000 A 
ATOM     17  C   UNL     1       5.365   5.772  16.841  0.00  0.00    +0.000 A 
ATOM     18  C   UNL     1       4.571   6.693  17.537  0.00  0.00    +0.000 A 
BRANCH  16  19
ATOM     19  O   UNL     1       5.552   3.514  15.894  0.00  0.00    +0.000 OA
ATOM     20  C   UNL     1       6.211   3.876  14.687  0.00  0.00    +0.000 C 
ENDBRANCH  16  19
ENDBRANCH   2  13
BRANCH   1  21
ATOM     21  C   UNL     1       2.270   5.549  20.513  0.00  0.00    +0.000 C 
ATOM     22  O   UNL     1       3.373   5.061  20.704  0.00  0.00    +0.000 OA
BRANCH  21  23
ATOM     23  O   UNL     1       1.107   4.862  20.633  0.00  0.00    +0.000 OA
BRANCH  23  25
ATOM     24  C   UNL     1       0.817   2.745  19.507  0.00  0.00    +0.000 C 
ATOM     25  C   UNL     1       1.266   3.442  20.783  0.00  0.00    +0.000 C 
ENDBRANCH  23  25
ENDBRANCH  21  23
ENDBRANCH   1  21
TORSDOF 5
ENDMDL
MODEL 7
REMARK VINA RESULT:      -6.4      2.406      4.934
REMARK  Name = 
REMARK  7 active torsions:
REMARK  status: ('A' for Active; 'I' for Inactive)
REMARK    1  A    between atoms: C_1  and  C_2
REMARK    2  A    between atoms: C_2  and  O_3
REMARK    3  A    between atoms: O_3  and  C_4
REMARK    4  A    between atoms: C_4  and  C_6
REMARK    5  A    between atoms: C_7  and  C_8
REMARK    6  A    between atoms: C_11  and  O_12
REMARK    7  A    between atoms: O_12  and  C_13
REMARK                            x       y       z     vdW  Elec       q    Type
REMARK                         _______ _______ _______ _____ _____    ______ ____
ROOT
ATOM      1  C   UNL     1       5.044   4.057  17.228  0.00  0.00    +0.000 C 
ATOM      2  C   UNL     1       5.054   5.145  18.034  0.00  0.00    +0.000 C 
ATOM      3  C   UNL     1       4.022   5.319  19.101  0.00  0.00    +0.000 C 
ATOM      4  O   UNL     1       4.073   6.241  19.909  0.00  0.00    +0.000 OA
ATOM      5  C   UNL     1       2.903   4.363  19.162  0.00  0.00    +0.000 A 
ATOM      6  C   UNL     1       1.838   4.584  20.046  0.00  0.00    +0.000 A 
ATOM      7  C   UNL     1       0.769   3.683  20.094  0.00  0.00    +0.000 A 
ATOM      8  C   UNL     1       0.766   2.559  19.272  0.00  0.00    +0.000 A 
ATOM      9  C   UNL     1       1.827   2.340  18.396  0.00  0.00    +0.000 A 
ATOM     10  C   UNL     1       2.897   3.247  18.341  0.00  0.00    +0.000 A 
ATOM     11  C   UNL     1       3.991   3.013  17.390  0.00  0.00    +0.000 C 
ATOM     12  O   UNL     1       3.960   1.985  16.723  0.00  0.00    +0.000 OA
ENDROOT
BRANCH   2  13
ATOM     13  C   UNL     1       6.069   6.215  17.898  0.00  0.00    +0.000 A 
ATOM     14  C   UNL     1       7.276   6.133  18.605  0.00  0.00    +0.000 A 
ATOM     15  C   UNL     1       8.173   7.204  18.590  0.00  0.00    +0.000 A 
ATOM     16  C   UNL     1       7.898   8.346  17.837  0.00  0.00    +0.000 A 
ATOM     17  C   UNL     1       6.714   8.418  17.101  0.00  0.00    +0.000 A 
ATOM     18  C   UNL     1       5.803   7.355  17.131  0.00  0.00    +0.000 A 
BRANCH  16  19
ATOM     19  O   UNL     1       8.830   9.344  17.939  0.00  0.00    +0.000 OA
ATOM     20  C   UNL     1       9.062   9.836  19.253  0.00  0.00    +0.000 C 
ENDBRANCH  16  19
ENDBRANCH   2  13
BRANCH   1  21
ATOM     21  C   UNL     1       6.016   3.935  16.101  0.00  0.00    +0.000 C 
ATOM     22  O   UNL     1       7.211   3.719  16.236  0.00  0.00    +0.000 OA
BRANCH  21  23
ATOM     23  O   UNL     1       5.428   4.220  14.913  0.00  0.00    +0.000 OA
BRANCH  23  25
ATOM     24  C   UNL     1       5.750   3.433  12.652  0.00  0.00    +0.000 C 
ATOM     25  C   UNL     1       6.329   4.256  13.794  0.00  0.00    +0.000 C 
ENDBRANCH  23  25
ENDBRANCH  21  23
ENDBRANCH   1  21
TORSDOF 5
ENDMDL
MODEL 8
REMARK VINA RESULT:      -6.3      7.331     11.258
REMARK  Name = 
REMARK  7 active torsions:
REMARK  status: ('A' for Active; 'I' for Inactive)
REMARK    1  A    between atoms: C_1  and  C_2
REMARK    2  A    between atoms: C_2  and  O_3
REMARK    3  A    between atoms: O_3  and  C_4
REMARK    4  A    between atoms: C_4  and  C_6
REMARK    5  A    between atoms: C_7  and  C_8
REMARK    6  A    between atoms: C_11  and  O_12
REMARK    7  A    between atoms: O_12  and  C_13
REMARK                            x       y       z     vdW  Elec       q    Type
REMARK                         _______ _______ _______ _____ _____    ______ ____
ROOT
ATOM      1  C   UNL     1      -1.094  11.549  20.498  0.00  0.00    +0.000 C 
ATOM      2  C   UNL     1      -2.219  12.281  20.681  0.00  0.00    +0.000 C 
ATOM      3  C   UNL     1      -3.333  12.236  19.686  0.00  0.00    +0.000 C 
ATOM      4  O   UNL     1      -4.401  12.807  19.883  0.00  0.00    +0.000 OA
ATOM      5  C   UNL     1      -3.125  11.501  18.426  0.00  0.00    +0.000 A 
ATOM      6  C   UNL     1      -4.086  11.567  17.408  0.00  0.00    +0.000 A 
ATOM      7  C   UNL     1      -3.881  10.880  16.207  0.00  0.00    +0.000 A 
ATOM      8  C   UNL     1      -2.729  10.119  16.025  0.00  0.00    +0.000 A 
ATOM      9  C   UNL     1      -1.778  10.052  17.041  0.00  0.00    +0.000 A 
ATOM     10  C   UNL     1      -1.977  10.748  18.244  0.00  0.00    +0.000 A 
ATOM     11  C   UNL     1      -0.947  10.688  19.289  0.00  0.00    +0.000 C 
ATOM     12  O   UNL     1       0.025   9.968  19.094  0.00  0.00    +0.000 OA
ENDROOT
BRANCH   2  13
ATOM     13  C   UNL     1      -2.400  13.164  21.856  0.00  0.00    +0.000 A 
ATOM     14  C   UNL     1      -3.040  12.681  23.006  0.00  0.00    +0.000 A 
ATOM     15  C   UNL     1      -3.338  13.548  24.060  0.00  0.00    +0.000 A 
ATOM     16  C   UNL     1      -2.963  14.891  23.999  0.00  0.00    +0.000 A 
ATOM     17  C   UNL     1      -2.292  15.368  22.872  0.00  0.00    +0.000 A 
ATOM     18  C   UNL     1      -2.011  14.506  21.804  0.00  0.00    +0.000 A 
BRANCH  16  19
ATOM     19  O   UNL     1      -3.351  15.648  25.071  0.00  0.00    +0.000 OA
ATOM     20  C   UNL     1      -4.417  16.557  24.829  0.00  0.00    +0.000 C 
ENDBRANCH  16  19
ENDBRANCH   2  13
BRANCH   1  21
ATOM     21  C   UNL     1       0.057  11.673  21.442  0.00  0.00    +0.000 C 
ATOM     22  O   UNL     1       1.076  12.306  21.214  0.00  0.00    +0.000 OA
BRANCH  21  23
ATOM     23  O   UNL     1      -0.120  10.889  22.535  0.00  0.00    +0.000 OA
BRANCH  23  25
ATOM     24  C   UNL     1      -0.416   8.509  22.244  0.00  0.00    +0.000 C 
ATOM     25  C   UNL     1       0.579   9.635  22.489  0.00  0.00    +0.000 C 
ENDBRANCH  23  25
ENDBRANCH  21  23
ENDBRANCH   1  21
TORSDOF 5
ENDMDL
MODEL 9
REMARK VINA RESULT:      -6.2      7.330     11.271
REMARK  Name = 
REMARK  7 active torsions:
REMARK  status: ('A' for Active; 'I' for Inactive)
REMARK    1  A    between atoms: C_1  and  C_2
REMARK    2  A    between atoms: C_2  and  O_3
REMARK    3  A    between atoms: O_3  and  C_4
REMARK    4  A    between atoms: C_4  and  C_6
REMARK    5  A    between atoms: C_7  and  C_8
REMARK    6  A    between atoms: C_11  and  O_12
REMARK    7  A    between atoms: O_12  and  C_13
REMARK                            x       y       z     vdW  Elec       q    Type
REMARK                         _______ _______ _______ _____ _____    ______ ____
ROOT
ATOM      1  C   UNL     1      -1.192  11.637  20.707  0.00  0.00    +0.000 C 
ATOM      2  C   UNL     1      -2.347  12.334  20.839  0.00  0.00    +0.000 C 
ATOM      3  C   UNL     1      -3.418  12.247  19.800  0.00  0.00    +0.000 C 
ATOM      4  O   UNL     1      -4.511  12.784  19.950  0.00  0.00    +0.000 OA
ATOM      5  C   UNL     1      -3.136  11.512  18.555  0.00  0.00    +0.000 A 
ATOM      6  C   UNL     1      -4.057  11.540  17.499  0.00  0.00    +0.000 A 
ATOM      7  C   UNL     1      -3.782  10.853  16.311  0.00  0.00    +0.000 A 
ATOM      8  C   UNL     1      -2.599  10.129  16.182  0.00  0.00    +0.000 A 
ATOM      9  C   UNL     1      -1.688  10.098  17.235  0.00  0.00    +0.000 A 
ATOM     10  C   UNL     1      -1.958  10.795  18.424  0.00  0.00    +0.000 A 
ATOM     11  C   UNL     1      -0.970  10.774  19.510  0.00  0.00    +0.000 C 
ATOM     12  O   UNL     1       0.032  10.084  19.360  0.00  0.00    +0.000 OA
ENDROOT
BRANCH   2  13
ATOM     13  C   UNL     1      -2.603  13.217  22.000  0.00  0.00    +0.000 A 
ATOM     14  C   UNL     1      -2.019  14.490  22.056  0.00  0.00    +0.000 A 
ATOM     15  C   UNL     1      -2.143  15.268  23.209  0.00  0.00    +0.000 A 
ATOM     16  C   UNL     1      -2.884  14.807  24.298  0.00  0.00    +0.000 A 
ATOM     17  C   UNL     1      -3.498  13.556  24.232  0.00  0.00    +0.000 A 
ATOM     18  C   UNL     1      -3.358  12.763  23.086  0.00  0.00    +0.000 A 
BRANCH  16  19
ATOM     19  O   UNL     1      -2.893  15.639  25.385  0.00  0.00    +0.000 OA
ATOM     20  C   UNL     1      -1.616  16.059  25.849  0.00  0.00    +0.000 C 
ENDBRANCH  16  19
ENDBRANCH   2  13
BRANCH   1  21
ATOM     21  C   UNL     1      -0.086  11.803  21.695  0.00  0.00    +0.000 C 
ATOM     22  O   UNL     1       0.984  12.341  21.455  0.00  0.00    +0.000 OA
BRANCH  21  23
ATOM     23  O   UNL     1      -0.369  11.168  22.859  0.00  0.00    +0.000 OA
BRANCH  23  25
ATOM     24  C   UNL     1       0.966   9.178  22.557  0.00  0.00    +0.000 C 
ATOM     25  C   UNL     1      -0.435   9.737  22.758  0.00  0.00    +0.000 C 
ENDBRANCH  23  25
ENDBRANCH  21  23
ENDBRANCH   1  21
TORSDOF 5
ENDMDL
