MODEL 1
REMARK VINA RESULT:      -8.3      0.000      0.000
REMARK  Name = 
REMARK  5 active torsions:
REMARK  status: ('A' for Active; 'I' for Inactive)
REMARK    1  A    between atoms: C_1  and  C_2
REMARK    2  A    between atoms: C_4  and  C_5
REMARK    3  A    between atoms: C_7  and  N_8
REMARK    4  A    between atoms: C_9  and  C_11
REMARK    5  A    between atoms: C_11  and  N_12
REMARK                            x       y       z     vdW  Elec       q    Type
REMARK                         _______ _______ _______ _____ _____    ______ ____
ROOT
ATOM      1  N   UNL     1       4.696   4.288  18.330  0.00  0.00    +0.000 N 
ATOM      2  C   UNL     1       4.307   3.873  17.000  0.00  0.00    +0.000 A 
ATOM      3  O   UNL     1       3.203   3.375  16.852  0.00  0.00    +0.000 OA
ATOM      4  C   UNL     1       5.257   4.106  15.880  0.00  0.00    +0.000 A 
ATOM      5  C   UNL     1       4.907   3.697  14.590  0.00  0.00    +0.000 A 
ATOM      6  C   UNL     1       5.783   3.939  13.526  0.00  0.00    +0.000 A 
ATOM      7  C   UNL     1       7.003   4.581  13.750  0.00  0.00    +0.000 A 
ATOM      8  C   UNL     1       7.367   4.990  15.034  0.00  0.00    +0.000 A 
ATOM      9  C   UNL     1       6.487   4.750  16.092  0.00  0.00    +0.000 A 
ATOM     10  N   UNL     1       6.780   5.156  17.398  0.00  0.00    +0.000 N 
ATOM     11  N   UNL     1       7.877   5.823  17.793  0.00  0.00    +0.000 NA
ATOM     12  N   UNL     1       7.754   6.052  19.096  0.00  0.00    +0.000 NA
ATOM     13  C   UNL     1       6.563   5.512  19.522  0.00  0.00    +0.000 A 
ATOM     14  C   UNL     1       5.926   4.937  18.453  0.00  0.00    +0.000 A 
ENDROOT
BRANCH   1  15
ATOM     15  C   UNL     1       3.772   4.020  19.444  0.00  0.00    +0.000 C 
BRANCH  15  17
ATOM     16  N   UNL     1       3.002   6.333  19.746  0.00  0.00    +0.000 N 
ATOM     17  C   UNL     1       2.620   5.022  19.483  0.00  0.00    +0.000 C 
ATOM     18  O   UNL     1       1.474   4.639  19.245  0.00  0.00    +0.000 OA
ATOM     19  H   UNL     1       3.985   6.561  19.605  0.00  0.00    +0.000 HD
BRANCH  16  26
ATOM     20  C   UNL     1       1.034  10.458  17.868  0.00  0.00    +0.000 C 
ATOM     21  C   UNL     1       1.165   9.479  18.999  0.00  0.00    +0.000 A 
ATOM     22  C   UNL     1       0.417   9.648  20.170  0.00  0.00    +0.000 A 
ATOM     23  C   UNL     1       0.535   8.736  21.224  0.00  0.00    +0.000 A 
ATOM     24  C   UNL     1      -0.250   8.908  22.492  0.00  0.00    +0.000 C 
ATOM     25  C   UNL     1       1.398   7.639  21.095  0.00  0.00    +0.000 A 
ATOM     26  C   UNL     1       2.137   7.439  19.928  0.00  0.00    +0.000 A 
ATOM     27  C   UNL     1       2.035   8.379  18.893  0.00  0.00    +0.000 A 
ENDBRANCH  16  26
ENDBRANCH  15  17
ENDBRANCH   1  15
TORSDOF 3
ENDMDL
MODEL 2
REMARK VINA RESULT:      -8.2      0.077      1.691
REMARK  Name = 
REMARK  5 active torsions:
REMARK  status: ('A' for Active; 'I' for Inactive)
REMARK    1  A    between atoms: C_1  and  C_2
REMARK    2  A    between atoms: C_4  and  C_5
REMARK    3  A    between atoms: C_7  and  N_8
REMARK    4  A    between atoms: C_9  and  C_11
REMARK    5  A    between atoms: C_11  and  N_12
REMARK                            x       y       z     vdW  Elec       q    Type
REMARK                         _______ _______ _______ _____ _____    ______ ____
ROOT
ATOM      1  N   UNL     1       4.698   4.280  18.355  0.00  0.00    +0.000 N 
ATOM      2  C   UNL     1       4.303   3.887  17.021  0.00  0.00    +0.000 A 
ATOM      3  O   UNL     1       3.192   3.407  16.866  0.00  0.00    +0.000 OA
ATOM      4  C   UNL     1       5.257   4.120  15.904  0.00  0.00    +0.000 A 
ATOM      5  C   UNL     1       4.902   3.731  14.608  0.00  0.00    +0.000 A 
ATOM      6  C   UNL     1       5.782   3.973  13.548  0.00  0.00    +0.000 A 
ATOM      7  C   UNL     1       7.010   4.595  13.780  0.00  0.00    +0.000 A 
ATOM      8  C   UNL     1       7.379   4.984  15.069  0.00  0.00    +0.000 A 
ATOM      9  C   UNL     1       6.495   4.743  16.123  0.00  0.00    +0.000 A 
ATOM     10  N   UNL     1       6.794   5.130  17.434  0.00  0.00    +0.000 N 
ATOM     11  N   UNL     1       7.899   5.776  17.838  0.00  0.00    +0.000 NA
ATOM     12  N   UNL     1       7.779   5.992  19.144  0.00  0.00    +0.000 NA
ATOM     13  C   UNL     1       6.581   5.464  19.562  0.00  0.00    +0.000 A 
ATOM     14  C   UNL     1       5.936   4.910  18.487  0.00  0.00    +0.000 A 
ENDROOT
BRANCH   1  15
ATOM     15  C   UNL     1       3.769   4.013  19.466  0.00  0.00    +0.000 C 
BRANCH  15  17
ATOM     16  N   UNL     1       3.000   6.334  19.684  0.00  0.00    +0.000 N 
ATOM     17  C   UNL     1       2.614   5.012  19.498  0.00  0.00    +0.000 C 
ATOM     18  O   UNL     1       1.463   4.613  19.320  0.00  0.00    +0.000 OA
ATOM     19  H   UNL     1       3.976   6.558  19.496  0.00  0.00    +0.000 HD
BRANCH  16  26
ATOM     20  C   UNL     1      -0.127   8.821  22.594  0.00  0.00    +0.000 C 
ATOM     21  C   UNL     1       0.591   8.674  21.282  0.00  0.00    +0.000 A 
ATOM     22  C   UNL     1       0.431   9.636  20.278  0.00  0.00    +0.000 A 
ATOM     23  C   UNL     1       1.100   9.504  19.057  0.00  0.00    +0.000 A 
ATOM     24  C   UNL     1       0.931  10.520  17.964  0.00  0.00    +0.000 C 
ATOM     25  C   UNL     1       1.946   8.406  18.849  0.00  0.00    +0.000 A 
ATOM     26  C   UNL     1       2.137   7.446  19.843  0.00  0.00    +0.000 A 
ATOM     27  C   UNL     1       1.434   7.573  21.050  0.00  0.00    +0.000 A 
ENDBRANCH  16  26
ENDBRANCH  15  17
ENDBRANCH   1  15
TORSDOF 3
ENDMDL
MODEL 3
REMARK VINA RESULT:      -8.0      2.881      7.415
REMARK  Name = 
REMARK  5 active torsions:
REMARK  status: ('A' for Active; 'I' for Inactive)
REMARK    1  A    between atoms: C_1  and  C_2
REMARK    2  A    between atoms: C_4  and  C_5
REMARK    3  A    between atoms: C_7  and  N_8
REMARK    4  A    between atoms: C_9  and  C_11
REMARK    5  A    between atoms: C_11  and  N_12
REMARK                            x       y       z     vdW  Elec       q    Type
REMARK                         _______ _______ _______ _____ _____    ______ ____
ROOT
ATOM      1  N   UNL     1       5.277   4.884  18.655  0.00  0.00    +0.000 N 
ATOM      2  C   UNL     1       4.794   3.751  19.412  0.00  0.00    +0.000 A 
ATOM      3  O   UNL     1       5.604   2.918  19.782  0.00  0.00    +0.000 OA
ATOM      4  C   UNL     1       3.342   3.680  19.730  0.00  0.00    +0.000 A 
ATOM      5  C   UNL     1       2.852   2.584  20.447  0.00  0.00    +0.000 A 
ATOM      6  C   UNL     1       1.494   2.524  20.775  0.00  0.00    +0.000 A 
ATOM      7  C   UNL     1       0.629   3.548  20.386  0.00  0.00    +0.000 A 
ATOM      8  C   UNL     1       1.104   4.646  19.666  0.00  0.00    +0.000 A 
ATOM      9  C   UNL     1       2.462   4.703  19.344  0.00  0.00    +0.000 A 
ATOM     10  N   UNL     1       3.007   5.786  18.646  0.00  0.00    +0.000 N 
ATOM     11  N   UNL     1       2.342   6.877  18.232  0.00  0.00    +0.000 NA
ATOM     12  N   UNL     1       3.224   7.682  17.648  0.00  0.00    +0.000 NA
ATOM     13  C   UNL     1       4.459   7.077  17.691  0.00  0.00    +0.000 A 
ATOM     14  C   UNL     1       4.342   5.867  18.325  0.00  0.00    +0.000 A 
ENDROOT
BRANCH   1  15
ATOM     15  C   UNL     1       6.707   4.934  18.306  0.00  0.00    +0.000 C 
BRANCH  15  17
ATOM     16  N   UNL     1       6.435   4.270  15.958  0.00  0.00    +0.000 N 
ATOM     17  C   UNL     1       6.923   5.240  16.825  0.00  0.00    +0.000 C 
ATOM     18  O   UNL     1       7.452   6.303  16.497  0.00  0.00    +0.000 OA
ATOM     19  H   UNL     1       5.750   3.618  16.337  0.00  0.00    +0.000 HD
BRANCH  16  26
ATOM     20  C   UNL     1       8.588   6.206  11.952  0.00  0.00    +0.000 C 
ATOM     21  C   UNL     1       7.645   5.212  12.569  0.00  0.00    +0.000 A 
ATOM     22  C   UNL     1       6.974   4.283  11.767  0.00  0.00    +0.000 A 
ATOM     23  C   UNL     1       6.098   3.355  12.339  0.00  0.00    +0.000 A 
ATOM     24  C   UNL     1       5.359   2.358  11.492  0.00  0.00    +0.000 C 
ATOM     25  C   UNL     1       5.906   3.351  13.728  0.00  0.00    +0.000 A 
ATOM     26  C   UNL     1       6.581   4.255  14.549  0.00  0.00    +0.000 A 
ATOM     27  C   UNL     1       7.431   5.201  13.959  0.00  0.00    +0.000 A 
ENDBRANCH  16  26
ENDBRANCH  15  17
ENDBRANCH   1  15
TORSDOF 3
ENDMDL
MODEL 4
REMARK VINA RESULT:      -8.0      2.867      7.444
REMARK  Name = 
REMARK  5 active torsions:
REMARK  status: ('A' for Active; 'I' for Inactive)
REMARK    1  A    between atoms: C_1  and  C_2
REMARK    2  A    between atoms: C_4  and  C_5
REMARK    3  A    between atoms: C_7  and  N_8
REMARK    4  A    between atoms: C_9  and  C_11
REMARK    5  A    between atoms: C_11  and  N_12
REMARK                            x       y       z     vdW  Elec       q    Type
REMARK                         _______ _______ _______ _____ _____    ______ ____
ROOT
ATOM      1  N   UNL     1       5.263   5.106  18.649  0.00  0.00    +0.000 N 
ATOM      2  C   UNL     1       4.830   3.917  19.349  0.00  0.00    +0.000 A 
ATOM      3  O   UNL     1       5.681   3.124  19.719  0.00  0.00    +0.000 OA
ATOM      4  C   UNL     1       3.377   3.740  19.612  0.00  0.00    +0.000 A 
ATOM      5  C   UNL     1       2.937   2.589  20.273  0.00  0.00    +0.000 A 
ATOM      6  C   UNL     1       1.575   2.429  20.549  0.00  0.00    +0.000 A 
ATOM      7  C   UNL     1       0.658   3.409  20.166  0.00  0.00    +0.000 A 
ATOM      8  C   UNL     1       1.083   4.561  19.501  0.00  0.00    +0.000 A 
ATOM      9  C   UNL     1       2.445   4.717  19.231  0.00  0.00    +0.000 A 
ATOM     10  N   UNL     1       2.940   5.859  18.590  0.00  0.00    +0.000 N 
ATOM     11  N   UNL     1       2.219   6.919  18.192  0.00  0.00    +0.000 NA
ATOM     12  N   UNL     1       3.065   7.800  17.667  0.00  0.00    +0.000 NA
ATOM     13  C   UNL     1       4.335   7.275  17.734  0.00  0.00    +0.000 A 
ATOM     14  C   UNL     1       4.277   6.037  18.321  0.00  0.00    +0.000 A 
ENDROOT
BRANCH   1  15
ATOM     15  C   UNL     1       6.697   5.261  18.354  0.00  0.00    +0.000 C 
BRANCH  15  17
ATOM     16  N   UNL     1       6.519   4.532  16.016  0.00  0.00    +0.000 N 
ATOM     17  C   UNL     1       6.949   5.538  16.873  0.00  0.00    +0.000 C 
ATOM     18  O   UNL     1       7.453   6.609  16.534  0.00  0.00    +0.000 OA
ATOM     19  H   UNL     1       5.843   3.867  16.391  0.00  0.00    +0.000 HD
BRANCH  16  26
ATOM     20  C   UNL     1       5.373   2.402  11.706  0.00  0.00    +0.000 C 
ATOM     21  C   UNL     1       6.140   3.433  12.483  0.00  0.00    +0.000 A 
ATOM     22  C   UNL     1       6.978   4.338  11.821  0.00  0.00    +0.000 A 
ATOM     23  C   UNL     1       7.692   5.301  12.541  0.00  0.00    +0.000 A 
ATOM     24  C   UNL     1       8.604   6.271  11.848  0.00  0.00    +0.000 C 
ATOM     25  C   UNL     1       7.552   5.365  13.934  0.00  0.00    +0.000 A 
ATOM     26  C   UNL     1       6.707   4.487  14.613  0.00  0.00    +0.000 A 
ATOM     27  C   UNL     1       6.023   3.505  13.882  0.00  0.00    +0.000 A 
ENDBRANCH  16  26
ENDBRANCH  15  17
ENDBRANCH   1  15
TORSDOF 3
ENDMDL
MODEL 5
REMARK VINA RESULT:      -7.8      4.026      9.599
REMARK  Name = 
REMARK  5 active torsions:
REMARK  status: ('A' for Active; 'I' for Inactive)
REMARK    1  A    between atoms: C_1  and  C_2
REMARK    2  A    between atoms: C_4  and  C_5
REMARK    3  A    between atoms: C_7  and  N_8
REMARK    4  A    between atoms: C_9  and  C_11
REMARK    5  A    between atoms: C_11  and  N_12
REMARK                            x       y       z     vdW  Elec       q    Type
REMARK                         _______ _______ _______ _____ _____    ______ ____
ROOT
ATOM      1  N   UNL     1       0.120  10.468  21.286  0.00  0.00    +0.000 N 
ATOM      2  C   UNL     1      -0.591  10.797  22.502  0.00  0.00    +0.000 A 
ATOM      3  O   UNL     1      -0.127  10.413  23.563  0.00  0.00    +0.000 OA
ATOM      4  C   UNL     1      -1.829  11.614  22.397  0.00  0.00    +0.000 A 
ATOM      5  C   UNL     1      -2.541  11.929  23.559  0.00  0.00    +0.000 A 
ATOM      6  C   UNL     1      -3.690  12.722  23.472  0.00  0.00    +0.000 A 
ATOM      7  C   UNL     1      -4.129  13.194  22.233  0.00  0.00    +0.000 A 
ATOM      8  C   UNL     1      -3.431  12.883  21.065  0.00  0.00    +0.000 A 
ATOM      9  C   UNL     1      -2.281  12.094  21.158  0.00  0.00    +0.000 A 
ATOM     10  N   UNL     1      -1.523  11.766  20.029  0.00  0.00    +0.000 N 
ATOM     11  N   UNL     1      -1.763  12.165  18.770  0.00  0.00    +0.000 NA
ATOM     12  N   UNL     1      -0.792  11.674  18.005  0.00  0.00    +0.000 NA
ATOM     13  C   UNL     1       0.064  10.950  18.803  0.00  0.00    +0.000 A 
ATOM     14  C   UNL     1      -0.384  10.998  20.098  0.00  0.00    +0.000 A 
ENDROOT
BRANCH   1  15
ATOM     15  C   UNL     1       1.324   9.625  21.387  0.00  0.00    +0.000 C 
BRANCH  15  17
ATOM     16  N   UNL     1       2.107   7.430  20.613  0.00  0.00    +0.000 N 
ATOM     17  C   UNL     1       1.021   8.159  21.083  0.00  0.00    +0.000 C 
ATOM     18  O   UNL     1      -0.106   7.714  21.305  0.00  0.00    +0.000 OA
ATOM     19  H   UNL     1       3.032   7.825  20.781  0.00  0.00    +0.000 HD
BRANCH  16  26
ATOM     20  C   UNL     1       1.363   2.671  21.720  0.00  0.00    +0.000 C 
ATOM     21  C   UNL     1       1.719   3.733  20.719  0.00  0.00    +0.000 A 
ATOM     22  C   UNL     1       1.979   3.389  19.388  0.00  0.00    +0.000 A 
ATOM     23  C   UNL     1       2.308   4.375  18.452  0.00  0.00    +0.000 A 
ATOM     24  C   UNL     1       2.603   4.023  17.022  0.00  0.00    +0.000 C 
ATOM     25  C   UNL     1       2.363   5.717  18.854  0.00  0.00    +0.000 A 
ATOM     26  C   UNL     1       2.087   6.085  20.171  0.00  0.00    +0.000 A 
ATOM     27  C   UNL     1       1.791   5.083  21.106  0.00  0.00    +0.000 A 
ENDBRANCH  16  26
ENDBRANCH  15  17
ENDBRANCH   1  15
TORSDOF 3
ENDMDL
MODEL 6
REMARK VINA RESULT:      -7.7      4.137      8.622
REMARK  Name = 
REMARK  5 active torsions:
REMARK  status: ('A' for Active; 'I' for Inactive)
REMARK    1  A    between atoms: C_1  and  C_2
REMARK    2  A    between atoms: C_4  and  C_5
REMARK    3  A    between atoms: C_7  and  N_8
REMARK    4  A    between atoms: C_9  and  C_11
REMARK    5  A    between atoms: C_11  and  N_12
REMARK                            x       y       z     vdW  Elec       q    Type
REMARK                         _______ _______ _______ _____ _____    ______ ____
ROOT
ATOM      1  N   UNL     1      -0.252  10.630  19.533  0.00  0.00    +0.000 N 
ATOM      2  C   UNL     1      -0.609  10.155  18.215  0.00  0.00    +0.000 A 
ATOM      3  O   UNL     1       0.168   9.409  17.641  0.00  0.00    +0.000 OA
ATOM      4  C   UNL     1      -1.917  10.570  17.642  0.00  0.00    +0.000 A 
ATOM      5  C   UNL     1      -2.273  10.135  16.362  0.00  0.00    +0.000 A 
ATOM      6  C   UNL     1      -3.515  10.498  15.829  0.00  0.00    +0.000 A 
ATOM      7  C   UNL     1      -4.393  11.293  16.567  0.00  0.00    +0.000 A 
ATOM      8  C   UNL     1      -4.049  11.739  17.845  0.00  0.00    +0.000 A 
ATOM      9  C   UNL     1      -2.809  11.370  18.374  0.00  0.00    +0.000 A 
ATOM     10  N   UNL     1      -2.413  11.763  19.657  0.00  0.00    +0.000 N 
ATOM     11  N   UNL     1      -3.139  12.486  20.524  0.00  0.00    +0.000 NA
ATOM     12  N   UNL     1      -2.424  12.606  21.638  0.00  0.00    +0.000 NA
ATOM     13  C   UNL     1      -1.227  11.952  21.458  0.00  0.00    +0.000 A 
ATOM     14  C   UNL     1      -1.201  11.406  20.201  0.00  0.00    +0.000 A 
ENDROOT
BRANCH   1  15
ATOM     15  C   UNL     1       1.061  10.251  20.082  0.00  0.00    +0.000 C 
BRANCH  15  17
ATOM     16  N   UNL     1       2.084   8.091  19.516  0.00  0.00    +0.000 N 
ATOM     17  C   UNL     1       1.164   8.747  20.326  0.00  0.00    +0.000 C 
ATOM     18  O   UNL     1       0.491   8.230  21.219  0.00  0.00    +0.000 OA
ATOM     19  H   UNL     1       2.788   8.670  19.060  0.00  0.00    +0.000 HD
BRANCH  16  26
ATOM     20  C   UNL     1       3.849   4.226  16.992  0.00  0.00    +0.000 C 
ATOM     21  C   UNL     1       3.187   4.785  18.219  0.00  0.00    +0.000 A 
ATOM     22  C   UNL     1       2.854   3.944  19.286  0.00  0.00    +0.000 A 
ATOM     23  C   UNL     1       2.240   4.460  20.432  0.00  0.00    +0.000 A 
ATOM     24  C   UNL     1       1.865   3.570  21.582  0.00  0.00    +0.000 C 
ATOM     25  C   UNL     1       1.972   5.834  20.511  0.00  0.00    +0.000 A 
ATOM     26  C   UNL     1       2.314   6.695  19.468  0.00  0.00    +0.000 A 
ATOM     27  C   UNL     1       2.899   6.158  18.312  0.00  0.00    +0.000 A 
ENDBRANCH  16  26
ENDBRANCH  15  17
ENDBRANCH   1  15
TORSDOF 3
ENDMDL
MODEL 7
REMARK VINA RESULT:      -7.7      4.205      6.368
REMARK  Name = 
REMARK  5 active torsions:
REMARK  status: ('A' for Active; 'I' for Inactive)
REMARK    1  A    between atoms: C_1  and  C_2
REMARK    2  A    between atoms: C_4  and  C_5
REMARK    3  A    between atoms: C_7  and  N_8
REMARK    4  A    between atoms: C_9  and  C_11
REMARK    5  A    between atoms: C_11  and  N_12
REMARK                            x       y       z     vdW  Elec       q    Type
REMARK                         _______ _______ _______ _____ _____    ______ ____
ROOT
ATOM      1  N   UNL     1       6.568   5.343  17.914  0.00  0.00    +0.000 N 
ATOM      2  C   UNL     1       5.490   5.250  18.873  0.00  0.00    +0.000 A 
ATOM      3  O   UNL     1       5.659   5.735  19.980  0.00  0.00    +0.000 OA
ATOM      4  C   UNL     1       4.221   4.599  18.450  0.00  0.00    +0.000 A 
ATOM      5  C   UNL     1       3.173   4.483  19.368  0.00  0.00    +0.000 A 
ATOM      6  C   UNL     1       1.966   3.898  18.970  0.00  0.00    +0.000 A 
ATOM      7  C   UNL     1       1.808   3.428  17.665  0.00  0.00    +0.000 A 
ATOM      8  C   UNL     1       2.848   3.533  16.739  0.00  0.00    +0.000 A 
ATOM      9  C   UNL     1       4.050   4.121  17.142  0.00  0.00    +0.000 A 
ATOM     10  N   UNL     1       5.122   4.279  16.257  0.00  0.00    +0.000 N 
ATOM     11  N   UNL     1       5.138   3.931  14.960  0.00  0.00    +0.000 NA
ATOM     12  N   UNL     1       6.322   4.283  14.469  0.00  0.00    +0.000 NA
ATOM     13  C   UNL     1       7.059   4.854  15.480  0.00  0.00    +0.000 A 
ATOM     14  C   UNL     1       6.312   4.862  16.629  0.00  0.00    +0.000 A 
ENDROOT
BRANCH   1  15
ATOM     15  C   UNL     1       7.837   5.952  18.345  0.00  0.00    +0.000 C 
BRANCH  15  17
ATOM     16  N   UNL     1       8.715   8.194  18.827  0.00  0.00    +0.000 N 
ATOM     17  C   UNL     1       7.911   7.435  17.985  0.00  0.00    +0.000 C 
ATOM     18  O   UNL     1       7.317   7.846  16.988  0.00  0.00    +0.000 OA
ATOM     19  H   UNL     1       9.388   7.687  19.400  0.00  0.00    +0.000 HD
BRANCH  16  26
ATOM     20  C   UNL     1      11.170  12.165  20.450  0.00  0.00    +0.000 C 
ATOM     21  C   UNL     1      10.103  11.561  19.583  0.00  0.00    +0.000 A 
ATOM     22  C   UNL     1       9.342  12.371  18.733  0.00  0.00    +0.000 A 
ATOM     23  C   UNL     1       8.349  11.812  17.922  0.00  0.00    +0.000 A 
ATOM     24  C   UNL     1       7.515  12.668  17.012  0.00  0.00    +0.000 C 
ATOM     25  C   UNL     1       8.128  10.428  17.955  0.00  0.00    +0.000 A 
ATOM     26  C   UNL     1       8.888   9.599  18.780  0.00  0.00    +0.000 A 
ATOM     27  C   UNL     1       9.858  10.177  19.612  0.00  0.00    +0.000 A 
ENDBRANCH  16  26
ENDBRANCH  15  17
ENDBRANCH   1  15
TORSDOF 3
ENDMDL
MODEL 8
REMARK VINA RESULT:      -7.7      4.127      9.527
REMARK  Name = 
REMARK  5 active torsions:
REMARK  status: ('A' for Active; 'I' for Inactive)
REMARK    1  A    between atoms: C_1  and  C_2
REMARK    2  A    between atoms: C_4  and  C_5
REMARK    3  A    between atoms: C_7  and  N_8
REMARK    4  A    between atoms: C_9  and  C_11
REMARK    5  A    between atoms: C_11  and  N_12
REMARK                            x       y       z     vdW  Elec       q    Type
REMARK                         _______ _______ _______ _____ _____    ______ ____
ROOT
ATOM      1  N   UNL     1       0.079  10.717  21.391  0.00  0.00    +0.000 N 
ATOM      2  C   UNL     1      -0.745  10.948  22.556  0.00  0.00    +0.000 A 
ATOM      3  O   UNL     1      -0.373  10.490  23.625  0.00  0.00    +0.000 OA
ATOM      4  C   UNL     1      -1.981  11.759  22.399  0.00  0.00    +0.000 A 
ATOM      5  C   UNL     1      -2.800  11.980  23.511  0.00  0.00    +0.000 A 
ATOM      6  C   UNL     1      -3.949  12.766  23.377  0.00  0.00    +0.000 A 
ATOM      7  C   UNL     1      -4.282  13.325  22.142  0.00  0.00    +0.000 A 
ATOM      8  C   UNL     1      -3.475  13.109  21.023  0.00  0.00    +0.000 A 
ATOM      9  C   UNL     1      -2.327  12.326  21.162  0.00  0.00    +0.000 A 
ATOM     10  N   UNL     1      -1.464  12.090  20.087  0.00  0.00    +0.000 N 
ATOM     11  N   UNL     1      -1.595  12.579  18.843  0.00  0.00    +0.000 NA
ATOM     12  N   UNL     1      -0.551  12.156  18.137  0.00  0.00    +0.000 NA
ATOM     13  C   UNL     1       0.240  11.382  18.954  0.00  0.00    +0.000 A 
ATOM     14  C   UNL     1      -0.324  11.329  20.203  0.00  0.00    +0.000 A 
ENDROOT
BRANCH   1  15
ATOM     15  C   UNL     1       1.282   9.880  21.539  0.00  0.00    +0.000 C 
BRANCH  15  17
ATOM     16  N   UNL     1       2.167   7.738  20.729  0.00  0.00    +0.000 N 
ATOM     17  C   UNL     1       1.028   8.435  21.113  0.00  0.00    +0.000 C 
ATOM     18  O   UNL     1      -0.113   7.977  21.175  0.00  0.00    +0.000 OA
ATOM     19  H   UNL     1       3.063   8.122  21.027  0.00  0.00    +0.000 HD
BRANCH  16  26
ATOM     20  C   UNL     1       3.664   4.718  17.114  0.00  0.00    +0.000 C 
ATOM     21  C   UNL     1       2.950   4.931  18.418  0.00  0.00    +0.000 A 
ATOM     22  C   UNL     1       2.387   3.846  19.100  0.00  0.00    +0.000 A 
ATOM     23  C   UNL     1       1.723   4.039  20.316  0.00  0.00    +0.000 A 
ATOM     24  C   UNL     1       1.102   2.888  21.054  0.00  0.00    +0.000 C 
ATOM     25  C   UNL     1       1.638   5.329  20.857  0.00  0.00    +0.000 A 
ATOM     26  C   UNL     1       2.210   6.422  20.206  0.00  0.00    +0.000 A 
ATOM     27  C   UNL     1       2.843   6.219  18.971  0.00  0.00    +0.000 A 
ENDBRANCH  16  26
ENDBRANCH  15  17
ENDBRANCH   1  15
TORSDOF 3
ENDMDL
MODEL 9
REMARK VINA RESULT:      -7.7      2.985      5.103
REMARK  Name = 
REMARK  5 active torsions:
REMARK  status: ('A' for Active; 'I' for Inactive)
REMARK    1  A    between atoms: C_1  and  C_2
REMARK    2  A    between atoms: C_4  and  C_5
REMARK    3  A    between atoms: C_7  and  N_8
REMARK    4  A    between atoms: C_9  and  C_11
REMARK    5  A    between atoms: C_11  and  N_12
REMARK                            x       y       z     vdW  Elec       q    Type
REMARK                         _______ _______ _______ _____ _____    ______ ____
ROOT
ATOM      1  N   UNL     1       2.797   6.975  19.030  0.00  0.00    +0.000 N 
ATOM      2  C   UNL     1       1.944   6.169  19.875  0.00  0.00    +0.000 A 
ATOM      3  O   UNL     1       1.236   6.739  20.690  0.00  0.00    +0.000 OA
ATOM      4  C   UNL     1       1.947   4.694  19.684  0.00  0.00    +0.000 A 
ATOM      5  C   UNL     1       1.142   3.897  20.502  0.00  0.00    +0.000 A 
ATOM      6  C   UNL     1       1.117   2.512  20.309  0.00  0.00    +0.000 A 
ATOM      7  C   UNL     1       1.895   1.926  19.308  0.00  0.00    +0.000 A 
ATOM      8  C   UNL     1       2.707   2.710  18.486  0.00  0.00    +0.000 A 
ATOM      9  C   UNL     1       2.724   4.093  18.682  0.00  0.00    +0.000 A 
ATOM     10  N   UNL     1       3.497   4.938  17.878  0.00  0.00    +0.000 N 
ATOM     11  N   UNL     1       4.267   4.563  16.844  0.00  0.00    +0.000 NA
ATOM     12  N   UNL     1       4.799   5.664  16.323  0.00  0.00    +0.000 NA
ATOM     13  C   UNL     1       4.357   6.744  17.051  0.00  0.00    +0.000 A 
ATOM     14  C   UNL     1       3.524   6.303  18.046  0.00  0.00    +0.000 A 
ENDROOT
BRANCH   1  15
ATOM     15  C   UNL     1       2.823   8.431  19.247  0.00  0.00    +0.000 C 
BRANCH  15  17
ATOM     16  N   UNL     1       0.648   9.571  19.256  0.00  0.00    +0.000 N 
ATOM     17  C   UNL     1       1.715   9.143  18.474  0.00  0.00    +0.000 C 
ATOM     18  O   UNL     1       1.844   9.331  17.264  0.00  0.00    +0.000 OA
ATOM     19  H   UNL     1       0.813   9.641  20.259  0.00  0.00    +0.000 HD
BRANCH  16  26
ATOM     20  C   UNL     1      -2.994  12.814  20.057  0.00  0.00    +0.000 C 
ATOM     21  C   UNL     1      -2.346  11.776  19.186  0.00  0.00    +0.000 A 
ATOM     22  C   UNL     1      -2.896  11.457  17.940  0.00  0.00    +0.000 A 
ATOM     23  C   UNL     1      -2.294  10.493  17.125  0.00  0.00    +0.000 A 
ATOM     24  C   UNL     1      -2.878  10.128  15.790  0.00  0.00    +0.000 C 
ATOM     25  C   UNL     1      -1.124   9.855  17.559  0.00  0.00    +0.000 A 
ATOM     26  C   UNL     1      -0.546  10.173  18.789  0.00  0.00    +0.000 A 
ATOM     27  C   UNL     1      -1.179  11.117  19.610  0.00  0.00    +0.000 A 
ENDBRANCH  16  26
ENDBRANCH  15  17
ENDBRANCH   1  15
TORSDOF 3
ENDMDL
