MODEL 1
REMARK VINA RESULT:      -8.7      0.000      0.000
REMARK  Name = 
REMARK  8 active torsions:
REMARK  status: ('A' for Active; 'I' for Inactive)
REMARK    1  A    between atoms: C_2  and  C_3
REMARK    2  A    between atoms: C_3  and  O_4
REMARK    3  A    between atoms: O_4  and  C_5
REMARK    4  A    between atoms: C_12  and  C_13
REMARK    5  A    between atoms: N_23  and  C_24
REMARK    6  A    between atoms: C_24  and  C_25
REMARK    7  A    between atoms: C_28  and  C_29
REMARK    8  A    between atoms: C_29  and  O_31
REMARK                            x       y       z     vdW  Elec       q    Type
REMARK                         _______ _______ _______ _____ _____    ______ ____
ROOT
ATOM      1  C   UNL     1       1.455   7.945  19.965  0.00  0.00    +0.000 A 
ATOM      2  C   UNL     1       1.440   6.803  20.787  0.00  0.00    +0.000 A 
ATOM      3  C   UNL     1       2.207   5.681  20.456  0.00  0.00    +0.000 A 
ATOM      4  O   UNL     1       2.151   4.572  21.321  0.00  0.00    +0.000 OA
ATOM      5  C   UNL     1       2.899   3.429  21.070  0.00  0.00    +0.000 A 
ATOM      6  O   UNL     1       2.864   2.448  21.806  0.00  0.00    +0.000 OA
ATOM      7  C   UNL     1       3.775   3.446  19.887  0.00  0.00    +0.000 A 
ATOM      8  C   UNL     1       3.853   4.489  19.047  0.00  0.00    +0.000 A 
ATOM      9  C   UNL     1       3.010   5.657  19.325  0.00  0.00    +0.000 A 
ATOM     10  C   UNL     1       3.015   6.782  18.500  0.00  0.00    +0.000 A 
ATOM     11  C   UNL     1       2.260   7.923  18.812  0.00  0.00    +0.000 A 
ATOM     12 CL   UNL     1       2.507   9.241  17.724  0.00  0.00    +0.000 Cl
ENDROOT
BRANCH   8  13
ATOM     13  C   UNL     1       4.855   4.403  17.966  0.00  0.00    +0.000 A 
ATOM     14  C   UNL     1       4.487   4.051  16.663  0.00  0.00    +0.000 A 
ATOM     15  C   UNL     1       5.455   3.986  15.658  0.00  0.00    +0.000 A 
ATOM     16  C   UNL     1       6.786   4.285  15.946  0.00  0.00    +0.000 A 
ATOM     17  C   UNL     1       7.154   4.658  17.238  0.00  0.00    +0.000 A 
ATOM     18  C   UNL     1       6.192   4.714  18.246  0.00  0.00    +0.000 A 
ENDBRANCH   8  13
BRANCH   1  19
ATOM     19  O   UNL     1       0.716   8.983  20.476  0.00  0.00    +0.000 OA
BRANCH  19  20
ATOM     20  C   UNL     1      -0.048   8.737  21.651  0.00  0.00    +0.000 C 
BRANCH  20  22
ATOM     21  O   UNL     1       0.085   9.879  23.766  0.00  0.00    +0.000 OA
ATOM     22  C   UNL     1      -0.172   9.956  22.566  0.00  0.00    +0.000 C 
ATOM     23  N   UNL     1      -0.614  11.110  21.960  0.00  0.00    +0.000 N 
ATOM     24  H   UNL     1      -0.845  11.062  20.973  0.00  0.00    +0.000 HD
BRANCH  23  25
ATOM     25  C   UNL     1      -0.856  12.332  22.701  0.00  0.00    +0.000 C 
BRANCH  25  26
ATOM     26  C   UNL     1      -2.241  12.953  22.427  0.00  0.00    +0.000 C 
ATOM     27  C   UNL     1      -2.653  12.676  20.969  0.00  0.00    +0.000 C 
ATOM     28  C   UNL     1      -4.061  13.181  20.649  0.00  0.00    +0.000 C 
ATOM     29  C   UNL     1      -5.101  12.617  21.624  0.00  0.00    +0.000 C 
ATOM     30  C   UNL     1      -4.711  12.935  23.065  0.00  0.00    +0.000 C 
ATOM     31  C   UNL     1      -3.314  12.423  23.392  0.00  0.00    +0.000 C 
BRANCH  29  32
ATOM     32  C   UNL     1      -6.484  13.178  21.345  0.00  0.00    +0.000 C 
ATOM     33  O   UNL     1      -6.710  14.149  20.636  0.00  0.00    +0.000 OA
BRANCH  32  34
ATOM     34  O   UNL     1      -7.468  12.519  21.993  0.00  0.00    +0.000 OA
ATOM     35  H   UNL     1      -8.267  12.357  21.459  0.00  0.00    +0.000 HD
ENDBRANCH  32  34
ENDBRANCH  29  32
ENDBRANCH  25  26
ENDBRANCH  23  25
ENDBRANCH  20  22
ENDBRANCH  19  20
ENDBRANCH   1  19
TORSDOF 8
ENDMDL
MODEL 2
REMARK VINA RESULT:      -8.6      0.823      1.256
REMARK  Name = 
REMARK  8 active torsions:
REMARK  status: ('A' for Active; 'I' for Inactive)
REMARK    1  A    between atoms: C_2  and  C_3
REMARK    2  A    between atoms: C_3  and  O_4
REMARK    3  A    between atoms: O_4  and  C_5
REMARK    4  A    between atoms: C_12  and  C_13
REMARK    5  A    between atoms: N_23  and  C_24
REMARK    6  A    between atoms: C_24  and  C_25
REMARK    7  A    between atoms: C_28  and  C_29
REMARK    8  A    between atoms: C_29  and  O_31
REMARK                            x       y       z     vdW  Elec       q    Type
REMARK                         _______ _______ _______ _____ _____    ______ ____
ROOT
ATOM      1  C   UNL     1       1.455   7.830  20.026  0.00  0.00    +0.000 A 
ATOM      2  C   UNL     1       1.459   6.676  20.833  0.00  0.00    +0.000 A 
ATOM      3  C   UNL     1       2.234   5.566  20.479  0.00  0.00    +0.000 A 
ATOM      4  O   UNL     1       2.198   4.445  21.329  0.00  0.00    +0.000 OA
ATOM      5  C   UNL     1       2.955   3.313  21.055  0.00  0.00    +0.000 A 
ATOM      6  O   UNL     1       2.937   2.322  21.777  0.00  0.00    +0.000 OA
ATOM      7  C   UNL     1       3.820   3.356  19.865  0.00  0.00    +0.000 A 
ATOM      8  C   UNL     1       3.881   4.413  19.039  0.00  0.00    +0.000 A 
ATOM      9  C   UNL     1       3.028   5.567  19.341  0.00  0.00    +0.000 A 
ATOM     10  C   UNL     1       3.014   6.704  18.532  0.00  0.00    +0.000 A 
ATOM     11  C   UNL     1       2.250   7.832  18.866  0.00  0.00    +0.000 A 
ATOM     12 CL   UNL     1       2.474   9.168  17.795  0.00  0.00    +0.000 Cl
ENDROOT
BRANCH   8  13
ATOM     13  C   UNL     1       4.874   4.352  17.949  0.00  0.00    +0.000 A 
ATOM     14  C   UNL     1       4.507   3.963  16.656  0.00  0.00    +0.000 A 
ATOM     15  C   UNL     1       5.467   3.923  15.641  0.00  0.00    +0.000 A 
ATOM     16  C   UNL     1       6.787   4.284  15.909  0.00  0.00    +0.000 A 
ATOM     17  C   UNL     1       7.152   4.694  17.190  0.00  0.00    +0.000 A 
ATOM     18  C   UNL     1       6.199   4.725  18.208  0.00  0.00    +0.000 A 
ENDBRANCH   8  13
BRANCH   1  19
ATOM     19  O   UNL     1       0.710   8.853  20.559  0.00  0.00    +0.000 OA
BRANCH  19  20
ATOM     20  C   UNL     1       0.168   8.669  21.862  0.00  0.00    +0.000 C 
BRANCH  20  22
ATOM     21  O   UNL     1      -0.094  10.111  23.772  0.00  0.00    +0.000 OA
ATOM     22  C   UNL     1      -0.212   9.978  22.555  0.00  0.00    +0.000 C 
ATOM     23  N   UNL     1      -0.713  10.961  21.733  0.00  0.00    +0.000 N 
ATOM     24  H   UNL     1      -0.816  10.741  20.747  0.00  0.00    +0.000 HD
BRANCH  23  25
ATOM     25  C   UNL     1      -1.189  12.232  22.243  0.00  0.00    +0.000 C 
BRANCH  25  26
ATOM     26  C   UNL     1      -2.725  12.308  22.370  0.00  0.00    +0.000 C 
ATOM     27  C   UNL     1      -3.112  12.518  23.845  0.00  0.00    +0.000 C 
ATOM     28  C   UNL     1      -4.619  12.699  24.038  0.00  0.00    +0.000 C 
ATOM     29  C   UNL     1      -5.170  13.832  23.166  0.00  0.00    +0.000 C 
ATOM     30  C   UNL     1      -4.823  13.594  21.698  0.00  0.00    +0.000 C 
ATOM     31  C   UNL     1      -3.322  13.426  21.499  0.00  0.00    +0.000 C 
BRANCH  29  32
ATOM     32  C   UNL     1      -6.677  13.959  23.308  0.00  0.00    +0.000 C 
ATOM     33  O   UNL     1      -7.489  13.564  22.482  0.00  0.00    +0.000 OA
BRANCH  32  34
ATOM     34  O   UNL     1      -7.055  14.594  24.438  0.00  0.00    +0.000 OA
ATOM     35  H   UNL     1      -7.192  14.009  25.205  0.00  0.00    +0.000 HD
ENDBRANCH  32  34
ENDBRANCH  29  32
ENDBRANCH  25  26
ENDBRANCH  23  25
ENDBRANCH  20  22
ENDBRANCH  19  20
ENDBRANCH   1  19
TORSDOF 8
ENDMDL
MODEL 3
REMARK VINA RESULT:      -8.4      1.188      1.702
REMARK  Name = 
REMARK  8 active torsions:
REMARK  status: ('A' for Active; 'I' for Inactive)
REMARK    1  A    between atoms: C_2  and  C_3
REMARK    2  A    between atoms: C_3  and  O_4
REMARK    3  A    between atoms: O_4  and  C_5
REMARK    4  A    between atoms: C_12  and  C_13
REMARK    5  A    between atoms: N_23  and  C_24
REMARK    6  A    between atoms: C_24  and  C_25
REMARK    7  A    between atoms: C_28  and  C_29
REMARK    8  A    between atoms: C_29  and  O_31
REMARK                            x       y       z     vdW  Elec       q    Type
REMARK                         _______ _______ _______ _____ _____    ______ ____
ROOT
ATOM      1  C   UNL     1       1.231   7.962  20.073  0.00  0.00    +0.000 A 
ATOM      2  C   UNL     1       1.245   6.807  20.875  0.00  0.00    +0.000 A 
ATOM      3  C   UNL     1       2.062   5.721  20.542  0.00  0.00    +0.000 A 
ATOM      4  O   UNL     1       2.032   4.596  21.387  0.00  0.00    +0.000 OA
ATOM      5  C   UNL     1       2.830   3.488  21.133  0.00  0.00    +0.000 A 
ATOM      6  O   UNL     1       2.819   2.493  21.851  0.00  0.00    +0.000 OA
ATOM      7  C   UNL     1       3.730   3.561  19.970  0.00  0.00    +0.000 A 
ATOM      8  C   UNL     1       3.785   4.621  19.150  0.00  0.00    +0.000 A 
ATOM      9  C   UNL     1       2.890   5.749  19.428  0.00  0.00    +0.000 A 
ATOM     10  C   UNL     1       2.867   6.889  18.624  0.00  0.00    +0.000 A 
ATOM     11  C   UNL     1       2.061   7.993  18.938  0.00  0.00    +0.000 A 
ATOM     12 CL   UNL     1       2.278   9.339  17.878  0.00  0.00    +0.000 Cl
ENDROOT
BRANCH   8  13
ATOM     13  C   UNL     1       4.812   4.594  18.090  0.00  0.00    +0.000 A 
ATOM     14  C   UNL     1       4.515   4.126  16.805  0.00  0.00    +0.000 A 
ATOM     15  C   UNL     1       5.505   4.120  15.819  0.00  0.00    +0.000 A 
ATOM     16  C   UNL     1       6.785   4.593  16.107  0.00  0.00    +0.000 A 
ATOM     17  C   UNL     1       7.079   5.081  17.379  0.00  0.00    +0.000 A 
ATOM     18  C   UNL     1       6.096   5.079  18.368  0.00  0.00    +0.000 A 
ENDBRANCH   8  13
BRANCH   1  19
ATOM     19  O   UNL     1       0.440   8.961  20.586  0.00  0.00    +0.000 OA
BRANCH  19  20
ATOM     20  C   UNL     1       1.049  10.221  20.846  0.00  0.00    +0.000 C 
BRANCH  20  22
ATOM     21  O   UNL     1      -0.310  12.003  19.965  0.00  0.00    +0.000 OA
ATOM     22  C   UNL     1       0.049  11.371  20.958  0.00  0.00    +0.000 C 
ATOM     23  N   UNL     1      -0.386  11.657  22.232  0.00  0.00    +0.000 N 
ATOM     24  H   UNL     1       0.002  11.110  22.994  0.00  0.00    +0.000 HD
BRANCH  23  25
ATOM     25  C   UNL     1      -1.277  12.764  22.519  0.00  0.00    +0.000 C 
BRANCH  25  26
ATOM     26  C   UNL     1      -2.726  12.327  22.816  0.00  0.00    +0.000 C 
ATOM     27  C   UNL     1      -3.102  12.726  24.255  0.00  0.00    +0.000 C 
ATOM     28  C   UNL     1      -4.561  12.410  24.590  0.00  0.00    +0.000 C 
ATOM     29  C   UNL     1      -5.525  13.043  23.582  0.00  0.00    +0.000 C 
ATOM     30  C   UNL     1      -5.176  12.607  22.162  0.00  0.00    +0.000 C 
ATOM     31  C   UNL     1      -3.727  12.931  21.818  0.00  0.00    +0.000 C 
BRANCH  29  32
ATOM     32  C   UNL     1      -6.966  12.665  23.880  0.00  0.00    +0.000 C 
ATOM     33  O   UNL     1      -7.577  11.764  23.323  0.00  0.00    +0.000 OA
BRANCH  32  34
ATOM     34  O   UNL     1      -7.543  13.453  24.812  0.00  0.00    +0.000 OA
ATOM     35  H   UNL     1      -8.122  14.150  24.452  0.00  0.00    +0.000 HD
ENDBRANCH  32  34
ENDBRANCH  29  32
ENDBRANCH  25  26
ENDBRANCH  23  25
ENDBRANCH  20  22
ENDBRANCH  19  20
ENDBRANCH   1  19
TORSDOF 8
ENDMDL
MODEL 4
REMARK VINA RESULT:      -8.3      1.495      1.811
REMARK  Name = 
REMARK  8 active torsions:
REMARK  status: ('A' for Active; 'I' for Inactive)
REMARK    1  A    between atoms: C_2  and  C_3
REMARK    2  A    between atoms: C_3  and  O_4
REMARK    3  A    between atoms: O_4  and  C_5
REMARK    4  A    between atoms: C_12  and  C_13
REMARK    5  A    between atoms: N_23  and  C_24
REMARK    6  A    between atoms: C_24  and  C_25
REMARK    7  A    between atoms: C_28  and  C_29
REMARK    8  A    between atoms: C_29  and  O_31
REMARK                            x       y       z     vdW  Elec       q    Type
REMARK                         _______ _______ _______ _____ _____    ______ ____
ROOT
ATOM      1  C   UNL     1       1.539   7.849  20.009  0.00  0.00    +0.000 A 
ATOM      2  C   UNL     1       1.540   6.697  20.818  0.00  0.00    +0.000 A 
ATOM      3  C   UNL     1       2.303   5.580  20.460  0.00  0.00    +0.000 A 
ATOM      4  O   UNL     1       2.264   4.461  21.312  0.00  0.00    +0.000 OA
ATOM      5  C   UNL     1       3.009   3.322  21.034  0.00  0.00    +0.000 A 
ATOM      6  O   UNL     1       2.989   2.333  21.758  0.00  0.00    +0.000 OA
ATOM      7  C   UNL     1       3.865   3.356  19.837  0.00  0.00    +0.000 A 
ATOM      8  C   UNL     1       3.928   4.410  19.009  0.00  0.00    +0.000 A 
ATOM      9  C   UNL     1       3.087   5.572  19.315  0.00  0.00    +0.000 A 
ATOM     10  C   UNL     1       3.077   6.708  18.505  0.00  0.00    +0.000 A 
ATOM     11  C   UNL     1       2.325   7.843  18.843  0.00  0.00    +0.000 A 
ATOM     12 CL   UNL     1       2.551   9.175  17.768  0.00  0.00    +0.000 Cl
ENDROOT
BRANCH   8  13
ATOM     13  C   UNL     1       4.912   4.340  17.911  0.00  0.00    +0.000 A 
ATOM     14  C   UNL     1       4.525   3.989  16.612  0.00  0.00    +0.000 A 
ATOM     15  C   UNL     1       5.476   3.939  15.591  0.00  0.00    +0.000 A 
ATOM     16  C   UNL     1       6.809   4.251  15.857  0.00  0.00    +0.000 A 
ATOM     17  C   UNL     1       7.196   4.622  17.144  0.00  0.00    +0.000 A 
ATOM     18  C   UNL     1       6.251   4.663  18.168  0.00  0.00    +0.000 A 
ENDBRANCH   8  13
BRANCH   1  19
ATOM     19  O   UNL     1       0.806   8.879  20.546  0.00  0.00    +0.000 OA
BRANCH  19  20
ATOM     20  C   UNL     1       0.433   9.947  19.683  0.00  0.00    +0.000 C 
BRANCH  20  22
ATOM     21  O   UNL     1       1.255  11.522  21.308  0.00  0.00    +0.000 OA
ATOM     22  C   UNL     1       0.520  11.324  20.342  0.00  0.00    +0.000 C 
ATOM     23  N   UNL     1      -0.292  12.293  19.799  0.00  0.00    +0.000 N 
ATOM     24  H   UNL     1      -0.898  12.022  19.032  0.00  0.00    +0.000 HD
BRANCH  23  25
ATOM     25  C   UNL     1      -0.383  13.630  20.354  0.00  0.00    +0.000 C 
BRANCH  25  26
ATOM     26  C   UNL     1      -1.593  13.826  21.292  0.00  0.00    +0.000 C 
ATOM     27  C   UNL     1      -2.725  12.866  20.882  0.00  0.00    +0.000 C 
ATOM     28  C   UNL     1      -3.926  12.935  21.828  0.00  0.00    +0.000 C 
ATOM     29  C   UNL     1      -3.514  12.699  23.285  0.00  0.00    +0.000 C 
ATOM     30  C   UNL     1      -2.424  13.685  23.699  0.00  0.00    +0.000 C 
ATOM     31  C   UNL     1      -1.221  13.611  22.768  0.00  0.00    +0.000 C 
BRANCH  29  32
ATOM     32  C   UNL     1      -4.698  12.841  24.226  0.00  0.00    +0.000 C 
ATOM     33  O   UNL     1      -5.276  11.905  24.762  0.00  0.00    +0.000 OA
BRANCH  32  34
ATOM     34  O   UNL     1      -5.094  14.120  24.397  0.00  0.00    +0.000 OA
ATOM     35  H   UNL     1      -6.040  14.278  24.227  0.00  0.00    +0.000 HD
ENDBRANCH  32  34
ENDBRANCH  29  32
ENDBRANCH  25  26
ENDBRANCH  23  25
ENDBRANCH  20  22
ENDBRANCH  19  20
ENDBRANCH   1  19
TORSDOF 8
ENDMDL
MODEL 5
REMARK VINA RESULT:      -8.3      1.533      1.736
REMARK  Name = 
REMARK  8 active torsions:
REMARK  status: ('A' for Active; 'I' for Inactive)
REMARK    1  A    between atoms: C_2  and  C_3
REMARK    2  A    between atoms: C_3  and  O_4
REMARK    3  A    between atoms: O_4  and  C_5
REMARK    4  A    between atoms: C_12  and  C_13
REMARK    5  A    between atoms: N_23  and  C_24
REMARK    6  A    between atoms: C_24  and  C_25
REMARK    7  A    between atoms: C_28  and  C_29
REMARK    8  A    between atoms: C_29  and  O_31
REMARK                            x       y       z     vdW  Elec       q    Type
REMARK                         _______ _______ _______ _____ _____    ______ ____
ROOT
ATOM      1  C   UNL     1       1.248   8.085  19.947  0.00  0.00    +0.000 A 
ATOM      2  C   UNL     1       1.203   6.947  20.774  0.00  0.00    +0.000 A 
ATOM      3  C   UNL     1       2.005   5.835  20.494  0.00  0.00    +0.000 A 
ATOM      4  O   UNL     1       1.916   4.729  21.360  0.00  0.00    +0.000 OA
ATOM      5  C   UNL     1       2.695   3.597  21.159  0.00  0.00    +0.000 A 
ATOM      6  O   UNL     1       2.632   2.619  21.896  0.00  0.00    +0.000 OA
ATOM      7  C   UNL     1       3.639   3.623  20.030  0.00  0.00    +0.000 A 
ATOM      8  C   UNL     1       3.751   4.665  19.191  0.00  0.00    +0.000 A 
ATOM      9  C   UNL     1       2.874   5.819  19.412  0.00  0.00    +0.000 A 
ATOM     10  C   UNL     1       2.910   6.942  18.584  0.00  0.00    +0.000 A 
ATOM     11  C   UNL     1       2.120   8.071  18.845  0.00  0.00    +0.000 A 
ATOM     12 CL   UNL     1       2.410   9.389  17.767  0.00  0.00    +0.000 Cl
ENDROOT
BRANCH   8  13
ATOM     13  C   UNL     1       4.816   4.590  18.172  0.00  0.00    +0.000 A 
ATOM     14  C   UNL     1       4.560   4.085  16.892  0.00  0.00    +0.000 A 
ATOM     15  C   UNL     1       5.585   4.035  15.944  0.00  0.00    +0.000 A 
ATOM     16  C   UNL     1       6.861   4.499  16.265  0.00  0.00    +0.000 A 
ATOM     17  C   UNL     1       7.115   5.023  17.531  0.00  0.00    +0.000 A 
ATOM     18  C   UNL     1       6.096   5.066  18.483  0.00  0.00    +0.000 A 
ENDBRANCH   8  13
BRANCH   1  19
ATOM     19  O   UNL     1       0.463   9.113  20.409  0.00  0.00    +0.000 OA
BRANCH  19  20
ATOM     20  C   UNL     1       1.021   9.985  21.386  0.00  0.00    +0.000 C 
BRANCH  20  22
ATOM     21  O   UNL     1      -0.277  11.066  23.102  0.00  0.00    +0.000 OA
ATOM     22  C   UNL     1       0.032  11.026  21.912  0.00  0.00    +0.000 C 
ATOM     23  N   UNL     1      -0.495  11.875  20.965  0.00  0.00    +0.000 N 
ATOM     24  H   UNL     1      -0.213  11.734  20.000  0.00  0.00    +0.000 HD
BRANCH  23  25
ATOM     25  C   UNL     1      -1.501  12.868  21.287  0.00  0.00    +0.000 C 
BRANCH  25  26
ATOM     26  C   UNL     1      -2.656  12.926  20.267  0.00  0.00    +0.000 C 
ATOM     27  C   UNL     1      -2.526  11.758  19.272  0.00  0.00    +0.000 C 
ATOM     28  C   UNL     1      -3.694  11.694  18.285  0.00  0.00    +0.000 C 
ATOM     29  C   UNL     1      -5.045  11.644  19.007  0.00  0.00    +0.000 C 
ATOM     30  C   UNL     1      -5.187  12.829  19.958  0.00  0.00    +0.000 C 
ATOM     31  C   UNL     1      -4.033  12.891  20.950  0.00  0.00    +0.000 C 
BRANCH  29  32
ATOM     32  C   UNL     1      -6.201  11.653  18.022  0.00  0.00    +0.000 C 
ATOM     33  O   UNL     1      -6.325  12.452  17.103  0.00  0.00    +0.000 OA
BRANCH  32  34
ATOM     34  O   UNL     1      -7.125  10.701  18.273  0.00  0.00    +0.000 OA
ATOM     35  H   UNL     1      -7.161   9.987  17.611  0.00  0.00    +0.000 HD
ENDBRANCH  32  34
ENDBRANCH  29  32
ENDBRANCH  25  26
ENDBRANCH  23  25
ENDBRANCH  20  22
ENDBRANCH  19  20
ENDBRANCH   1  19
TORSDOF 8
ENDMDL
MODEL 6
REMARK VINA RESULT:      -8.2      3.031      4.363
REMARK  Name = 
REMARK  8 active torsions:
REMARK  status: ('A' for Active; 'I' for Inactive)
REMARK    1  A    between atoms: C_2  and  C_3
REMARK    2  A    between atoms: C_3  and  O_4
REMARK    3  A    between atoms: O_4  and  C_5
REMARK    4  A    between atoms: C_12  and  C_13
REMARK    5  A    between atoms: N_23  and  C_24
REMARK    6  A    between atoms: C_24  and  C_25
REMARK    7  A    between atoms: C_28  and  C_29
REMARK    8  A    between atoms: C_29  and  O_31
REMARK                            x       y       z     vdW  Elec       q    Type
REMARK                         _______ _______ _______ _____ _____    ______ ____
ROOT
ATOM      1  C   UNL     1       1.407   8.043  19.924  0.00  0.00    +0.000 A 
ATOM      2  C   UNL     1       1.377   6.908  20.755  0.00  0.00    +0.000 A 
ATOM      3  C   UNL     1       2.150   5.783  20.447  0.00  0.00    +0.000 A 
ATOM      4  O   UNL     1       2.079   4.680  21.319  0.00  0.00    +0.000 OA
ATOM      5  C   UNL     1       2.831   3.536  21.091  0.00  0.00    +0.000 A 
ATOM      6  O   UNL     1       2.783   2.561  21.833  0.00  0.00    +0.000 OA
ATOM      7  C   UNL     1       3.730   3.545  19.925  0.00  0.00    +0.000 A 
ATOM      8  C   UNL     1       3.824   4.582  19.079  0.00  0.00    +0.000 A 
ATOM      9  C   UNL     1       2.975   5.751  19.331  0.00  0.00    +0.000 A 
ATOM     10  C   UNL     1       2.996   6.871  18.499  0.00  0.00    +0.000 A 
ATOM     11  C   UNL     1       2.234   8.013  18.788  0.00  0.00    +0.000 A 
ATOM     12 CL   UNL     1       2.501   9.323  17.695  0.00  0.00    +0.000 Cl
ENDROOT
BRANCH   8  13
ATOM     13  C   UNL     1       4.846   4.489  18.018  0.00  0.00    +0.000 A 
ATOM     14  C   UNL     1       6.198   4.725  18.292  0.00  0.00    +0.000 A 
ATOM     15  C   UNL     1       7.145   4.621  17.270  0.00  0.00    +0.000 A 
ATOM     16  C   UNL     1       6.749   4.269  15.979  0.00  0.00    +0.000 A 
ATOM     17  C   UNL     1       5.407   4.012  15.707  0.00  0.00    +0.000 A 
ATOM     18  C   UNL     1       4.458   4.124  16.722  0.00  0.00    +0.000 A 
ENDBRANCH   8  13
BRANCH   1  19
ATOM     19  O   UNL     1       0.658   9.085  20.414  0.00  0.00    +0.000 OA
BRANCH  19  20
ATOM     20  C   UNL     1       0.372   9.097  21.808  0.00  0.00    +0.000 C 
BRANCH  20  22
ATOM     21  O   UNL     1      -0.656  10.570  23.412  0.00  0.00    +0.000 OA
ATOM     22  C   UNL     1      -0.090  10.460  22.325  0.00  0.00    +0.000 C 
ATOM     23  N   UNL     1       0.144  11.524  21.484  0.00  0.00    +0.000 N 
ATOM     24  H   UNL     1       0.576  11.326  20.587  0.00  0.00    +0.000 HD
BRANCH  23  25
ATOM     25  C   UNL     1      -0.298  12.869  21.792  0.00  0.00    +0.000 C 
BRANCH  25  26
ATOM     26  C   UNL     1       0.523  13.965  21.081  0.00  0.00    +0.000 C 
ATOM     27  C   UNL     1       1.967  13.475  20.873  0.00  0.00    +0.000 C 
ATOM     28  C   UNL     1       2.819  14.474  20.087  0.00  0.00    +0.000 C 
ATOM     29  C   UNL     1       2.172  14.840  18.747  0.00  0.00    +0.000 C 
ATOM     30  C   UNL     1       0.757  15.368  18.963  0.00  0.00    +0.000 C 
ATOM     31  C   UNL     1      -0.100  14.372  19.735  0.00  0.00    +0.000 C 
BRANCH  29  32
ATOM     32  C   UNL     1       2.987  15.885  18.004  0.00  0.00    +0.000 C 
ATOM     33  O   UNL     1       3.508  15.712  16.911  0.00  0.00    +0.000 OA
BRANCH  32  34
ATOM     34  O   UNL     1       3.121  17.041  18.687  0.00  0.00    +0.000 OA
ATOM     35  H   UNL     1       3.998  17.172  19.094  0.00  0.00    +0.000 HD
ENDBRANCH  32  34
ENDBRANCH  29  32
ENDBRANCH  25  26
ENDBRANCH  23  25
ENDBRANCH  20  22
ENDBRANCH  19  20
ENDBRANCH   1  19
TORSDOF 8
ENDMDL
MODEL 7
REMARK VINA RESULT:      -8.2      0.636      1.104
REMARK  Name = 
REMARK  8 active torsions:
REMARK  status: ('A' for Active; 'I' for Inactive)
REMARK    1  A    between atoms: C_2  and  C_3
REMARK    2  A    between atoms: C_3  and  O_4
REMARK    3  A    between atoms: O_4  and  C_5
REMARK    4  A    between atoms: C_12  and  C_13
REMARK    5  A    between atoms: N_23  and  C_24
REMARK    6  A    between atoms: C_24  and  C_25
REMARK    7  A    between atoms: C_28  and  C_29
REMARK    8  A    between atoms: C_29  and  O_31
REMARK                            x       y       z     vdW  Elec       q    Type
REMARK                         _______ _______ _______ _____ _____    ______ ____
ROOT
ATOM      1  C   UNL     1       1.452   7.878  20.053  0.00  0.00    +0.000 A 
ATOM      2  C   UNL     1       1.456   6.725  20.860  0.00  0.00    +0.000 A 
ATOM      3  C   UNL     1       2.223   5.611  20.501  0.00  0.00    +0.000 A 
ATOM      4  O   UNL     1       2.186   4.490  21.350  0.00  0.00    +0.000 OA
ATOM      5  C   UNL     1       2.936   3.354  21.072  0.00  0.00    +0.000 A 
ATOM      6  O   UNL     1       2.918   2.363  21.794  0.00  0.00    +0.000 OA
ATOM      7  C   UNL     1       3.794   3.394  19.877  0.00  0.00    +0.000 A 
ATOM      8  C   UNL     1       3.855   4.450  19.050  0.00  0.00    +0.000 A 
ATOM      9  C   UNL     1       3.009   5.608  19.357  0.00  0.00    +0.000 A 
ATOM     10  C   UNL     1       2.996   6.745  18.549  0.00  0.00    +0.000 A 
ATOM     11  C   UNL     1       2.240   7.877  18.889  0.00  0.00    +0.000 A 
ATOM     12 CL   UNL     1       2.463   9.212  17.817  0.00  0.00    +0.000 Cl
ENDROOT
BRANCH   8  13
ATOM     13  C   UNL     1       4.841   4.385  17.954  0.00  0.00    +0.000 A 
ATOM     14  C   UNL     1       4.454   4.052  16.650  0.00  0.00    +0.000 A 
ATOM     15  C   UNL     1       5.407   4.007  15.630  0.00  0.00    +0.000 A 
ATOM     16  C   UNL     1       6.742   4.306  15.903  0.00  0.00    +0.000 A 
ATOM     17  C   UNL     1       7.128   4.658  17.195  0.00  0.00    +0.000 A 
ATOM     18  C   UNL     1       6.181   4.695  18.218  0.00  0.00    +0.000 A 
ENDBRANCH   8  13
BRANCH   1  19
ATOM     19  O   UNL     1       0.715   8.905  20.591  0.00  0.00    +0.000 OA
BRANCH  19  20
ATOM     20  C   UNL     1       0.936   9.235  21.957  0.00  0.00    +0.000 C 
BRANCH  20  22
ATOM     21  O   UNL     1      -0.564  10.262  23.535  0.00  0.00    +0.000 OA
ATOM     22  C   UNL     1       0.038  10.362  22.467  0.00  0.00    +0.000 C 
ATOM     23  N   UNL     1      -0.065  11.458  21.641  0.00  0.00    +0.000 N 
ATOM     24  H   UNL     1       0.434  11.428  20.758  0.00  0.00    +0.000 HD
BRANCH  23  25
ATOM     25  C   UNL     1      -0.934  12.579  21.943  0.00  0.00    +0.000 C 
BRANCH  25  26
ATOM     26  C   UNL     1      -2.420  12.306  21.634  0.00  0.00    +0.000 C 
ATOM     27  C   UNL     1      -3.303  12.992  22.693  0.00  0.00    +0.000 C 
ATOM     28  C   UNL     1      -4.797  12.845  22.397  0.00  0.00    +0.000 C 
ATOM     29  C   UNL     1      -5.149  13.344  20.992  0.00  0.00    +0.000 C 
ATOM     30  C   UNL     1      -4.303  12.626  19.943  0.00  0.00    +0.000 C 
ATOM     31  C   UNL     1      -2.814  12.780  20.225  0.00  0.00    +0.000 C 
BRANCH  29  32
ATOM     32  C   UNL     1      -6.619  13.129  20.679  0.00  0.00    +0.000 C 
ATOM     33  O   UNL     1      -7.048  12.298  19.889  0.00  0.00    +0.000 OA
BRANCH  32  34
ATOM     34  O   UNL     1      -7.435  13.979  21.338  0.00  0.00    +0.000 OA
ATOM     35  H   UNL     1      -7.242  14.072  22.289  0.00  0.00    +0.000 HD
ENDBRANCH  32  34
ENDBRANCH  29  32
ENDBRANCH  25  26
ENDBRANCH  23  25
ENDBRANCH  20  22
ENDBRANCH  19  20
ENDBRANCH   1  19
TORSDOF 8
ENDMDL
MODEL 8
REMARK VINA RESULT:      -8.2      1.332      1.937
REMARK  Name = 
REMARK  8 active torsions:
REMARK  status: ('A' for Active; 'I' for Inactive)
REMARK    1  A    between atoms: C_2  and  C_3
REMARK    2  A    between atoms: C_3  and  O_4
REMARK    3  A    between atoms: O_4  and  C_5
REMARK    4  A    between atoms: C_12  and  C_13
REMARK    5  A    between atoms: N_23  and  C_24
REMARK    6  A    between atoms: C_24  and  C_25
REMARK    7  A    between atoms: C_28  and  C_29
REMARK    8  A    between atoms: C_29  and  O_31
REMARK                            x       y       z     vdW  Elec       q    Type
REMARK                         _______ _______ _______ _____ _____    ______ ____
ROOT
ATOM      1  C   UNL     1       1.595   7.300  20.032  0.00  0.00    +0.000 A 
ATOM      2  C   UNL     1       1.791   6.098  20.738  0.00  0.00    +0.000 A 
ATOM      3  C   UNL     1       2.666   5.122  20.247  0.00  0.00    +0.000 A 
ATOM      4  O   UNL     1       2.820   3.944  21.001  0.00  0.00    +0.000 OA
ATOM      5  C   UNL     1       3.685   2.938  20.590  0.00  0.00    +0.000 A 
ATOM      6  O   UNL     1       3.834   1.900  21.225  0.00  0.00    +0.000 OA
ATOM      7  C   UNL     1       4.456   3.178  19.359  0.00  0.00    +0.000 A 
ATOM      8  C   UNL     1       4.335   4.293  18.622  0.00  0.00    +0.000 A 
ATOM      9  C   UNL     1       3.374   5.307  19.069  0.00  0.00    +0.000 A 
ATOM     10  C   UNL     1       3.171   6.492  18.361  0.00  0.00    +0.000 A 
ATOM     11  C   UNL     1       2.304   7.489  18.833  0.00  0.00    +0.000 A 
ATOM     12 CL   UNL     1       2.294   8.920  17.866  0.00  0.00    +0.000 Cl
ENDROOT
BRANCH   8  13
ATOM     13  C   UNL     1       5.252   4.439  17.475  0.00  0.00    +0.000 A 
ATOM     14  C   UNL     1       6.564   4.894  17.648  0.00  0.00    +0.000 A 
ATOM     15  C   UNL     1       7.412   5.014  16.545  0.00  0.00    +0.000 A 
ATOM     16  C   UNL     1       6.960   4.669  15.271  0.00  0.00    +0.000 A 
ATOM     17  C   UNL     1       5.661   4.195  15.096  0.00  0.00    +0.000 A 
ATOM     18  C   UNL     1       4.808   4.083  16.194  0.00  0.00    +0.000 A 
ENDBRANCH   8  13
BRANCH   1  19
ATOM     19  O   UNL     1       0.772   8.180  20.691  0.00  0.00    +0.000 OA
BRANCH  19  20
ATOM     20  C   UNL     1       1.209   9.527  20.819  0.00  0.00    +0.000 C 
BRANCH  20  22
ATOM     21  O   UNL     1      -0.575  10.494  19.524  0.00  0.00    +0.000 OA
ATOM     22  C   UNL     1       0.111  10.555  20.542  0.00  0.00    +0.000 C 
ATOM     23  N   UNL     1      -0.024  11.547  21.486  0.00  0.00    +0.000 N 
ATOM     24  H   UNL     1       0.620  11.539  22.271  0.00  0.00    +0.000 HD
BRANCH  23  25
ATOM     25  C   UNL     1      -0.967  12.638  21.336  0.00  0.00    +0.000 C 
BRANCH  25  26
ATOM     26  C   UNL     1      -2.365  12.327  21.909  0.00  0.00    +0.000 C 
ATOM     27  C   UNL     1      -2.375  12.603  23.424  0.00  0.00    +0.000 C 
ATOM     28  C   UNL     1      -3.759  12.408  24.048  0.00  0.00    +0.000 C 
ATOM     29  C   UNL     1      -4.825  13.247  23.336  0.00  0.00    +0.000 C 
ATOM     30  C   UNL     1      -4.842  12.935  21.842  0.00  0.00    +0.000 C 
ATOM     31  C   UNL     1      -3.469  13.140  21.213  0.00  0.00    +0.000 C 
BRANCH  29  32
ATOM     32  C   UNL     1      -6.207  12.993  23.913  0.00  0.00    +0.000 C 
ATOM     33  O   UNL     1      -6.754  11.899  23.954  0.00  0.00    +0.000 OA
BRANCH  32  34
ATOM     34  O   UNL     1      -6.814  14.114  24.358  0.00  0.00    +0.000 OA
ATOM     35  H   UNL     1      -7.005  14.119  25.314  0.00  0.00    +0.000 HD
ENDBRANCH  32  34
ENDBRANCH  29  32
ENDBRANCH  25  26
ENDBRANCH  23  25
ENDBRANCH  20  22
ENDBRANCH  19  20
ENDBRANCH   1  19
TORSDOF 8
ENDMDL
MODEL 9
REMARK VINA RESULT:      -8.1      3.877      5.234
REMARK  Name = 
REMARK  8 active torsions:
REMARK  status: ('A' for Active; 'I' for Inactive)
REMARK    1  A    between atoms: C_2  and  C_3
REMARK    2  A    between atoms: C_3  and  O_4
REMARK    3  A    between atoms: O_4  and  C_5
REMARK    4  A    between atoms: C_12  and  C_13
REMARK    5  A    between atoms: N_23  and  C_24
REMARK    6  A    between atoms: C_24  and  C_25
REMARK    7  A    between atoms: C_28  and  C_29
REMARK    8  A    between atoms: C_29  and  O_31
REMARK                            x       y       z     vdW  Elec       q    Type
REMARK                         _______ _______ _______ _____ _____    ______ ____
ROOT
ATOM      1  C   UNL     1       1.440   8.078  20.029  0.00  0.00    +0.000 A 
ATOM      2  C   UNL     1       1.414   6.935  20.849  0.00  0.00    +0.000 A 
ATOM      3  C   UNL     1       2.148   5.796  20.502  0.00  0.00    +0.000 A 
ATOM      4  O   UNL     1       2.083   4.686  21.365  0.00  0.00    +0.000 OA
ATOM      5  C   UNL     1       2.799   3.527  21.099  0.00  0.00    +0.000 A 
ATOM      6  O   UNL     1       2.755   2.546  21.832  0.00  0.00    +0.000 OA
ATOM      7  C   UNL     1       3.654   3.527  19.900  0.00  0.00    +0.000 A 
ATOM      8  C   UNL     1       3.742   4.571  19.061  0.00  0.00    +0.000 A 
ATOM      9  C   UNL     1       2.931   5.756  19.356  0.00  0.00    +0.000 A 
ATOM     10  C   UNL     1       2.947   6.884  18.534  0.00  0.00    +0.000 A 
ATOM     11  C   UNL     1       2.224   8.040  18.862  0.00  0.00    +0.000 A 
ATOM     12 CL   UNL     1       2.481   9.356  17.773  0.00  0.00    +0.000 Cl
ENDROOT
BRANCH   8  13
ATOM     13  C   UNL     1       4.722   4.465  17.963  0.00  0.00    +0.000 A 
ATOM     14  C   UNL     1       4.330   4.076  16.677  0.00  0.00    +0.000 A 
ATOM     15  C   UNL     1       5.278   3.992  15.654  0.00  0.00    +0.000 A 
ATOM     16  C   UNL     1       6.613   4.309  15.907  0.00  0.00    +0.000 A 
ATOM     17  C   UNL     1       7.004   4.718  17.180  0.00  0.00    +0.000 A 
ATOM     18  C   UNL     1       6.062   4.793  18.206  0.00  0.00    +0.000 A 
ENDBRANCH   8  13
BRANCH   1  19
ATOM     19  O   UNL     1       0.734   9.132  20.556  0.00  0.00    +0.000 OA
BRANCH  19  20
ATOM     20  C   UNL     1      -0.341   9.660  19.788  0.00  0.00    +0.000 C 
BRANCH  20  22
ATOM     21  O   UNL     1      -0.778  11.823  20.751  0.00  0.00    +0.000 OA
ATOM     22  C   UNL     1      -0.388  11.188  19.772  0.00  0.00    +0.000 C 
ATOM     23  N   UNL     1       0.003  11.781  18.594  0.00  0.00    +0.000 N 
ATOM     24  H   UNL     1       0.266  11.172  17.826  0.00  0.00    +0.000 HD
BRANCH  23  25
ATOM     25  C   UNL     1      -0.054  13.216  18.390  0.00  0.00    +0.000 C 
BRANCH  25  26
ATOM     26  C   UNL     1       1.213  13.956  18.868  0.00  0.00    +0.000 C 
ATOM     27  C   UNL     1       2.431  13.467  18.063  0.00  0.00    +0.000 C 
ATOM     28  C   UNL     1       3.712  14.226  18.416  0.00  0.00    +0.000 C 
ATOM     29  C   UNL     1       3.533  15.741  18.264  0.00  0.00    +0.000 C 
ATOM     30  C   UNL     1       2.352  16.226  19.100  0.00  0.00    +0.000 C 
ATOM     31  C   UNL     1       1.071  15.482  18.744  0.00  0.00    +0.000 C 
BRANCH  29  32
ATOM     32  C   UNL     1       4.784  16.492  18.684  0.00  0.00    +0.000 C 
ATOM     33  O   UNL     1       4.787  17.581  19.241  0.00  0.00    +0.000 OA
BRANCH  32  34
ATOM     34  O   UNL     1       5.927  15.855  18.350  0.00  0.00    +0.000 OA
ATOM     35  H   UNL     1       5.896  14.886  18.454  0.00  0.00    +0.000 HD
ENDBRANCH  32  34
ENDBRANCH  29  32
ENDBRANCH  25  26
ENDBRANCH  23  25
ENDBRANCH  20  22
ENDBRANCH  19  20
ENDBRANCH   1  19
TORSDOF 8
ENDMDL
