MODEL 1
REMARK VINA RESULT:      -7.5      0.000      0.000
REMARK  Name = 
REMARK  6 active torsions:
REMARK  status: ('A' for Active; 'I' for Inactive)
REMARK    1  A    between atoms: C_1  and  N_2
REMARK    2  A    between atoms: N_2  and  C_3
REMARK    3  A    between atoms: N_2  and  C_4
REMARK    4  A    between atoms: C_4  and  C_5
REMARK    5  A    between atoms: C_4  and  C_14
REMARK    6  A    between atoms: C_5  and  N_6
REMARK                            x       y       z     vdW  Elec       q    Type
REMARK                         _______ _______ _______ _____ _____    ______ ____
ROOT
ATOM      1  C   UNL     1       6.066   4.390  16.117  0.00  0.00    +0.000 C 
ENDROOT
BRANCH   1   2
ATOM      2  C   UNL     1       6.386   4.338  14.613  0.00  0.00    +0.000 A 
ATOM      3  C   UNL     1       7.421   5.127  14.085  0.00  0.00    +0.000 A 
ATOM      4  C   UNL     1       7.756   5.067  12.727  0.00  0.00    +0.000 A 
ATOM      5  C   UNL     1       7.054   4.222  11.868  0.00  0.00    +0.000 A 
ATOM      6  C   UNL     1       6.008   3.450  12.364  0.00  0.00    +0.000 A 
ATOM      7  C   UNL     1       5.678   3.517  13.716  0.00  0.00    +0.000 A 
ENDBRANCH   1   2
BRANCH   1   9
ATOM      8  C   UNL     1       6.014   6.557  17.313  0.00  0.00    +0.000 C 
ATOM      9  N   UNL     1       6.835   5.442  16.843  0.00  0.00    +0.000 NA
ATOM     10  C   UNL     1       7.604   4.889  17.958  0.00  0.00    +0.000 C 
ENDBRANCH   1   9
BRANCH   1  11
ATOM     11  C   UNL     1       4.533   4.265  16.433  0.00  0.00    +0.000 C 
BRANCH  11  12
ATOM     12  N   UNL     1       4.240   3.179  17.372  0.00  0.00    +0.000 NA
ATOM     13  C   UNL     1       3.203   3.222  18.138  0.00  0.00    +0.000 C 
ATOM     14  C   UNL     1       2.093   4.248  18.043  0.00  0.00    +0.000 C 
ATOM     15  C   UNL     1       1.733   4.887  19.378  0.00  0.00    +0.000 C 
ATOM     16  C   UNL     1       1.051   3.901  20.322  0.00  0.00    +0.000 C 
ATOM     17  C   UNL     1       2.007   3.043  21.150  0.00  0.00    +0.000 C 
ATOM     18  C   UNL     1       3.303   2.611  20.477  0.00  0.00    +0.000 C 
ATOM     19  N   UNL     1       3.115   2.222  19.083  0.00  0.00    +0.000 N 
ATOM     20  H   UNL     1       3.837   1.542  18.844  0.00  0.00    +0.000 HD
ENDBRANCH  11  12
ENDBRANCH   1  11
TORSDOF 4
ENDMDL
MODEL 2
REMARK VINA RESULT:      -7.4      0.118      1.109
REMARK  Name = 
REMARK  6 active torsions:
REMARK  status: ('A' for Active; 'I' for Inactive)
REMARK    1  A    between atoms: C_1  and  N_2
REMARK    2  A    between atoms: N_2  and  C_3
REMARK    3  A    between atoms: N_2  and  C_4
REMARK    4  A    between atoms: C_4  and  C_5
REMARK    5  A    between atoms: C_4  and  C_14
REMARK    6  A    between atoms: C_5  and  N_6
REMARK                            x       y       z     vdW  Elec       q    Type
REMARK                         _______ _______ _______ _____ _____    ______ ____
ROOT
ATOM      1  C   UNL     1       6.109   4.518  16.154  0.00  0.00    +0.000 C 
ENDROOT
BRANCH   1   2
ATOM      2  C   UNL     1       6.462   4.414  14.660  0.00  0.00    +0.000 A 
ATOM      3  C   UNL     1       5.745   3.540  13.826  0.00  0.00    +0.000 A 
ATOM      4  C   UNL     1       6.022   3.457  12.456  0.00  0.00    +0.000 A 
ATOM      5  C   UNL     1       7.029   4.243  11.896  0.00  0.00    +0.000 A 
ATOM      6  C   UNL     1       7.769   5.096  12.707  0.00  0.00    +0.000 A 
ATOM      7  C   UNL     1       7.490   5.171  14.071  0.00  0.00    +0.000 A 
ENDBRANCH   1   2
BRANCH   1   9
ATOM      8  C   UNL     1       6.000   6.756  17.207  0.00  0.00    +0.000 C 
ATOM      9  N   UNL     1       6.842   5.614  16.853  0.00  0.00    +0.000 NA
ATOM     10  C   UNL     1       7.548   5.132  18.041  0.00  0.00    +0.000 C 
ENDBRANCH   1   9
BRANCH   1  11
ATOM     11  C   UNL     1       4.573   4.372  16.445  0.00  0.00    +0.000 C 
BRANCH  11  12
ATOM     12  N   UNL     1       4.276   3.256  17.345  0.00  0.00    +0.000 NA
ATOM     13  C   UNL     1       3.236   3.274  18.107  0.00  0.00    +0.000 C 
ATOM     14  C   UNL     1       2.127   4.304  18.043  0.00  0.00    +0.000 C 
ATOM     15  C   UNL     1       1.762   4.897  19.398  0.00  0.00    +0.000 C 
ATOM     16  C   UNL     1       1.075   3.880  20.304  0.00  0.00    +0.000 C 
ATOM     17  C   UNL     1       2.026   2.994  21.107  0.00  0.00    +0.000 C 
ATOM     18  C   UNL     1       3.325   2.583  20.425  0.00  0.00    +0.000 C 
ATOM     19  N   UNL     1       3.142   2.242  19.017  0.00  0.00    +0.000 N 
ATOM     20  H   UNL     1       3.865   1.570  18.759  0.00  0.00    +0.000 HD
ENDBRANCH  11  12
ENDBRANCH   1  11
TORSDOF 4
ENDMDL
MODEL 3
REMARK VINA RESULT:      -7.3      0.971      1.507
REMARK  Name = 
REMARK  6 active torsions:
REMARK  status: ('A' for Active; 'I' for Inactive)
REMARK    1  A    between atoms: C_1  and  N_2
REMARK    2  A    between atoms: N_2  and  C_3
REMARK    3  A    between atoms: N_2  and  C_4
REMARK    4  A    between atoms: C_4  and  C_5
REMARK    5  A    between atoms: C_4  and  C_14
REMARK    6  A    between atoms: C_5  and  N_6
REMARK                            x       y       z     vdW  Elec       q    Type
REMARK                         _______ _______ _______ _____ _____    ______ ____
ROOT
ATOM      1  C   UNL     1       6.113   4.880  16.033  0.00  0.00    +0.000 C 
ENDROOT
BRANCH   1   2
ATOM      2  C   UNL     1       6.491   4.617  14.565  0.00  0.00    +0.000 A 
ATOM      3  C   UNL     1       5.770   3.678  13.809  0.00  0.00    +0.000 A 
ATOM      4  C   UNL     1       6.071   3.450  12.460  0.00  0.00    +0.000 A 
ATOM      5  C   UNL     1       7.106   4.153  11.845  0.00  0.00    +0.000 A 
ATOM      6  C   UNL     1       7.850   5.069  12.581  0.00  0.00    +0.000 A 
ATOM      7  C   UNL     1       7.547   5.288  13.924  0.00  0.00    +0.000 A 
ENDBRANCH   1   2
BRANCH   1   9
ATOM      8  C   UNL     1       5.066   6.993  16.785  0.00  0.00    +0.000 C 
ATOM      9  N   UNL     1       6.307   6.301  16.442  0.00  0.00    +0.000 NA
ATOM     10  C   UNL     1       7.266   6.431  17.540  0.00  0.00    +0.000 C 
ENDBRANCH   1   9
BRANCH   1  11
ATOM     11  C   UNL     1       4.779   4.176  16.470  0.00  0.00    +0.000 C 
BRANCH  11  12
ATOM     12  N   UNL     1       4.747   3.873  17.902  0.00  0.00    +0.000 NA
ATOM     13  C   UNL     1       3.692   3.376  18.454  0.00  0.00    +0.000 C 
ATOM     14  C   UNL     1       2.472   2.877  17.708  0.00  0.00    +0.000 C 
ATOM     15  C   UNL     1       1.156   3.415  18.257  0.00  0.00    +0.000 C 
ATOM     16  C   UNL     1       0.831   2.842  19.633  0.00  0.00    +0.000 C 
ATOM     17  C   UNL     1       1.463   3.594  20.804  0.00  0.00    +0.000 C 
ATOM     18  C   UNL     1       2.854   4.174  20.580  0.00  0.00    +0.000 C 
ATOM     19  N   UNL     1       3.727   3.277  19.829  0.00  0.00    +0.000 N 
ATOM     20  H   UNL     1       4.690   3.471  20.103  0.00  0.00    +0.000 HD
ENDBRANCH  11  12
ENDBRANCH   1  11
TORSDOF 4
ENDMDL
MODEL 4
REMARK VINA RESULT:      -7.2      0.989      1.055
REMARK  Name = 
REMARK  6 active torsions:
REMARK  status: ('A' for Active; 'I' for Inactive)
REMARK    1  A    between atoms: C_1  and  N_2
REMARK    2  A    between atoms: N_2  and  C_3
REMARK    3  A    between atoms: N_2  and  C_4
REMARK    4  A    between atoms: C_4  and  C_5
REMARK    5  A    between atoms: C_4  and  C_14
REMARK    6  A    between atoms: C_5  and  N_6
REMARK                            x       y       z     vdW  Elec       q    Type
REMARK                         _______ _______ _______ _____ _____    ______ ____
ROOT
ATOM      1  C   UNL     1       6.175   4.758  15.987  0.00  0.00    +0.000 C 
ENDROOT
BRANCH   1   2
ATOM      2  C   UNL     1       6.495   4.568  14.494  0.00  0.00    +0.000 A 
ATOM      3  C   UNL     1       7.538   5.295  13.898  0.00  0.00    +0.000 A 
ATOM      4  C   UNL     1       7.872   5.110  12.551  0.00  0.00    +0.000 A 
ATOM      5  C   UNL     1       7.161   4.197  11.772  0.00  0.00    +0.000 A 
ATOM      6  C   UNL     1       6.108   3.485  12.334  0.00  0.00    +0.000 A 
ATOM      7  C   UNL     1       5.778   3.677  13.675  0.00  0.00    +0.000 A 
ENDBRANCH   1   2
BRANCH   1   9
ATOM      8  C   UNL     1       5.045   6.845  16.693  0.00  0.00    +0.000 C 
ATOM      9  N   UNL     1       6.318   6.173  16.440  0.00  0.00    +0.000 NA
ATOM     10  C   UNL     1       7.182   6.288  17.616  0.00  0.00    +0.000 C 
ENDBRANCH   1   9
BRANCH   1  11
ATOM     11  C   UNL     1       4.899   3.973  16.457  0.00  0.00    +0.000 C 
BRANCH  11  12
ATOM     12  N   UNL     1       4.837   3.825  17.913  0.00  0.00    +0.000 NA
ATOM     13  C   UNL     1       3.768   3.396  18.494  0.00  0.00    +0.000 C 
ATOM     14  C   UNL     1       2.558   2.829  17.780  0.00  0.00    +0.000 C 
ATOM     15  C   UNL     1       1.236   3.430  18.242  0.00  0.00    +0.000 C 
ATOM     16  C   UNL     1       0.879   3.009  19.665  0.00  0.00    +0.000 C 
ATOM     17  C   UNL     1       1.495   3.878  20.761  0.00  0.00    +0.000 C 
ATOM     18  C   UNL     1       2.895   4.421  20.505  0.00  0.00    +0.000 C 
ATOM     19  N   UNL     1       3.774   3.444  19.872  0.00  0.00    +0.000 N 
ATOM     20  H   UNL     1       4.734   3.659  20.143  0.00  0.00    +0.000 HD
ENDBRANCH  11  12
ENDBRANCH   1  11
TORSDOF 4
ENDMDL
MODEL 5
REMARK VINA RESULT:      -7.1      1.223      1.543
REMARK  Name = 
REMARK  6 active torsions:
REMARK  status: ('A' for Active; 'I' for Inactive)
REMARK    1  A    between atoms: C_1  and  N_2
REMARK    2  A    between atoms: N_2  and  C_3
REMARK    3  A    between atoms: N_2  and  C_4
REMARK    4  A    between atoms: C_4  and  C_5
REMARK    5  A    between atoms: C_4  and  C_14
REMARK    6  A    between atoms: C_5  and  N_6
REMARK                            x       y       z     vdW  Elec       q    Type
REMARK                         _______ _______ _______ _____ _____    ______ ____
ROOT
ATOM      1  C   UNL     1       6.204   4.980  16.193  0.00  0.00    +0.000 C 
ENDROOT
BRANCH   1   2
ATOM      2  C   UNL     1       6.438   4.672  14.703  0.00  0.00    +0.000 A 
ATOM      3  C   UNL     1       7.481   5.306  14.008  0.00  0.00    +0.000 A 
ATOM      4  C   UNL     1       7.737   5.013  12.663  0.00  0.00    +0.000 A 
ATOM      5  C   UNL     1       6.947   4.085  11.985  0.00  0.00    +0.000 A 
ATOM      6  C   UNL     1       5.892   3.464  12.646  0.00  0.00    +0.000 A 
ATOM      7  C   UNL     1       5.641   3.764  13.984  0.00  0.00    +0.000 A 
ENDBRANCH   1   2
BRANCH   1   9
ATOM      8  C   UNL     1       7.320   6.897  17.292  0.00  0.00    +0.000 C 
ATOM      9  N   UNL     1       7.422   5.498  16.881  0.00  0.00    +0.000 NA
ATOM     10  C   UNL     1       7.797   4.671  18.029  0.00  0.00    +0.000 C 
ENDBRANCH   1   9
BRANCH   1  11
ATOM     11  C   UNL     1       4.846   5.716  16.472  0.00  0.00    +0.000 C 
BRANCH  11  12
ATOM     12  N   UNL     1       4.453   5.654  17.881  0.00  0.00    +0.000 NA
ATOM     13  C   UNL     1       3.812   4.637  18.350  0.00  0.00    +0.000 C 
ATOM     14  C   UNL     1       3.561   3.345  17.600  0.00  0.00    +0.000 C 
ATOM     15  C   UNL     1       2.111   2.881  17.647  0.00  0.00    +0.000 C 
ATOM     16  C   UNL     1       1.701   2.417  19.042  0.00  0.00    +0.000 C 
ATOM     17  C   UNL     1       1.227   3.532  19.973  0.00  0.00    +0.000 C 
ATOM     18  C   UNL     1       1.923   4.881  19.842  0.00  0.00    +0.000 C 
ATOM     19  N   UNL     1       3.364   4.758  19.648  0.00  0.00    +0.000 N 
ATOM     20  H   UNL     1       3.806   5.598  20.024  0.00  0.00    +0.000 HD
ENDBRANCH  11  12
ENDBRANCH   1  11
TORSDOF 4
ENDMDL
MODEL 6
REMARK VINA RESULT:      -7.1      1.248      1.930
REMARK  Name = 
REMARK  6 active torsions:
REMARK  status: ('A' for Active; 'I' for Inactive)
REMARK    1  A    between atoms: C_1  and  N_2
REMARK    2  A    between atoms: N_2  and  C_3
REMARK    3  A    between atoms: N_2  and  C_4
REMARK    4  A    between atoms: C_4  and  C_5
REMARK    5  A    between atoms: C_4  and  C_14
REMARK    6  A    between atoms: C_5  and  N_6
REMARK                            x       y       z     vdW  Elec       q    Type
REMARK                         _______ _______ _______ _____ _____    ______ ____
ROOT
ATOM      1  C   UNL     1       6.248   5.029  16.221  0.00  0.00    +0.000 C 
ENDROOT
BRANCH   1   2
ATOM      2  C   UNL     1       6.523   4.709  14.741  0.00  0.00    +0.000 A 
ATOM      3  C   UNL     1       5.730   3.768  14.064  0.00  0.00    +0.000 A 
ATOM      4  C   UNL     1       5.937   3.489  12.708  0.00  0.00    +0.000 A 
ATOM      5  C   UNL     1       6.950   4.141  12.005  0.00  0.00    +0.000 A 
ATOM      6  C   UNL     1       7.764   5.057  12.661  0.00  0.00    +0.000 A 
ATOM      7  C   UNL     1       7.555   5.328  14.012  0.00  0.00    +0.000 A 
ENDBRANCH   1   2
BRANCH   1   9
ATOM      8  C   UNL     1       7.318   6.979  17.308  0.00  0.00    +0.000 C 
ATOM      9  N   UNL     1       7.441   5.571  16.934  0.00  0.00    +0.000 NA
ATOM     10  C   UNL     1       7.786   4.774  18.113  0.00  0.00    +0.000 C 
ENDBRANCH   1   9
BRANCH   1  11
ATOM     11  C   UNL     1       4.873   5.749  16.458  0.00  0.00    +0.000 C 
BRANCH  11  12
ATOM     12  N   UNL     1       4.426   5.661  17.850  0.00  0.00    +0.000 NA
ATOM     13  C   UNL     1       3.849   4.598  18.298  0.00  0.00    +0.000 C 
ATOM     14  C   UNL     1       3.735   3.287  17.546  0.00  0.00    +0.000 C 
ATOM     15  C   UNL     1       2.326   2.708  17.535  0.00  0.00    +0.000 C 
ATOM     16  C   UNL     1       1.895   2.217  18.913  0.00  0.00    +0.000 C 
ATOM     17  C   UNL     1       1.292   3.294  19.815  0.00  0.00    +0.000 C 
ATOM     18  C   UNL     1       1.883   4.694  19.705  0.00  0.00    +0.000 C 
ATOM     19  N   UNL     1       3.337   4.687  19.575  0.00  0.00    +0.000 N 
ATOM     20  H   UNL     1       3.693   5.560  19.963  0.00  0.00    +0.000 HD
ENDBRANCH  11  12
ENDBRANCH   1  11
TORSDOF 4
ENDMDL
MODEL 7
REMARK VINA RESULT:      -7.0      1.503      2.111
REMARK  Name = 
REMARK  6 active torsions:
REMARK  status: ('A' for Active; 'I' for Inactive)
REMARK    1  A    between atoms: C_1  and  N_2
REMARK    2  A    between atoms: N_2  and  C_3
REMARK    3  A    between atoms: N_2  and  C_4
REMARK    4  A    between atoms: C_4  and  C_5
REMARK    5  A    between atoms: C_4  and  C_14
REMARK    6  A    between atoms: C_5  and  N_6
REMARK                            x       y       z     vdW  Elec       q    Type
REMARK                         _______ _______ _______ _____ _____    ______ ____
ROOT
ATOM      1  C   UNL     1       6.303   5.502  17.076  0.00  0.00    +0.000 C 
ENDROOT
BRANCH   1   2
ATOM      2  C   UNL     1       6.394   4.991  15.628  0.00  0.00    +0.000 A 
ATOM      3  C   UNL     1       5.344   4.235  15.080  0.00  0.00    +0.000 A 
ATOM      4  C   UNL     1       5.387   3.792  13.753  0.00  0.00    +0.000 A 
ATOM      5  C   UNL     1       6.487   4.091  12.949  0.00  0.00    +0.000 A 
ATOM      6  C   UNL     1       7.550   4.816  13.478  0.00  0.00    +0.000 A 
ATOM      7  C   UNL     1       7.502   5.251  14.802  0.00  0.00    +0.000 A 
ENDBRANCH   1   2
BRANCH   1   9
ATOM      8  C   UNL     1       7.468   7.650  17.474  0.00  0.00    +0.000 C 
ATOM      9  N   UNL     1       7.545   6.191  17.532  0.00  0.00    +0.000 NA
ATOM     10  C   UNL     1       7.946   5.770  18.875  0.00  0.00    +0.000 C 
ENDBRANCH   1   9
BRANCH   1  11
ATOM     11  C   UNL     1       4.930   6.186  17.412  0.00  0.00    +0.000 C 
BRANCH  11  12
ATOM     12  N   UNL     1       4.485   5.908  18.780  0.00  0.00    +0.000 NA
ATOM     13  C   UNL     1       3.648   4.960  19.028  0.00  0.00    +0.000 C 
ATOM     14  C   UNL     1       3.181   3.925  18.025  0.00  0.00    +0.000 C 
ATOM     15  C   UNL     1       1.669   3.750  17.984  0.00  0.00    +0.000 C 
ATOM     16  C   UNL     1       1.131   3.094  19.252  0.00  0.00    +0.000 C 
ATOM     17  C   UNL     1       0.846   4.061  20.400  0.00  0.00    +0.000 C 
ATOM     18  C   UNL     1       1.789   5.248  20.552  0.00  0.00    +0.000 C 
ATOM     19  N   UNL     1       3.187   4.892  20.326  0.00  0.00    +0.000 N 
ATOM     20  H   UNL     1       3.767   5.534  20.867  0.00  0.00    +0.000 HD
ENDBRANCH  11  12
ENDBRANCH   1  11
TORSDOF 4
ENDMDL
MODEL 8
REMARK VINA RESULT:      -6.9      2.398      4.279
REMARK  Name = 
REMARK  6 active torsions:
REMARK  status: ('A' for Active; 'I' for Inactive)
REMARK    1  A    between atoms: C_1  and  N_2
REMARK    2  A    between atoms: N_2  and  C_3
REMARK    3  A    between atoms: N_2  and  C_4
REMARK    4  A    between atoms: C_4  and  C_5
REMARK    5  A    between atoms: C_4  and  C_14
REMARK    6  A    between atoms: C_5  and  N_6
REMARK                            x       y       z     vdW  Elec       q    Type
REMARK                         _______ _______ _______ _____ _____    ______ ____
ROOT
ATOM      1  C   UNL     1       5.376   5.726  17.107  0.00  0.00    +0.000 C 
ENDROOT
BRANCH   1   2
ATOM      2  C   UNL     1       4.210   6.478  17.772  0.00  0.00    +0.000 A 
ATOM      3  C   UNL     1       3.750   6.087  19.040  0.00  0.00    +0.000 A 
ATOM      4  C   UNL     1       2.717   6.780  19.681  0.00  0.00    +0.000 A 
ATOM      5  C   UNL     1       2.116   7.875  19.060  0.00  0.00    +0.000 A 
ATOM      6  C   UNL     1       2.537   8.264  17.793  0.00  0.00    +0.000 A 
ATOM      7  C   UNL     1       3.564   7.567  17.159  0.00  0.00    +0.000 A 
ENDBRANCH   1   2
BRANCH   1   9
ATOM      8  C   UNL     1       7.572   4.716  17.641  0.00  0.00    +0.000 C 
ATOM      9  N   UNL     1       6.651   5.827  17.875  0.00  0.00    +0.000 NA
ATOM     10  C   UNL     1       7.337   7.098  17.637  0.00  0.00    +0.000 C 
ENDBRANCH   1   9
BRANCH   1  11
ATOM     11  C   UNL     1       4.973   4.313  16.554  0.00  0.00    +0.000 C 
BRANCH  11  12
ATOM     12  N   UNL     1       4.812   3.319  17.618  0.00  0.00    +0.000 NA
ATOM     13  C   UNL     1       3.643   2.906  17.972  0.00  0.00    +0.000 C 
ATOM     14  C   UNL     1       2.351   3.222  17.247  0.00  0.00    +0.000 C 
ATOM     15  C   UNL     1       1.239   3.714  18.164  0.00  0.00    +0.000 C 
ATOM     16  C   UNL     1       0.720   2.610  19.081  0.00  0.00    +0.000 C 
ATOM     17  C   UNL     1       1.513   2.429  20.375  0.00  0.00    +0.000 C 
ATOM     18  C   UNL     1       3.018   2.646  20.296  0.00  0.00    +0.000 C 
ATOM     19  N   UNL     1       3.608   2.089  19.082  0.00  0.00    +0.000 N 
ATOM     20  H   UNL     1       4.577   1.845  19.286  0.00  0.00    +0.000 HD
ENDBRANCH  11  12
ENDBRANCH   1  11
TORSDOF 4
ENDMDL
MODEL 9
REMARK VINA RESULT:      -6.8      1.245      1.586
REMARK  Name = 
REMARK  6 active torsions:
REMARK  status: ('A' for Active; 'I' for Inactive)
REMARK    1  A    between atoms: C_1  and  N_2
REMARK    2  A    between atoms: N_2  and  C_3
REMARK    3  A    between atoms: N_2  and  C_4
REMARK    4  A    between atoms: C_4  and  C_5
REMARK    5  A    between atoms: C_4  and  C_14
REMARK    6  A    between atoms: C_5  and  N_6
REMARK                            x       y       z     vdW  Elec       q    Type
REMARK                         _______ _______ _______ _____ _____    ______ ____
ROOT
ATOM      1  C   UNL     1       6.669   4.991  17.662  0.00  0.00    +0.000 C 
ENDROOT
BRANCH   1   2
ATOM      2  C   UNL     1       6.441   4.710  16.166  0.00  0.00    +0.000 A 
ATOM      3  C   UNL     1       7.455   4.990  15.234  0.00  0.00    +0.000 A 
ATOM      4  C   UNL     1       7.285   4.706  13.874  0.00  0.00    +0.000 A 
ATOM      5  C   UNL     1       6.093   4.145  13.418  0.00  0.00    +0.000 A 
ATOM      6  C   UNL     1       5.066   3.883  14.318  0.00  0.00    +0.000 A 
ATOM      7  C   UNL     1       5.240   4.171  15.671  0.00  0.00    +0.000 A 
ENDBRANCH   1   2
BRANCH   1   9
ATOM      8  C   UNL     1       7.403   7.353  17.551  0.00  0.00    +0.000 C 
ATOM      9  N   UNL     1       7.756   5.981  17.912  0.00  0.00    +0.000 NA
ATOM     10  C   UNL     1       8.228   5.939  19.297  0.00  0.00    +0.000 C 
ENDBRANCH   1   9
BRANCH   1  11
ATOM     11  C   UNL     1       5.336   5.158  18.475  0.00  0.00    +0.000 C 
BRANCH  11  12
ATOM     12  N   UNL     1       5.025   3.982  19.290  0.00  0.00    +0.000 NA
ATOM     13  C   UNL     1       3.825   3.512  19.350  0.00  0.00    +0.000 C 
ATOM     14  C   UNL     1       2.669   3.962  18.481  0.00  0.00    +0.000 C 
ATOM     15  C   UNL     1       1.399   4.274  19.263  0.00  0.00    +0.000 C 
ATOM     16  C   UNL     1       0.765   3.018  19.853  0.00  0.00    +0.000 C 
ATOM     17  C   UNL     1       1.327   2.595  21.209  0.00  0.00    +0.000 C 
ATOM     18  C   UNL     1       2.816   2.819  21.438  0.00  0.00    +0.000 C 
ATOM     19  N   UNL     1       3.624   2.500  20.265  0.00  0.00    +0.000 N 
ATOM     20  H   UNL     1       4.550   2.220  20.587  0.00  0.00    +0.000 HD
ENDBRANCH  11  12
ENDBRANCH   1  11
TORSDOF 4
ENDMDL
