MODEL 1
REMARK VINA RESULT:      -8.4      0.000      0.000
REMARK  Name = 
REMARK  4 active torsions:
REMARK  status: ('A' for Active; 'I' for Inactive)
REMARK    1  A    between atoms: C_4  and  C_5
REMARK    2  A    between atoms: C_7  and  C_8
REMARK    3  A    between atoms: N_17  and  C_18
REMARK    4  A    between atoms: C_22  and  C_23
REMARK                            x       y       z     vdW  Elec       q    Type
REMARK                         _______ _______ _______ _____ _____    ______ ____
ROOT
ATOM      1  N   UNL     1       0.990   3.479  18.356  0.00  0.00    +0.000 NA
ATOM      2  C   UNL     1       2.116   4.005  18.027  0.00  0.00    +0.000 A 
ATOM      3  S   UNL     1       3.113   3.113  16.894  0.00  0.00    +0.000 S 
ATOM      4  C   UNL     1       4.175   4.511  16.844  0.00  0.00    +0.000 A 
ATOM      5  N   UNL     1       3.893   5.484  17.655  0.00  0.00    +0.000 NA
ATOM      6  N   UNL     1       2.731   5.195  18.337  0.00  0.00    +0.000 N 
ATOM      7  H   UNL     1       0.943   2.548  17.924  0.00  0.00    +0.000 HD
ENDROOT
BRANCH   6   8
ATOM      8  C   UNL     1       2.229   6.187  19.241  0.00  0.00    +0.000 A 
ATOM      9  C   UNL     1       2.121   7.556  18.872  0.00  0.00    +0.000 A 
ATOM     10 CL   UNL     1       2.495   8.169  17.288  0.00  0.00    +0.000 Cl
ATOM     11  C   UNL     1       1.634   8.530  19.764  0.00  0.00    +0.000 A 
ATOM     12  C   UNL     1       1.198   8.182  21.042  0.00  0.00    +0.000 A 
ATOM     13  C   UNL     1       1.290   6.845  21.425  0.00  0.00    +0.000 A 
ATOM     14  C   UNL     1       1.827   5.873  20.563  0.00  0.00    +0.000 A 
ATOM     15 CL   UNL     1       2.106   4.338  21.327  0.00  0.00    +0.000 Cl
BRANCH  12  16
ATOM     16  C   UNL     1       0.653   9.206  22.003  0.00  0.00    +0.000 C 
ATOM     17  F   UNL     1       1.345   9.279  23.171  0.00  0.00    +0.000 F 
ATOM     18  F   UNL     1       0.665  10.461  21.479  0.00  0.00    +0.000 F 
ATOM     19  F   UNL     1      -0.640   8.954  22.346  0.00  0.00    +0.000 F 
ENDBRANCH  12  16
ENDBRANCH   6   8
BRANCH   4  20
ATOM     20  C   UNL     1       5.317   4.532  15.905  0.00  0.00    +0.000 A 
ATOM     21  C   UNL     1       5.202   4.048  14.589  0.00  0.00    +0.000 A 
ATOM     22  C   UNL     1       6.295   4.105  13.704  0.00  0.00    +0.000 A 
ATOM     23  C   UNL     1       7.505   4.656  14.151  0.00  0.00    +0.000 A 
ATOM     24  C   UNL     1       7.616   5.145  15.453  0.00  0.00    +0.000 A 
ATOM     25  C   UNL     1       6.526   5.086  16.318  0.00  0.00    +0.000 A 
ATOM     26  F   UNL     1       6.691   5.552  17.563  0.00  0.00    +0.000 F 
BRANCH  22  27
ATOM     27  C   UNL     1       6.180   3.594  12.284  0.00  0.00    +0.000 C 
ATOM     28  F   UNL     1       6.483   2.273  12.160  0.00  0.00    +0.000 F 
ATOM     29  F   UNL     1       4.925   3.741  11.782  0.00  0.00    +0.000 F 
ATOM     30  F   UNL     1       7.008   4.252  11.429  0.00  0.00    +0.000 F 
ENDBRANCH  22  27
ENDBRANCH   4  20
TORSDOF 4
ENDMDL
MODEL 2
REMARK VINA RESULT:      -8.4      5.748      7.728
REMARK  Name = 
REMARK  4 active torsions:
REMARK  status: ('A' for Active; 'I' for Inactive)
REMARK    1  A    between atoms: C_4  and  C_5
REMARK    2  A    between atoms: C_7  and  C_8
REMARK    3  A    between atoms: N_17  and  C_18
REMARK    4  A    between atoms: C_22  and  C_23
REMARK                            x       y       z     vdW  Elec       q    Type
REMARK                         _______ _______ _______ _____ _____    ______ ____
ROOT
ATOM      1  N   UNL     1      -0.113  13.664  18.581  0.00  0.00    +0.000 NA
ATOM      2  C   UNL     1      -0.087  12.379  18.554  0.00  0.00    +0.000 A 
ATOM      3  S   UNL     1       1.487  11.611  18.623  0.00  0.00    +0.000 S 
ATOM      4  C   UNL     1       0.647  10.075  18.770  0.00  0.00    +0.000 A 
ATOM      5  N   UNL     1      -0.646  10.108  18.667  0.00  0.00    +0.000 NA
ATOM      6  N   UNL     1      -1.066  11.414  18.533  0.00  0.00    +0.000 N 
ATOM      7  H   UNL     1       0.859  13.996  18.552  0.00  0.00    +0.000 HD
ENDROOT
BRANCH   6   8
ATOM      8  C   UNL     1      -2.477  11.651  18.463  0.00  0.00    +0.000 A 
ATOM      9  C   UNL     1      -3.220  11.429  17.271  0.00  0.00    +0.000 A 
ATOM     10 CL   UNL     1      -2.540  10.776  15.809  0.00  0.00    +0.000 Cl
ATOM     11  C   UNL     1      -4.605  11.669  17.203  0.00  0.00    +0.000 A 
ATOM     12  C   UNL     1      -5.317  12.100  18.322  0.00  0.00    +0.000 A 
ATOM     13  C   UNL     1      -4.611  12.321  19.503  0.00  0.00    +0.000 A 
ATOM     14  C   UNL     1      -3.219  12.139  19.568  0.00  0.00    +0.000 A 
ATOM     15 CL   UNL     1      -2.504  12.728  21.036  0.00  0.00    +0.000 Cl
BRANCH  12  16
ATOM     16  C   UNL     1      -6.804  12.341  18.275  0.00  0.00    +0.000 C 
ATOM     17  F   UNL     1      -7.188  13.493  18.888  0.00  0.00    +0.000 F 
ATOM     18  F   UNL     1      -7.272  12.418  17.000  0.00  0.00    +0.000 F 
ATOM     19  F   UNL     1      -7.507  11.342  18.875  0.00  0.00    +0.000 F 
ENDBRANCH  12  16
ENDBRANCH   6   8
BRANCH   4  20
ATOM     20  C   UNL     1       1.419   8.836  19.004  0.00  0.00    +0.000 A 
ATOM     21  C   UNL     1       2.337   8.345  18.057  0.00  0.00    +0.000 A 
ATOM     22  C   UNL     1       3.082   7.179  18.316  0.00  0.00    +0.000 A 
ATOM     23  C   UNL     1       2.899   6.511  19.535  0.00  0.00    +0.000 A 
ATOM     24  C   UNL     1       1.996   7.003  20.479  0.00  0.00    +0.000 A 
ATOM     25  C   UNL     1       1.268   8.160  20.212  0.00  0.00    +0.000 A 
ATOM     26  F   UNL     1       0.401   8.580  21.144  0.00  0.00    +0.000 F 
BRANCH  22  27
ATOM     27  C   UNL     1       4.077   6.647  17.307  0.00  0.00    +0.000 C 
ATOM     28  F   UNL     1       3.827   5.363  16.930  0.00  0.00    +0.000 F 
ATOM     29  F   UNL     1       4.093   7.379  16.161  0.00  0.00    +0.000 F 
ATOM     30  F   UNL     1       5.351   6.659  17.782  0.00  0.00    +0.000 F 
ENDBRANCH  22  27
ENDBRANCH   4  20
TORSDOF 4
ENDMDL
MODEL 3
REMARK VINA RESULT:      -8.3      5.724      7.783
REMARK  Name = 
REMARK  4 active torsions:
REMARK  status: ('A' for Active; 'I' for Inactive)
REMARK    1  A    between atoms: C_4  and  C_5
REMARK    2  A    between atoms: C_7  and  C_8
REMARK    3  A    between atoms: N_17  and  C_18
REMARK    4  A    between atoms: C_22  and  C_23
REMARK                            x       y       z     vdW  Elec       q    Type
REMARK                         _______ _______ _______ _____ _____    ______ ____
ROOT
ATOM      1  N   UNL     1      -0.004  13.637  18.513  0.00  0.00    +0.000 NA
ATOM      2  C   UNL     1       0.008  12.352  18.500  0.00  0.00    +0.000 A 
ATOM      3  S   UNL     1       1.572  11.566  18.590  0.00  0.00    +0.000 S 
ATOM      4  C   UNL     1       0.713  10.042  18.746  0.00  0.00    +0.000 A 
ATOM      5  N   UNL     1      -0.578  10.088  18.631  0.00  0.00    +0.000 NA
ATOM      6  N   UNL     1      -0.982  11.397  18.479  0.00  0.00    +0.000 N 
ATOM      7  H   UNL     1       0.972  13.958  18.489  0.00  0.00    +0.000 HD
ENDROOT
BRANCH   6   8
ATOM      8  C   UNL     1      -2.390  11.650  18.395  0.00  0.00    +0.000 A 
ATOM      9  C   UNL     1      -3.132  12.152  19.499  0.00  0.00    +0.000 A 
ATOM     10 CL   UNL     1      -2.426  12.589  21.028  0.00  0.00    +0.000 Cl
ATOM     11  C   UNL     1      -4.516  12.394  19.416  0.00  0.00    +0.000 A 
ATOM     12  C   UNL     1      -5.213  12.188  18.225  0.00  0.00    +0.000 A 
ATOM     13  C   UNL     1      -4.506  11.701  17.127  0.00  0.00    +0.000 A 
ATOM     14  C   UNL     1      -3.135  11.402  17.215  0.00  0.00    +0.000 A 
ATOM     15 CL   UNL     1      -2.514  10.555  15.832  0.00  0.00    +0.000 Cl
BRANCH  12  16
ATOM     16  C   UNL     1      -6.690  12.462  18.110  0.00  0.00    +0.000 C 
ATOM     17  F   UNL     1      -7.465  11.555  18.763  0.00  0.00    +0.000 F 
ATOM     18  F   UNL     1      -7.027  13.679  18.615  0.00  0.00    +0.000 F 
ATOM     19  F   UNL     1      -7.115  12.459  16.817  0.00  0.00    +0.000 F 
ENDBRANCH  12  16
ENDBRANCH   6   8
BRANCH   4  20
ATOM     20  C   UNL     1       1.469   8.797  19.000  0.00  0.00    +0.000 A 
ATOM     21  C   UNL     1       2.390   8.286  18.067  0.00  0.00    +0.000 A 
ATOM     22  C   UNL     1       3.120   7.115  18.344  0.00  0.00    +0.000 A 
ATOM     23  C   UNL     1       2.917   6.460  19.568  0.00  0.00    +0.000 A 
ATOM     24  C   UNL     1       2.010   6.971  20.497  0.00  0.00    +0.000 A 
ATOM     25  C   UNL     1       1.298   8.134  20.213  0.00  0.00    +0.000 A 
ATOM     26  F   UNL     1       0.426   8.573  21.131  0.00  0.00    +0.000 F 
BRANCH  22  27
ATOM     27  C   UNL     1       4.119   6.561  17.351  0.00  0.00    +0.000 C 
ATOM     28  F   UNL     1       3.848   5.284  16.968  0.00  0.00    +0.000 F 
ATOM     29  F   UNL     1       4.169   7.294  16.206  0.00  0.00    +0.000 F 
ATOM     30  F   UNL     1       5.385   6.546  17.847  0.00  0.00    +0.000 F 
ENDBRANCH  22  27
ENDBRANCH   4  20
TORSDOF 4
ENDMDL
MODEL 4
REMARK VINA RESULT:      -8.3      4.312      6.172
REMARK  Name = 
REMARK  4 active torsions:
REMARK  status: ('A' for Active; 'I' for Inactive)
REMARK    1  A    between atoms: C_4  and  C_5
REMARK    2  A    between atoms: C_7  and  C_8
REMARK    3  A    between atoms: N_17  and  C_18
REMARK    4  A    between atoms: C_22  and  C_23
REMARK                            x       y       z     vdW  Elec       q    Type
REMARK                         _______ _______ _______ _____ _____    ______ ____
ROOT
ATOM      1  N   UNL     1       1.859  10.888  17.822  0.00  0.00    +0.000 NA
ATOM      2  C   UNL     1       1.787   9.741  18.397  0.00  0.00    +0.000 A 
ATOM      3  S   UNL     1       2.724   8.436  17.697  0.00  0.00    +0.000 S 
ATOM      4  C   UNL     1       2.273   7.465  19.091  0.00  0.00    +0.000 A 
ATOM      5  N   UNL     1       1.435   8.000  19.924  0.00  0.00    +0.000 NA
ATOM      6  N   UNL     1       1.147   9.288  19.527  0.00  0.00    +0.000 N 
ATOM      7  H   UNL     1       2.421  10.774  16.969  0.00  0.00    +0.000 HD
ENDROOT
BRANCH   6   8
ATOM      8  C   UNL     1       0.276  10.060  20.364  0.00  0.00    +0.000 A 
ATOM      9  C   UNL     1       0.439  10.111  21.776  0.00  0.00    +0.000 A 
ATOM     10 CL   UNL     1       1.734   9.329  22.634  0.00  0.00    +0.000 Cl
ATOM     11  C   UNL     1      -0.421  10.864  22.596  0.00  0.00    +0.000 A 
ATOM     12  C   UNL     1      -1.451  11.629  22.049  0.00  0.00    +0.000 A 
ATOM     13  C   UNL     1      -1.628  11.598  20.667  0.00  0.00    +0.000 A 
ATOM     14  C   UNL     1      -0.811  10.806  19.843  0.00  0.00    +0.000 A 
ATOM     15 CL   UNL     1      -1.368  10.696  18.202  0.00  0.00    +0.000 Cl
BRANCH  12  16
ATOM     16  C   UNL     1      -2.368  12.459  22.909  0.00  0.00    +0.000 C 
ATOM     17  F   UNL     1      -1.715  13.375  23.675  0.00  0.00    +0.000 F 
ATOM     18  F   UNL     1      -3.270  13.160  22.172  0.00  0.00    +0.000 F 
ATOM     19  F   UNL     1      -3.096  11.698  23.771  0.00  0.00    +0.000 F 
ENDBRANCH  12  16
ENDBRANCH   6   8
BRANCH   4  20
ATOM     20  C   UNL     1       2.851   6.116  19.263  0.00  0.00    +0.000 A 
ATOM     21  C   UNL     1       2.183   5.110  19.985  0.00  0.00    +0.000 A 
ATOM     22  C   UNL     1       2.741   3.824  20.111  0.00  0.00    +0.000 A 
ATOM     23  C   UNL     1       3.976   3.554  19.502  0.00  0.00    +0.000 A 
ATOM     24  C   UNL     1       4.634   4.549  18.777  0.00  0.00    +0.000 A 
ATOM     25  C   UNL     1       4.069   5.817  18.657  0.00  0.00    +0.000 A 
ATOM     26  F   UNL     1       4.751   6.741  17.966  0.00  0.00    +0.000 F 
BRANCH  22  27
ATOM     27  C   UNL     1       2.027   2.733  20.880  0.00  0.00    +0.000 C 
ATOM     28  F   UNL     1       2.765   2.224  21.904  0.00  0.00    +0.000 F 
ATOM     29  F   UNL     1       0.864   3.168  21.434  0.00  0.00    +0.000 F 
ATOM     30  F   UNL     1       1.697   1.676  20.090  0.00  0.00    +0.000 F 
ENDBRANCH  22  27
ENDBRANCH   4  20
TORSDOF 4
ENDMDL
MODEL 5
REMARK VINA RESULT:      -8.2      4.385      6.041
REMARK  Name = 
REMARK  4 active torsions:
REMARK  status: ('A' for Active; 'I' for Inactive)
REMARK    1  A    between atoms: C_4  and  C_5
REMARK    2  A    between atoms: C_7  and  C_8
REMARK    3  A    between atoms: N_17  and  C_18
REMARK    4  A    between atoms: C_22  and  C_23
REMARK                            x       y       z     vdW  Elec       q    Type
REMARK                         _______ _______ _______ _____ _____    ______ ____
ROOT
ATOM      1  N   UNL     1       2.047  10.926  17.889  0.00  0.00    +0.000 NA
ATOM      2  C   UNL     1       1.880   9.751  18.383  0.00  0.00    +0.000 A 
ATOM      3  S   UNL     1       2.764   8.436  17.633  0.00  0.00    +0.000 S 
ATOM      4  C   UNL     1       2.195   7.408  18.939  0.00  0.00    +0.000 A 
ATOM      5  N   UNL     1       1.356   7.941  19.774  0.00  0.00    +0.000 NA
ATOM      6  N   UNL     1       1.166   9.268  19.454  0.00  0.00    +0.000 N 
ATOM      7  H   UNL     1       2.637  10.831  17.053  0.00  0.00    +0.000 HD
ENDROOT
BRANCH   6   8
ATOM      8  C   UNL     1       0.310  10.038  20.307  0.00  0.00    +0.000 A 
ATOM      9  C   UNL     1       0.484  10.069  21.718  0.00  0.00    +0.000 A 
ATOM     10 CL   UNL     1       1.776   9.262  22.557  0.00  0.00    +0.000 Cl
ATOM     11  C   UNL     1      -0.362  10.821  22.555  0.00  0.00    +0.000 A 
ATOM     12  C   UNL     1      -1.388  11.605  22.025  0.00  0.00    +0.000 A 
ATOM     13  C   UNL     1      -1.575  11.594  20.644  0.00  0.00    +0.000 A 
ATOM     14  C   UNL     1      -0.772  10.803  19.804  0.00  0.00    +0.000 A 
ATOM     15 CL   UNL     1      -1.343  10.721  18.166  0.00  0.00    +0.000 Cl
BRANCH  12  16
ATOM     16  C   UNL     1      -2.289  12.434  22.902  0.00  0.00    +0.000 C 
ATOM     17  F   UNL     1      -3.252  13.104  22.214  0.00  0.00    +0.000 F 
ATOM     18  F   UNL     1      -2.941  11.681  23.828  0.00  0.00    +0.000 F 
ATOM     19  F   UNL     1      -1.601  13.378  23.602  0.00  0.00    +0.000 F 
ENDBRANCH  12  16
ENDBRANCH   6   8
BRANCH   4  20
ATOM     20  C   UNL     1       2.681   6.016  19.042  0.00  0.00    +0.000 A 
ATOM     21  C   UNL     1       1.818   4.952  19.363  0.00  0.00    +0.000 A 
ATOM     22  C   UNL     1       2.298   3.631  19.426  0.00  0.00    +0.000 A 
ATOM     23  C   UNL     1       3.654   3.385  19.162  0.00  0.00    +0.000 A 
ATOM     24  C   UNL     1       4.508   4.440  18.835  0.00  0.00    +0.000 A 
ATOM     25  C   UNL     1       4.019   5.742  18.772  0.00  0.00    +0.000 A 
ATOM     26  F   UNL     1       4.885   6.720  18.471  0.00  0.00    +0.000 F 
BRANCH  22  27
ATOM     27  C   UNL     1       1.377   2.478  19.763  0.00  0.00    +0.000 C 
ATOM     28  F   UNL     1       0.218   2.487  19.048  0.00  0.00    +0.000 F 
ATOM     29  F   UNL     1       1.954   1.269  19.528  0.00  0.00    +0.000 F 
ATOM     30  F   UNL     1       1.011   2.475  21.073  0.00  0.00    +0.000 F 
ENDBRANCH  22  27
ENDBRANCH   4  20
TORSDOF 4
ENDMDL
MODEL 6
REMARK VINA RESULT:      -8.1      0.110      1.856
REMARK  Name = 
REMARK  4 active torsions:
REMARK  status: ('A' for Active; 'I' for Inactive)
REMARK    1  A    between atoms: C_4  and  C_5
REMARK    2  A    between atoms: C_7  and  C_8
REMARK    3  A    between atoms: N_17  and  C_18
REMARK    4  A    between atoms: C_22  and  C_23
REMARK                            x       y       z     vdW  Elec       q    Type
REMARK                         _______ _______ _______ _____ _____    ______ ____
ROOT
ATOM      1  N   UNL     1       1.046   3.430  18.471  0.00  0.00    +0.000 NA
ATOM      2  C   UNL     1       2.153   3.971  18.108  0.00  0.00    +0.000 A 
ATOM      3  S   UNL     1       3.147   3.073  16.977  0.00  0.00    +0.000 S 
ATOM      4  C   UNL     1       4.179   4.491  16.874  0.00  0.00    +0.000 A 
ATOM      5  N   UNL     1       3.892   5.477  17.667  0.00  0.00    +0.000 NA
ATOM      6  N   UNL     1       2.749   5.180  18.378  0.00  0.00    +0.000 N 
ATOM      7  H   UNL     1       1.010   2.487  18.062  0.00  0.00    +0.000 HD
ENDROOT
BRANCH   6   8
ATOM      8  C   UNL     1       2.244   6.183  19.268  0.00  0.00    +0.000 A 
ATOM      9  C   UNL     1       1.812   5.871  20.587  0.00  0.00    +0.000 A 
ATOM     10 CL   UNL     1       1.918   4.286  21.295  0.00  0.00    +0.000 Cl
ATOM     11  C   UNL     1       1.310   6.857  21.457  0.00  0.00    +0.000 A 
ATOM     12  C   UNL     1       1.254   8.196  21.072  0.00  0.00    +0.000 A 
ATOM     13  C   UNL     1       1.676   8.527  19.786  0.00  0.00    +0.000 A 
ATOM     14  C   UNL     1       2.126   7.544  18.889  0.00  0.00    +0.000 A 
ATOM     15 CL   UNL     1       2.339   8.123  17.265  0.00  0.00    +0.000 Cl
BRANCH  12  16
ATOM     16  C   UNL     1       0.742   9.269  21.998  0.00  0.00    +0.000 C 
ATOM     17  F   UNL     1       0.765  10.515  21.453  0.00  0.00    +0.000 F 
ATOM     18  F   UNL     1      -0.546   9.048  22.378  0.00  0.00    +0.000 F 
ATOM     19  F   UNL     1       1.466   9.346  23.148  0.00  0.00    +0.000 F 
ENDBRANCH  12  16
ENDBRANCH   6   8
BRANCH   4  20
ATOM     20  C   UNL     1       5.301   4.513  15.912  0.00  0.00    +0.000 A 
ATOM     21  C   UNL     1       5.168   4.006  14.606  0.00  0.00    +0.000 A 
ATOM     22  C   UNL     1       6.243   4.065  13.700  0.00  0.00    +0.000 A 
ATOM     23  C   UNL     1       7.454   4.640  14.114  0.00  0.00    +0.000 A 
ATOM     24  C   UNL     1       7.583   5.151  15.406  0.00  0.00    +0.000 A 
ATOM     25  C   UNL     1       6.510   5.091  16.293  0.00  0.00    +0.000 A 
ATOM     26  F   UNL     1       6.692   5.579  17.527  0.00  0.00    +0.000 F 
BRANCH  22  27
ATOM     27  C   UNL     1       6.108   3.530  12.290  0.00  0.00    +0.000 C 
ATOM     28  F   UNL     1       6.221   2.175  12.215  0.00  0.00    +0.000 F 
ATOM     29  F   UNL     1       4.907   3.839  11.733  0.00  0.00    +0.000 F 
ATOM     30  F   UNL     1       7.055   4.034  11.454  0.00  0.00    +0.000 F 
ENDBRANCH  22  27
ENDBRANCH   4  20
TORSDOF 4
ENDMDL
MODEL 7
REMARK VINA RESULT:      -8.1      0.280      1.862
REMARK  Name = 
REMARK  4 active torsions:
REMARK  status: ('A' for Active; 'I' for Inactive)
REMARK    1  A    between atoms: C_4  and  C_5
REMARK    2  A    between atoms: C_7  and  C_8
REMARK    3  A    between atoms: N_17  and  C_18
REMARK    4  A    between atoms: C_22  and  C_23
REMARK                            x       y       z     vdW  Elec       q    Type
REMARK                         _______ _______ _______ _____ _____    ______ ____
ROOT
ATOM      1  N   UNL     1       1.072   3.522  18.584  0.00  0.00    +0.000 NA
ATOM      2  C   UNL     1       2.170   4.061  18.190  0.00  0.00    +0.000 A 
ATOM      3  S   UNL     1       3.165   3.132  17.085  0.00  0.00    +0.000 S 
ATOM      4  C   UNL     1       4.178   4.558  16.919  0.00  0.00    +0.000 A 
ATOM      5  N   UNL     1       3.886   5.570  17.677  0.00  0.00    +0.000 NA
ATOM      6  N   UNL     1       2.753   5.287  18.408  0.00  0.00    +0.000 N 
ATOM      7  H   UNL     1       1.043   2.564  18.211  0.00  0.00    +0.000 HD
ENDROOT
BRANCH   6   8
ATOM      8  C   UNL     1       2.244   6.317  19.265  0.00  0.00    +0.000 A 
ATOM      9  C   UNL     1       1.857   6.057  20.608  0.00  0.00    +0.000 A 
ATOM     10 CL   UNL     1       2.028   4.511  21.387  0.00  0.00    +0.000 Cl
ATOM     11  C   UNL     1       1.351   7.069  21.445  0.00  0.00    +0.000 A 
ATOM     12  C   UNL     1       1.246   8.387  20.999  0.00  0.00    +0.000 A 
ATOM     13  C   UNL     1       1.623   8.667  19.687  0.00  0.00    +0.000 A 
ATOM     14  C   UNL     1       2.077   7.655  18.825  0.00  0.00    +0.000 A 
ATOM     15 CL   UNL     1       2.230   8.161  17.171  0.00  0.00    +0.000 Cl
BRANCH  12  16
ATOM     16  C   UNL     1       0.728   9.488  21.888  0.00  0.00    +0.000 C 
ATOM     17  F   UNL     1       0.951   9.269  23.211  0.00  0.00    +0.000 F 
ATOM     18  F   UNL     1       1.298  10.689  21.603  0.00  0.00    +0.000 F 
ATOM     19  F   UNL     1      -0.614   9.667  21.757  0.00  0.00    +0.000 F 
ENDBRANCH  12  16
ENDBRANCH   6   8
BRANCH   4  20
ATOM     20  C   UNL     1       5.293   4.556  15.947  0.00  0.00    +0.000 A 
ATOM     21  C   UNL     1       5.140   4.043  14.646  0.00  0.00    +0.000 A 
ATOM     22  C   UNL     1       6.207   4.079  13.729  0.00  0.00    +0.000 A 
ATOM     23  C   UNL     1       7.430   4.637  14.129  0.00  0.00    +0.000 A 
ATOM     24  C   UNL     1       7.579   5.155  15.417  0.00  0.00    +0.000 A 
ATOM     25  C   UNL     1       6.513   5.117  16.314  0.00  0.00    +0.000 A 
ATOM     26  F   UNL     1       6.714   5.611  17.543  0.00  0.00    +0.000 F 
BRANCH  22  27
ATOM     27  C   UNL     1       6.051   3.536  12.325  0.00  0.00    +0.000 C 
ATOM     28  F   UNL     1       6.958   4.044  11.446  0.00  0.00    +0.000 F 
ATOM     29  F   UNL     1       6.194   2.185  12.275  0.00  0.00    +0.000 F 
ATOM     30  F   UNL     1       4.825   3.806  11.800  0.00  0.00    +0.000 F 
ENDBRANCH  22  27
ENDBRANCH   4  20
TORSDOF 4
ENDMDL
MODEL 8
REMARK VINA RESULT:      -8.1      4.329      5.824
REMARK  Name = 
REMARK  4 active torsions:
REMARK  status: ('A' for Active; 'I' for Inactive)
REMARK    1  A    between atoms: C_4  and  C_5
REMARK    2  A    between atoms: C_7  and  C_8
REMARK    3  A    between atoms: N_17  and  C_18
REMARK    4  A    between atoms: C_22  and  C_23
REMARK                            x       y       z     vdW  Elec       q    Type
REMARK                         _______ _______ _______ _____ _____    ______ ____
ROOT
ATOM      1  N   UNL     1       2.056  10.917  17.895  0.00  0.00    +0.000 NA
ATOM      2  C   UNL     1       1.901   9.742  18.394  0.00  0.00    +0.000 A 
ATOM      3  S   UNL     1       2.794   8.433  17.645  0.00  0.00    +0.000 S 
ATOM      4  C   UNL     1       2.238   7.405  18.957  0.00  0.00    +0.000 A 
ATOM      5  N   UNL     1       1.398   7.933  19.793  0.00  0.00    +0.000 NA
ATOM      6  N   UNL     1       1.195   9.257  19.469  0.00  0.00    +0.000 N 
ATOM      7  H   UNL     1       2.645  10.825  17.058  0.00  0.00    +0.000 HD
ENDROOT
BRANCH   6   8
ATOM      8  C   UNL     1       0.335  10.023  20.322  0.00  0.00    +0.000 A 
ATOM      9  C   UNL     1      -0.719  10.826  19.804  0.00  0.00    +0.000 A 
ATOM     10 CL   UNL     1      -1.137  10.912  18.118  0.00  0.00    +0.000 Cl
ATOM     11  C   UNL     1      -1.558  11.582  20.643  0.00  0.00    +0.000 A 
ATOM     12  C   UNL     1      -1.415  11.542  22.030  0.00  0.00    +0.000 A 
ATOM     13  C   UNL     1      -0.392  10.759  22.562  0.00  0.00    +0.000 A 
ATOM     14  C   UNL     1       0.488  10.043  21.731  0.00  0.00    +0.000 A 
ATOM     15 CL   UNL     1       1.845   9.361  22.572  0.00  0.00    +0.000 Cl
BRANCH  12  16
ATOM     16  C   UNL     1      -2.318  12.327  22.946  0.00  0.00    +0.000 C 
ATOM     17  F   UNL     1      -3.006  11.552  23.827  0.00  0.00    +0.000 F 
ATOM     18  F   UNL     1      -1.631  13.230  23.696  0.00  0.00    +0.000 F 
ATOM     19  F   UNL     1      -3.253  13.039  22.261  0.00  0.00    +0.000 F 
ENDBRANCH  12  16
ENDBRANCH   6   8
BRANCH   4  20
ATOM     20  C   UNL     1       2.737   6.017  19.063  0.00  0.00    +0.000 A 
ATOM     21  C   UNL     1       1.907   4.962  19.486  0.00  0.00    +0.000 A 
ATOM     22  C   UNL     1       2.397   3.644  19.551  0.00  0.00    +0.000 A 
ATOM     23  C   UNL     1       3.727   3.393  19.185  0.00  0.00    +0.000 A 
ATOM     24  C   UNL     1       4.548   4.438  18.757  0.00  0.00    +0.000 A 
ATOM     25  C   UNL     1       4.050   5.737  18.694  0.00  0.00    +0.000 A 
ATOM     26  F   UNL     1       4.884   6.707  18.293  0.00  0.00    +0.000 F 
BRANCH  22  27
ATOM     27  C   UNL     1       1.510   2.501  19.997  0.00  0.00    +0.000 C 
ATOM     28  F   UNL     1       1.553   2.277  21.339  0.00  0.00    +0.000 F 
ATOM     29  F   UNL     1       0.202   2.713  19.692  0.00  0.00    +0.000 F 
ATOM     30  F   UNL     1       1.850   1.324  19.407  0.00  0.00    +0.000 F 
ENDBRANCH  22  27
ENDBRANCH   4  20
TORSDOF 4
ENDMDL
MODEL 9
REMARK VINA RESULT:      -8.0      3.865      5.923
REMARK  Name = 
REMARK  4 active torsions:
REMARK  status: ('A' for Active; 'I' for Inactive)
REMARK    1  A    between atoms: C_4  and  C_5
REMARK    2  A    between atoms: C_7  and  C_8
REMARK    3  A    between atoms: N_17  and  C_18
REMARK    4  A    between atoms: C_22  and  C_23
REMARK                            x       y       z     vdW  Elec       q    Type
REMARK                         _______ _______ _______ _____ _____    ______ ____
ROOT
ATOM      1  N   UNL     1       1.441  12.144  18.423  0.00  0.00    +0.000 NA
ATOM      2  C   UNL     1       1.342  10.905  18.751  0.00  0.00    +0.000 A 
ATOM      3  S   UNL     1       2.335   9.763  17.867  0.00  0.00    +0.000 S 
ATOM      4  C   UNL     1       1.804   8.535  19.005  0.00  0.00    +0.000 A 
ATOM      5  N   UNL     1       0.908   8.895  19.872  0.00  0.00    +0.000 NA
ATOM      6  N   UNL     1       0.635  10.237  19.723  0.00  0.00    +0.000 N 
ATOM      7  H   UNL     1       2.059  12.201  17.604  0.00  0.00    +0.000 HD
ENDROOT
BRANCH   6   8
ATOM      8  C   UNL     1      -0.295  10.829  20.639  0.00  0.00    +0.000 A 
ATOM      9  C   UNL     1      -0.213  10.611  22.042  0.00  0.00    +0.000 A 
ATOM     10 CL   UNL     1       1.045   9.688  22.810  0.00  0.00    +0.000 Cl
ATOM     11  C   UNL     1      -1.132  11.188  22.939  0.00  0.00    +0.000 A 
ATOM     12  C   UNL     1      -2.143  12.036  22.488  0.00  0.00    +0.000 A 
ATOM     13  C   UNL     1      -2.240  12.269  21.117  0.00  0.00    +0.000 A 
ATOM     14  C   UNL     1      -1.364  11.654  20.207  0.00  0.00    +0.000 A 
ATOM     15 CL   UNL     1      -1.826  11.856  18.545  0.00  0.00    +0.000 Cl
BRANCH  12  16
ATOM     16  C   UNL     1      -3.121  12.681  23.435  0.00  0.00    +0.000 C 
ATOM     17  F   UNL     1      -3.705  11.804  24.295  0.00  0.00    +0.000 F 
ATOM     18  F   UNL     1      -2.536  13.635  24.208  0.00  0.00    +0.000 F 
ATOM     19  F   UNL     1      -4.140  13.301  22.779  0.00  0.00    +0.000 F 
ENDBRANCH  12  16
ENDBRANCH   6   8
BRANCH   4  20
ATOM     20  C   UNL     1       2.382   7.175  18.941  0.00  0.00    +0.000 A 
ATOM     21  C   UNL     1       3.244   6.786  17.900  0.00  0.00    +0.000 A 
ATOM     22  C   UNL     1       3.805   5.495  17.876  0.00  0.00    +0.000 A 
ATOM     23  C   UNL     1       3.495   4.598  18.909  0.00  0.00    +0.000 A 
ATOM     24  C   UNL     1       2.647   4.988  19.947  0.00  0.00    +0.000 A 
ATOM     25  C   UNL     1       2.101   6.269  19.961  0.00  0.00    +0.000 A 
ATOM     26  F   UNL     1       1.279   6.587  20.970  0.00  0.00    +0.000 F 
BRANCH  22  27
ATOM     27  C   UNL     1       4.740   5.068  16.765  0.00  0.00    +0.000 C 
ATOM     28  F   UNL     1       6.017   4.860  17.185  0.00  0.00    +0.000 F 
ATOM     29  F   UNL     1       4.344   3.910  16.173  0.00  0.00    +0.000 F 
ATOM     30  F   UNL     1       4.816   5.994  15.771  0.00  0.00    +0.000 F 
ENDBRANCH  22  27
ENDBRANCH   4  20
TORSDOF 4
ENDMDL
