MODEL 1
REMARK VINA RESULT:      -6.4      0.000      0.000
REMARK  Name = 
REMARK  8 active torsions:
REMARK  status: ('A' for Active; 'I' for Inactive)
REMARK    1  A    between atoms: C_1  and  O_2
REMARK    2  A    between atoms: O_2  and  C_3
REMARK    3  A    between atoms: N_12  and  C_13
REMARK    4  A    between atoms: N_18  and  C_19
REMARK    5  A    between atoms: N_22  and  C_23
REMARK    6  A    between atoms: C_23  and  C_24
REMARK    7  A    between atoms: C_34  and  O_35
REMARK    8  A    between atoms: O_35  and  C_36
REMARK                            x       y       z     vdW  Elec       q    Type
REMARK                         _______ _______ _______ _____ _____    ______ ____
ROOT
ATOM      1  C   UNL     1       1.900  14.458  20.382  0.00  0.00    +0.000 A 
ATOM      2  C   UNL     1       2.781  13.766  21.224  0.00  0.00    +0.000 A 
ATOM      3  C   UNL     1       4.083  14.193  21.471  0.00  0.00    +0.000 A 
ATOM      4  N   UNL     1       4.764  13.554  22.412  0.00  0.00    +0.000 NA
ATOM      5  C   UNL     1       5.987  13.986  22.733  0.00  0.00    +0.000 A 
ATOM      6  N   UNL     1       6.612  13.483  23.860  0.00  0.00    +0.000 N 
ATOM      7  C   UNL     1       5.938  12.512  24.714  0.00  0.00    +0.000 C 
ATOM      8  C   UNL     1       5.734  12.983  26.160  0.00  0.00    +0.000 C 
ATOM      9  C   UNL     1       7.045  13.113  26.942  0.00  0.00    +0.000 C 
ATOM     10  N   UNL     1       7.720  14.412  26.834  0.00  0.00    +0.000 NA
ATOM     11  C   UNL     1       9.089  14.322  27.341  0.00  0.00    +0.000 C 
ATOM     12  C   UNL     1       7.676  15.026  25.492  0.00  0.00    +0.000 C 
ATOM     13  C   UNL     1       7.876  14.075  24.293  0.00  0.00    +0.000 C 
ATOM     14  N   UNL     1       6.607  14.909  21.987  0.00  0.00    +0.000 NA
ATOM     15  C   UNL     1       5.950  15.524  20.982  0.00  0.00    +0.000 A 
ATOM     16  N   UNL     1       6.777  16.404  20.334  0.00  0.00    +0.000 N 
ATOM     17  C   UNL     1       4.592  15.281  20.757  0.00  0.00    +0.000 A 
ATOM     18  C   UNL     1       3.688  16.011  19.946  0.00  0.00    +0.000 A 
ATOM     19  C   UNL     1       2.348  15.624  19.756  0.00  0.00    +0.000 A 
ATOM     20  H   UNL     1       7.703  16.215  20.717  0.00  0.00    +0.000 HD
ENDROOT
BRANCH  16  21
ATOM     21  C   UNL     1       6.792  16.885  18.950  0.00  0.00    +0.000 C 
ATOM     22  C   UNL     1       6.567  15.819  17.881  0.00  0.00    +0.000 C 
ATOM     23  C   UNL     1       7.761  14.892  17.579  0.00  0.00    +0.000 C 
ATOM     24  N   UNL     1       9.128  15.418  17.729  0.00  0.00    +0.000 NA
ATOM     25  C   UNL     1       9.271  16.529  18.679  0.00  0.00    +0.000 C 
ATOM     26  C   UNL     1       8.139  17.550  18.665  0.00  0.00    +0.000 C 
BRANCH  24  27
ATOM     27  C   UNL     1      10.094  14.352  18.113  0.00  0.00    +0.000 C 
BRANCH  27  28
ATOM     28  C   UNL     1       9.524  12.945  18.423  0.00  0.00    +0.000 C 
ATOM     29  C   UNL     1      10.395  11.797  17.898  0.00  0.00    +0.000 C 
ATOM     30  C   UNL     1      11.780  11.778  18.539  0.00  0.00    +0.000 C 
ATOM     31  C   UNL     1      11.743  11.769  20.067  0.00  0.00    +0.000 C 
ATOM     32  C   UNL     1      10.692  12.680  20.704  0.00  0.00    +0.000 C 
ATOM     33  C   UNL     1       9.362  12.747  19.948  0.00  0.00    +0.000 C 
ENDBRANCH  27  28
ENDBRANCH  24  27
ENDBRANCH  16  21
BRANCH   1  35
ATOM     34  C   UNL     1       0.479  12.753  19.503  0.00  0.00    +0.000 C 
ATOM     35  O   UNL     1       0.629  14.011  20.152  0.00  0.00    +0.000 OA
ENDBRANCH   1  35
BRANCH  19  36
ATOM     36  O   UNL     1       1.677  16.523  18.981  0.00  0.00    +0.000 OA
ATOM     37  C   UNL     1       2.179  17.064  17.774  0.00  0.00    +0.000 C 
ENDBRANCH  19  36
TORSDOF 5
ENDMDL
MODEL 2
REMARK VINA RESULT:      -6.2      4.595      7.616
REMARK  Name = 
REMARK  8 active torsions:
REMARK  status: ('A' for Active; 'I' for Inactive)
REMARK    1  A    between atoms: C_1  and  O_2
REMARK    2  A    between atoms: O_2  and  C_3
REMARK    3  A    between atoms: N_12  and  C_13
REMARK    4  A    between atoms: N_18  and  C_19
REMARK    5  A    between atoms: N_22  and  C_23
REMARK    6  A    between atoms: C_23  and  C_24
REMARK    7  A    between atoms: C_34  and  O_35
REMARK    8  A    between atoms: O_35  and  C_36
REMARK                            x       y       z     vdW  Elec       q    Type
REMARK                         _______ _______ _______ _____ _____    ______ ____
ROOT
ATOM      1  C   UNL     1      -2.021  15.129  23.019  0.00  0.00    +0.000 A 
ATOM      2  C   UNL     1      -0.645  15.380  23.088  0.00  0.00    +0.000 A 
ATOM      3  C   UNL     1       0.288  14.701  22.309  0.00  0.00    +0.000 A 
ATOM      4  N   UNL     1       1.539  15.141  22.337  0.00  0.00    +0.000 NA
ATOM      5  C   UNL     1       2.445  14.565  21.541  0.00  0.00    +0.000 A 
ATOM      6  N   UNL     1       3.687  15.155  21.387  0.00  0.00    +0.000 N 
ATOM      7  C   UNL     1       4.002  16.411  22.058  0.00  0.00    +0.000 C 
ATOM      8  C   UNL     1       4.357  17.560  21.105  0.00  0.00    +0.000 C 
ATOM      9  C   UNL     1       5.684  17.346  20.371  0.00  0.00    +0.000 C 
ATOM     10  N   UNL     1       5.596  16.603  19.108  0.00  0.00    +0.000 NA
ATOM     11  C   UNL     1       6.926  16.184  18.666  0.00  0.00    +0.000 C 
ATOM     12  C   UNL     1       4.645  15.474  19.116  0.00  0.00    +0.000 C 
ATOM     13  C   UNL     1       4.612  14.611  20.395  0.00  0.00    +0.000 C 
ATOM     14  N   UNL     1       2.161  13.435  20.882  0.00  0.00    +0.000 NA
ATOM     15  C   UNL     1       0.908  12.937  20.895  0.00  0.00    +0.000 A 
ATOM     16  N   UNL     1       0.848  11.765  20.186  0.00  0.00    +0.000 N 
ATOM     17  C   UNL     1      -0.135  13.631  21.516  0.00  0.00    +0.000 A 
ATOM     18  C   UNL     1      -1.529  13.410  21.406  0.00  0.00    +0.000 A 
ATOM     19  C   UNL     1      -2.480  14.148  22.135  0.00  0.00    +0.000 A 
ATOM     20  H   UNL     1       1.821  11.538  19.984  0.00  0.00    +0.000 HD
ENDROOT
BRANCH  16  21
ATOM     21  C   UNL     1      -0.023  10.594  20.315  0.00  0.00    +0.000 C 
ATOM     22  C   UNL     1       0.568   9.418  21.088  0.00  0.00    +0.000 C 
ATOM     23  C   UNL     1       1.615   8.566  20.342  0.00  0.00    +0.000 C 
ATOM     24  N   UNL     1       1.509   8.427  18.880  0.00  0.00    +0.000 NA
ATOM     25  C   UNL     1       0.821   9.529  18.194  0.00  0.00    +0.000 C 
ATOM     26  C   UNL     1      -0.396  10.091  18.920  0.00  0.00    +0.000 C 
BRANCH  24  27
ATOM     27  C   UNL     1       2.843   8.246  18.242  0.00  0.00    +0.000 C 
BRANCH  27  28
ATOM     28  C   UNL     1       3.053   6.984  17.367  0.00  0.00    +0.000 C 
ATOM     29  C   UNL     1       4.505   6.781  16.917  0.00  0.00    +0.000 C 
ATOM     30  C   UNL     1       5.455   6.570  18.094  0.00  0.00    +0.000 C 
ATOM     31  C   UNL     1       5.020   5.445  19.033  0.00  0.00    +0.000 C 
ATOM     32  C   UNL     1       3.521   5.376  19.326  0.00  0.00    +0.000 C 
ATOM     33  C   UNL     1       2.620   5.713  18.133  0.00  0.00    +0.000 C 
ENDBRANCH  27  28
ENDBRANCH  24  27
ENDBRANCH  16  21
BRANCH   1  35
ATOM     34  C   UNL     1      -3.059  15.384  25.154  0.00  0.00    +0.000 C 
ATOM     35  O   UNL     1      -2.913  15.806  23.802  0.00  0.00    +0.000 OA
ENDBRANCH   1  35
BRANCH  19  36
ATOM     36  O   UNL     1      -3.751  13.781  21.808  0.00  0.00    +0.000 OA
ATOM     37  C   UNL     1      -4.541  12.883  22.565  0.00  0.00    +0.000 C 
ENDBRANCH  19  36
TORSDOF 5
ENDMDL
MODEL 3
REMARK VINA RESULT:      -6.1      4.663      7.443
REMARK  Name = 
REMARK  8 active torsions:
REMARK  status: ('A' for Active; 'I' for Inactive)
REMARK    1  A    between atoms: C_1  and  O_2
REMARK    2  A    between atoms: O_2  and  C_3
REMARK    3  A    between atoms: N_12  and  C_13
REMARK    4  A    between atoms: N_18  and  C_19
REMARK    5  A    between atoms: N_22  and  C_23
REMARK    6  A    between atoms: C_23  and  C_24
REMARK    7  A    between atoms: C_34  and  O_35
REMARK    8  A    between atoms: O_35  and  C_36
REMARK                            x       y       z     vdW  Elec       q    Type
REMARK                         _______ _______ _______ _____ _____    ______ ____
ROOT
ATOM      1  C   UNL     1      -2.924  14.009  21.341  0.00  0.00    +0.000 A 
ATOM      2  C   UNL     1      -1.688  14.425  21.853  0.00  0.00    +0.000 A 
ATOM      3  C   UNL     1      -0.480  13.841  21.484  0.00  0.00    +0.000 A 
ATOM      4  N   UNL     1       0.633  14.427  21.903  0.00  0.00    +0.000 NA
ATOM      5  C   UNL     1       1.811  13.942  21.502  0.00  0.00    +0.000 A 
ATOM      6  N   UNL     1       2.963  14.672  21.737  0.00  0.00    +0.000 N 
ATOM      7  C   UNL     1       2.897  15.974  22.388  0.00  0.00    +0.000 C 
ATOM      8  C   UNL     1       3.437  17.131  21.536  0.00  0.00    +0.000 C 
ATOM      9  C   UNL     1       4.951  17.056  21.310  0.00  0.00    +0.000 C 
ATOM     10  N   UNL     1       5.379  16.273  20.144  0.00  0.00    +0.000 NA
ATOM     11  C   UNL     1       6.815  16.004  20.207  0.00  0.00    +0.000 C 
ATOM     12  C   UNL     1       4.604  15.039  19.907  0.00  0.00    +0.000 C 
ATOM     13  C   UNL     1       4.223  14.214  21.155  0.00  0.00    +0.000 C 
ATOM     14  N   UNL     1       1.888  12.768  20.862  0.00  0.00    +0.000 NA
ATOM     15  C   UNL     1       0.765  12.124  20.485  0.00  0.00    +0.000 A 
ATOM     16  N   UNL     1       1.073  10.934  19.878  0.00  0.00    +0.000 N 
ATOM     17  C   UNL     1      -0.493  12.706  20.668  0.00  0.00    +0.000 A 
ATOM     18  C   UNL     1      -1.734  12.317  20.109  0.00  0.00    +0.000 A 
ATOM     19  C   UNL     1      -2.949  12.956  20.422  0.00  0.00    +0.000 A 
ATOM     20  H   UNL     1       2.074  10.820  20.033  0.00  0.00    +0.000 HD
ENDROOT
BRANCH  16  21
ATOM     21  C   UNL     1       0.336   9.671  19.784  0.00  0.00    +0.000 C 
ATOM     22  C   UNL     1       0.965   8.488  20.514  0.00  0.00    +0.000 C 
ATOM     23  C   UNL     1       2.185   7.834  19.833  0.00  0.00    +0.000 C 
ATOM     24  N   UNL     1       2.270   7.843  18.364  0.00  0.00    +0.000 NA
ATOM     25  C   UNL     1       1.543   8.933  17.700  0.00  0.00    +0.000 C 
ATOM     26  C   UNL     1       0.192   9.284  18.312  0.00  0.00    +0.000 C 
BRANCH  24  27
ATOM     27  C   UNL     1       3.681   7.871  17.889  0.00  0.00    +0.000 C 
BRANCH  27  28
ATOM     28  C   UNL     1       4.159   6.701  16.991  0.00  0.00    +0.000 C 
ATOM     29  C   UNL     1       5.677   6.672  16.772  0.00  0.00    +0.000 C 
ATOM     30  C   UNL     1       6.448   6.471  18.074  0.00  0.00    +0.000 C 
ATOM     31  C   UNL     1       5.996   5.245  18.866  0.00  0.00    +0.000 C 
ATOM     32  C   UNL     1       4.485   5.010  18.908  0.00  0.00    +0.000 C 
ATOM     33  C   UNL     1       3.751   5.342  17.605  0.00  0.00    +0.000 C 
ENDBRANCH  27  28
ENDBRANCH  24  27
ENDBRANCH  16  21
BRANCH   1  35
ATOM     34  C   UNL     1      -4.453  15.827  21.109  0.00  0.00    +0.000 C 
ATOM     35  O   UNL     1      -4.095  14.596  21.728  0.00  0.00    +0.000 OA
ENDBRANCH   1  35
BRANCH  19  36
ATOM     36  O   UNL     1      -3.985  12.430  19.710  0.00  0.00    +0.000 OA
ATOM     37  C   UNL     1      -3.835  11.695  18.511  0.00  0.00    +0.000 C 
ENDBRANCH  19  36
TORSDOF 5
ENDMDL
MODEL 4
REMARK VINA RESULT:      -6.0      0.685      1.090
REMARK  Name = 
REMARK  8 active torsions:
REMARK  status: ('A' for Active; 'I' for Inactive)
REMARK    1  A    between atoms: C_1  and  O_2
REMARK    2  A    between atoms: O_2  and  C_3
REMARK    3  A    between atoms: N_12  and  C_13
REMARK    4  A    between atoms: N_18  and  C_19
REMARK    5  A    between atoms: N_22  and  C_23
REMARK    6  A    between atoms: C_23  and  C_24
REMARK    7  A    between atoms: C_34  and  O_35
REMARK    8  A    between atoms: O_35  and  C_36
REMARK                            x       y       z     vdW  Elec       q    Type
REMARK                         _______ _______ _______ _____ _____    ______ ____
ROOT
ATOM      1  C   UNL     1       1.979  14.474  20.330  0.00  0.00    +0.000 A 
ATOM      2  C   UNL     1       2.839  13.790  21.199  0.00  0.00    +0.000 A 
ATOM      3  C   UNL     1       4.135  14.217  21.471  0.00  0.00    +0.000 A 
ATOM      4  N   UNL     1       4.794  13.587  22.435  0.00  0.00    +0.000 NA
ATOM      5  C   UNL     1       6.009  14.021  22.779  0.00  0.00    +0.000 A 
ATOM      6  N   UNL     1       6.608  13.529  23.925  0.00  0.00    +0.000 N 
ATOM      7  C   UNL     1       5.912  12.568  24.773  0.00  0.00    +0.000 C 
ATOM      8  C   UNL     1       5.675  13.053  26.210  0.00  0.00    +0.000 C 
ATOM      9  C   UNL     1       6.968  13.189  27.020  0.00  0.00    +0.000 C 
ATOM     10  N   UNL     1       7.647  14.487  26.915  0.00  0.00    +0.000 NA
ATOM     11  C   UNL     1       9.004  14.400  27.455  0.00  0.00    +0.000 C 
ATOM     12  C   UNL     1       7.635  15.087  25.567  0.00  0.00    +0.000 C 
ATOM     13  C   UNL     1       7.862  14.124  24.382  0.00  0.00    +0.000 C 
ATOM     14  N   UNL     1       6.647  14.936  22.038  0.00  0.00    +0.000 NA
ATOM     15  C   UNL     1       6.014  15.542  21.013  0.00  0.00    +0.000 A 
ATOM     16  N   UNL     1       6.858  16.414  20.375  0.00  0.00    +0.000 N 
ATOM     17  C   UNL     1       4.661  15.298  20.758  0.00  0.00    +0.000 A 
ATOM     18  C   UNL     1       3.778  16.020  19.920  0.00  0.00    +0.000 A 
ATOM     19  C   UNL     1       2.442  15.634  19.703  0.00  0.00    +0.000 A 
ATOM     20  H   UNL     1       7.774  16.228  20.782  0.00  0.00    +0.000 HD
ENDROOT
BRANCH  16  21
ATOM     21  C   UNL     1       6.905  16.882  18.987  0.00  0.00    +0.000 C 
ATOM     22  C   UNL     1       6.710  15.804  17.924  0.00  0.00    +0.000 C 
ATOM     23  C   UNL     1       7.915  14.878  17.661  0.00  0.00    +0.000 C 
ATOM     24  N   UNL     1       9.276  15.411  17.839  0.00  0.00    +0.000 NA
ATOM     25  C   UNL     1       9.391  16.532  18.782  0.00  0.00    +0.000 C 
ATOM     26  C   UNL     1       8.256  17.549  18.729  0.00  0.00    +0.000 C 
BRANCH  24  27
ATOM     27  C   UNL     1      10.236  14.353  18.258  0.00  0.00    +0.000 C 
BRANCH  27  28
ATOM     28  C   UNL     1      10.689  14.343  19.741  0.00  0.00    +0.000 C 
ATOM     29  C   UNL     1       9.686  13.673  20.688  0.00  0.00    +0.000 C 
ATOM     30  C   UNL     1       9.476  12.196  20.361  0.00  0.00    +0.000 C 
ATOM     31  C   UNL     1      10.776  11.395  20.300  0.00  0.00    +0.000 C 
ATOM     32  C   UNL     1      11.950  12.099  19.618  0.00  0.00    +0.000 C 
ATOM     33  C   UNL     1      12.039  13.603  19.891  0.00  0.00    +0.000 C 
ENDBRANCH  27  28
ENDBRANCH  24  27
ENDBRANCH  16  21
BRANCH   1  35
ATOM     34  C   UNL     1       0.521  13.208  18.926  0.00  0.00    +0.000 C 
ATOM     35  O   UNL     1       0.713  14.026  20.075  0.00  0.00    +0.000 OA
ENDBRANCH   1  35
BRANCH  19  36
ATOM     36  O   UNL     1       1.791  16.525  18.903  0.00  0.00    +0.000 OA
ATOM     37  C   UNL     1       1.144  17.692  19.374  0.00  0.00    +0.000 C 
ENDBRANCH  19  36
TORSDOF 5
ENDMDL
MODEL 5
REMARK VINA RESULT:      -6.0      4.597      9.152
REMARK  Name = 
REMARK  8 active torsions:
REMARK  status: ('A' for Active; 'I' for Inactive)
REMARK    1  A    between atoms: C_1  and  O_2
REMARK    2  A    between atoms: O_2  and  C_3
REMARK    3  A    between atoms: N_12  and  C_13
REMARK    4  A    between atoms: N_18  and  C_19
REMARK    5  A    between atoms: N_22  and  C_23
REMARK    6  A    between atoms: C_23  and  C_24
REMARK    7  A    between atoms: C_34  and  O_35
REMARK    8  A    between atoms: O_35  and  C_36
REMARK                            x       y       z     vdW  Elec       q    Type
REMARK                         _______ _______ _______ _____ _____    ______ ____
ROOT
ATOM      1  C   UNL     1       1.573   9.672  18.567  0.00  0.00    +0.000 A 
ATOM      2  C   UNL     1       2.027  10.941  18.185  0.00  0.00    +0.000 A 
ATOM      3  C   UNL     1       1.905  12.065  18.998  0.00  0.00    +0.000 A 
ATOM      4  N   UNL     1       2.520  13.171  18.602  0.00  0.00    +0.000 NA
ATOM      5  C   UNL     1       2.492  14.246  19.395  0.00  0.00    +0.000 A 
ATOM      6  N   UNL     1       3.314  15.322  19.110  0.00  0.00    +0.000 N 
ATOM      7  C   UNL     1       4.227  15.280  17.975  0.00  0.00    +0.000 C 
ATOM      8  C   UNL     1       5.707  15.427  18.353  0.00  0.00    +0.000 C 
ATOM      9  C   UNL     1       6.057  16.820  18.885  0.00  0.00    +0.000 C 
ATOM     10  N   UNL     1       5.884  17.006  20.331  0.00  0.00    +0.000 NA
ATOM     11  C   UNL     1       5.934  18.428  20.674  0.00  0.00    +0.000 C 
ATOM     12  C   UNL     1       4.693  16.350  20.904  0.00  0.00    +0.000 C 
ATOM     13  C   UNL     1       3.397  16.423  20.068  0.00  0.00    +0.000 C 
ATOM     14  N   UNL     1       1.693  14.287  20.469  0.00  0.00    +0.000 NA
ATOM     15  C   UNL     1       1.009  13.189  20.849  0.00  0.00    +0.000 A 
ATOM     16  N   UNL     1       0.234  13.461  21.947  0.00  0.00    +0.000 N 
ATOM     17  C   UNL     1       1.187  11.967  20.193  0.00  0.00    +0.000 A 
ATOM     18  C   UNL     1       0.775  10.677  20.605  0.00  0.00    +0.000 A 
ATOM     19  C   UNL     1       0.965   9.526  19.818  0.00  0.00    +0.000 A 
ATOM     20  H   UNL     1       0.292  14.473  22.056  0.00  0.00    +0.000 HD
ENDROOT
BRANCH  16  21
ATOM     21  C   UNL     1      -1.030  12.883  22.412  0.00  0.00    +0.000 C 
ATOM     22  C   UNL     1      -2.065  12.607  21.326  0.00  0.00    +0.000 C 
ATOM     23  C   UNL     1      -2.822  13.832  20.775  0.00  0.00    +0.000 C 
ATOM     24  N   UNL     1      -3.069  14.977  21.667  0.00  0.00    +0.000 NA
ATOM     25  C   UNL     1      -2.114  15.128  22.773  0.00  0.00    +0.000 C 
ATOM     26  C   UNL     1      -1.668  13.828  23.431  0.00  0.00    +0.000 C 
BRANCH  24  27
ATOM     27  C   UNL     1      -3.118  16.263  20.919  0.00  0.00    +0.000 C 
BRANCH  27  28
ATOM     28  C   UNL     1      -1.934  17.246  21.105  0.00  0.00    +0.000 C 
ATOM     29  C   UNL     1      -0.630  16.772  20.452  0.00  0.00    +0.000 C 
ATOM     30  C   UNL     1      -0.755  16.635  18.936  0.00  0.00    +0.000 C 
ATOM     31  C   UNL     1      -1.270  17.900  18.252  0.00  0.00    +0.000 C 
ATOM     32  C   UNL     1      -2.400  18.629  18.981  0.00  0.00    +0.000 C 
ATOM     33  C   UNL     1      -2.278  18.631  20.508  0.00  0.00    +0.000 C 
ENDBRANCH  27  28
ENDBRANCH  24  27
ENDBRANCH  16  21
BRANCH   1  35
ATOM     34  C   UNL     1       2.921   7.859  17.796  0.00  0.00    +0.000 C 
ATOM     35  O   UNL     1       1.699   8.588  17.745  0.00  0.00    +0.000 OA
ENDBRANCH   1  35
BRANCH  19  36
ATOM     36  O   UNL     1       0.533   8.406  20.463  0.00  0.00    +0.000 OA
ATOM     37  C   UNL     1       1.386   7.470  21.093  0.00  0.00    +0.000 C 
ENDBRANCH  19  36
TORSDOF 5
ENDMDL
MODEL 6
REMARK VINA RESULT:      -5.8      5.060      7.904
REMARK  Name = 
REMARK  8 active torsions:
REMARK  status: ('A' for Active; 'I' for Inactive)
REMARK    1  A    between atoms: C_1  and  O_2
REMARK    2  A    between atoms: O_2  and  C_3
REMARK    3  A    between atoms: N_12  and  C_13
REMARK    4  A    between atoms: N_18  and  C_19
REMARK    5  A    between atoms: N_22  and  C_23
REMARK    6  A    between atoms: C_23  and  C_24
REMARK    7  A    between atoms: C_34  and  O_35
REMARK    8  A    between atoms: O_35  and  C_36
REMARK                            x       y       z     vdW  Elec       q    Type
REMARK                         _______ _______ _______ _____ _____    ______ ____
ROOT
ATOM      1  C   UNL     1      -3.196  11.569  17.988  0.00  0.00    +0.000 A 
ATOM      2  C   UNL     1      -2.491  12.365  18.899  0.00  0.00    +0.000 A 
ATOM      3  C   UNL     1      -1.179  12.097  19.281  0.00  0.00    +0.000 A 
ATOM      4  N   UNL     1      -0.560  13.012  20.016  0.00  0.00    +0.000 NA
ATOM      5  C   UNL     1       0.724  12.826  20.334  0.00  0.00    +0.000 A 
ATOM      6  N   UNL     1       1.442  13.867  20.894  0.00  0.00    +0.000 N 
ATOM      7  C   UNL     1       0.821  15.167  21.111  0.00  0.00    +0.000 C 
ATOM      8  C   UNL     1       1.499  16.321  20.359  0.00  0.00    +0.000 C 
ATOM      9  C   UNL     1       2.902  16.640  20.884  0.00  0.00    +0.000 C 
ATOM     10  N   UNL     1       3.996  15.874  20.273  0.00  0.00    +0.000 NA
ATOM     11  C   UNL     1       5.223  16.020  21.056  0.00  0.00    +0.000 C 
ATOM     12  C   UNL     1       3.687  14.456  20.005  0.00  0.00    +0.000 C 
ATOM     13  C   UNL     1       2.882  13.709  21.090  0.00  0.00    +0.000 C 
ATOM     14  N   UNL     1       1.326  11.652  20.102  0.00  0.00    +0.000 NA
ATOM     15  C   UNL     1       0.687  10.685  19.412  0.00  0.00    +0.000 A 
ATOM     16  N   UNL     1       1.471   9.564  19.320  0.00  0.00    +0.000 N 
ATOM     17  C   UNL     1      -0.571  10.916  18.849  0.00  0.00    +0.000 A 
ATOM     18  C   UNL     1      -1.262  10.137  17.889  0.00  0.00    +0.000 A 
ATOM     19  C   UNL     1      -2.560  10.450  17.442  0.00  0.00    +0.000 A 
ATOM     20  H   UNL     1       2.256   9.748  19.943  0.00  0.00    +0.000 HD
ENDROOT
BRANCH  16  21
ATOM     21  C   UNL     1       1.126   8.145  19.198  0.00  0.00    +0.000 C 
ATOM     22  C   UNL     1       1.989   7.187  20.015  0.00  0.00    +0.000 C 
ATOM     23  C   UNL     1       3.400   6.899  19.464  0.00  0.00    +0.000 C 
ATOM     24  N   UNL     1       3.615   6.925  18.008  0.00  0.00    +0.000 NA
ATOM     25  C   UNL     1       2.678   7.767  17.251  0.00  0.00    +0.000 C 
ATOM     26  C   UNL     1       1.232   7.727  17.731  0.00  0.00    +0.000 C 
BRANCH  24  27
ATOM     27  C   UNL     1       5.000   7.345  17.659  0.00  0.00    +0.000 C 
BRANCH  27  28
ATOM     28  C   UNL     1       5.941   6.276  17.046  0.00  0.00    +0.000 C 
ATOM     29  C   UNL     1       7.411   6.711  16.984  0.00  0.00    +0.000 C 
ATOM     30  C   UNL     1       8.001   6.965  18.369  0.00  0.00    +0.000 C 
ATOM     31  C   UNL     1       7.829   5.789  19.329  0.00  0.00    +0.000 C 
ATOM     32  C   UNL     1       6.473   5.084  19.268  0.00  0.00    +0.000 C 
ATOM     33  C   UNL     1       5.878   4.964  17.862  0.00  0.00    +0.000 C 
ENDBRANCH  27  28
ENDBRANCH  24  27
ENDBRANCH  16  21
BRANCH   1  35
ATOM     34  C   UNL     1      -5.520  11.091  18.252  0.00  0.00    +0.000 C 
ATOM     35  O   UNL     1      -4.486  11.852  17.637  0.00  0.00    +0.000 OA
ENDBRANCH   1  35
BRANCH  19  36
ATOM     36  O   UNL     1      -2.977   9.580  16.479  0.00  0.00    +0.000 OA
ATOM     37  C   UNL     1      -3.069   9.900  15.104  0.00  0.00    +0.000 C 
ENDBRANCH  19  36
TORSDOF 5
ENDMDL
MODEL 7
REMARK VINA RESULT:      -5.8      0.835      1.234
REMARK  Name = 
REMARK  8 active torsions:
REMARK  status: ('A' for Active; 'I' for Inactive)
REMARK    1  A    between atoms: C_1  and  O_2
REMARK    2  A    between atoms: O_2  and  C_3
REMARK    3  A    between atoms: N_12  and  C_13
REMARK    4  A    between atoms: N_18  and  C_19
REMARK    5  A    between atoms: N_22  and  C_23
REMARK    6  A    between atoms: C_23  and  C_24
REMARK    7  A    between atoms: C_34  and  O_35
REMARK    8  A    between atoms: O_35  and  C_36
REMARK                            x       y       z     vdW  Elec       q    Type
REMARK                         _______ _______ _______ _____ _____    ______ ____
ROOT
ATOM      1  C   UNL     1       1.927  14.375  20.277  0.00  0.00    +0.000 A 
ATOM      2  C   UNL     1       2.796  13.688  21.134  0.00  0.00    +0.000 A 
ATOM      3  C   UNL     1       4.044  14.184  21.504  0.00  0.00    +0.000 A 
ATOM      4  N   UNL     1       4.704  13.528  22.449  0.00  0.00    +0.000 NA
ATOM      5  C   UNL     1       5.867  14.019  22.885  0.00  0.00    +0.000 A 
ATOM      6  N   UNL     1       6.448  13.481  24.020  0.00  0.00    +0.000 N 
ATOM      7  C   UNL     1       5.790  12.410  24.756  0.00  0.00    +0.000 C 
ATOM      8  C   UNL     1       5.453  12.762  26.212  0.00  0.00    +0.000 C 
ATOM      9  C   UNL     1       6.694  12.926  27.094  0.00  0.00    +0.000 C 
ATOM     10  N   UNL     1       7.278  14.272  27.122  0.00  0.00    +0.000 NA
ATOM     11  C   UNL     1       8.612  14.240  27.721  0.00  0.00    +0.000 C 
ATOM     12  C   UNL     1       7.281  14.974  25.824  0.00  0.00    +0.000 C 
ATOM     13  C   UNL     1       7.633  14.127  24.583  0.00  0.00    +0.000 C 
ATOM     14  N   UNL     1       6.466  15.033  22.249  0.00  0.00    +0.000 NA
ATOM     15  C   UNL     1       5.837  15.671  21.241  0.00  0.00    +0.000 A 
ATOM     16  N   UNL     1       6.640  16.649  20.715  0.00  0.00    +0.000 N 
ATOM     17  C   UNL     1       4.519  15.352  20.902  0.00  0.00    +0.000 A 
ATOM     18  C   UNL     1       3.622  16.074  20.077  0.00  0.00    +0.000 A 
ATOM     19  C   UNL     1       2.330  15.611  19.763  0.00  0.00    +0.000 A 
ATOM     20  H   UNL     1       7.548  16.497  21.152  0.00  0.00    +0.000 HD
ENDROOT
BRANCH  16  21
ATOM     21  C   UNL     1       6.714  17.226  19.370  0.00  0.00    +0.000 C 
ATOM     22  C   UNL     1       6.314  16.293  18.231  0.00  0.00    +0.000 C 
ATOM     23  C   UNL     1       7.346  15.218  17.834  0.00  0.00    +0.000 C 
ATOM     24  N   UNL     1       8.780  15.514  17.991  0.00  0.00    +0.000 NA
ATOM     25  C   UNL     1       9.104  16.514  19.018  0.00  0.00    +0.000 C 
ATOM     26  C   UNL     1       8.145  17.695  19.104  0.00  0.00    +0.000 C 
BRANCH  24  27
ATOM     27  C   UNL     1       9.572  14.286  18.274  0.00  0.00    +0.000 C 
BRANCH  27  28
ATOM     28  C   UNL     1      11.039  14.248  17.775  0.00  0.00    +0.000 C 
ATOM     29  C   UNL     1      12.077  14.306  18.903  0.00  0.00    +0.000 C 
ATOM     30  C   UNL     1      11.981  13.107  19.843  0.00  0.00    +0.000 C 
ATOM     31  C   UNL     1      12.046  11.762  19.122  0.00  0.00    +0.000 C 
ATOM     32  C   UNL     1      11.267  11.681  17.808  0.00  0.00    +0.000 C 
ATOM     33  C   UNL     1      11.305  12.959  16.964  0.00  0.00    +0.000 C 
ENDBRANCH  27  28
ENDBRANCH  24  27
ENDBRANCH  16  21
BRANCH   1  35
ATOM     34  C   UNL     1      -0.437  14.351  20.610  0.00  0.00    +0.000 C 
ATOM     35  O   UNL     1       0.711  13.860  19.926  0.00  0.00    +0.000 OA
ENDBRANCH   1  35
BRANCH  19  36
ATOM     36  O   UNL     1       1.650  16.514  19.002  0.00  0.00    +0.000 OA
ATOM     37  C   UNL     1       1.066  17.700  19.505  0.00  0.00    +0.000 C 
ENDBRANCH  19  36
TORSDOF 5
ENDMDL
MODEL 8
REMARK VINA RESULT:      -5.6      4.729      7.544
REMARK  Name = 
REMARK  8 active torsions:
REMARK  status: ('A' for Active; 'I' for Inactive)
REMARK    1  A    between atoms: C_1  and  O_2
REMARK    2  A    between atoms: O_2  and  C_3
REMARK    3  A    between atoms: N_12  and  C_13
REMARK    4  A    between atoms: N_18  and  C_19
REMARK    5  A    between atoms: N_22  and  C_23
REMARK    6  A    between atoms: C_23  and  C_24
REMARK    7  A    between atoms: C_34  and  O_35
REMARK    8  A    between atoms: O_35  and  C_36
REMARK                            x       y       z     vdW  Elec       q    Type
REMARK                         _______ _______ _______ _____ _____    ______ ____
ROOT
ATOM      1  C   UNL     1      -3.265  12.962  20.022  0.00  0.00    +0.000 A 
ATOM      2  C   UNL     1      -2.225  13.583  20.726  0.00  0.00    +0.000 A 
ATOM      3  C   UNL     1      -0.909  13.127  20.691  0.00  0.00    +0.000 A 
ATOM      4  N   UNL     1       0.015  13.890  21.258  0.00  0.00    +0.000 NA
ATOM      5  C   UNL     1       1.297  13.525  21.174  0.00  0.00    +0.000 A 
ATOM      6  N   UNL     1       2.284  14.417  21.553  0.00  0.00    +0.000 N 
ATOM      7  C   UNL     1       1.939  15.757  22.012  0.00  0.00    +0.000 C 
ATOM      8  C   UNL     1       2.529  16.886  21.156  0.00  0.00    +0.000 C 
ATOM      9  C   UNL     1       4.054  16.987  21.262  0.00  0.00    +0.000 C 
ATOM     10  N   UNL     1       4.810  16.157  20.316  0.00  0.00    +0.000 NA
ATOM     11  C   UNL     1       6.217  16.084  20.710  0.00  0.00    +0.000 C 
ATOM     12  C   UNL     1       4.242  14.816  20.075  0.00  0.00    +0.000 C 
ATOM     13  C   UNL     1       3.683  14.073  21.307  0.00  0.00    +0.000 C 
ATOM     14  N   UNL     1       1.637  12.315  20.713  0.00  0.00    +0.000 NA
ATOM     15  C   UNL     1       0.700  11.497  20.191  0.00  0.00    +0.000 A 
ATOM     16  N   UNL     1       1.260  10.305  19.812  0.00  0.00    +0.000 N 
ATOM     17  C   UNL     1      -0.621  11.926  20.036  0.00  0.00    +0.000 A 
ATOM     18  C   UNL     1      -1.659  11.327  19.282  0.00  0.00    +0.000 A 
ATOM     19  C   UNL     1      -2.973  11.831  19.254  0.00  0.00    +0.000 A 
ATOM     20  H   UNL     1       2.208  10.336  20.185  0.00  0.00    +0.000 HD
ENDROOT
BRANCH  16  21
ATOM     21  C   UNL     1       0.699   8.954  19.722  0.00  0.00    +0.000 C 
ATOM     22  C   UNL     1       1.495   7.864  20.433  0.00  0.00    +0.000 C 
ATOM     23  C   UNL     1       2.781   7.385  19.729  0.00  0.00    +0.000 C 
ATOM     24  N   UNL     1       2.839   7.411  18.258  0.00  0.00    +0.000 NA
ATOM     25  C   UNL     1       1.959   8.396  17.613  0.00  0.00    +0.000 C 
ATOM     26  C   UNL     1       0.584   8.557  18.250  0.00  0.00    +0.000 C 
BRANCH  24  27
ATOM     27  C   UNL     1       4.225   7.633  17.761  0.00  0.00    +0.000 C 
BRANCH  27  28
ATOM     28  C   UNL     1       4.896   6.481  16.970  0.00  0.00    +0.000 C 
ATOM     29  C   UNL     1       6.338   6.784  16.544  0.00  0.00    +0.000 C 
ATOM     30  C   UNL     1       7.265   6.995  17.739  0.00  0.00    +0.000 C 
ATOM     31  C   UNL     1       7.232   5.845  18.745  0.00  0.00    +0.000 C 
ATOM     32  C   UNL     1       5.847   5.262  19.032  0.00  0.00    +0.000 C 
ATOM     33  C   UNL     1       4.922   5.186  17.814  0.00  0.00    +0.000 C 
ENDBRANCH  27  28
ENDBRANCH  24  27
ENDBRANCH  16  21
BRANCH   1  35
ATOM     34  C   UNL     1      -5.407  12.871  21.072  0.00  0.00    +0.000 C 
ATOM     35  O   UNL     1      -4.548  13.427  20.082  0.00  0.00    +0.000 OA
ENDBRANCH   1  35
BRANCH  19  36
ATOM     36  O   UNL     1      -3.765  11.109  18.411  0.00  0.00    +0.000 OA
ATOM     37  C   UNL     1      -3.285  10.120  17.521  0.00  0.00    +0.000 C 
ENDBRANCH  19  36
TORSDOF 5
ENDMDL
MODEL 9
REMARK VINA RESULT:      -5.6      4.664      7.713
REMARK  Name = 
REMARK  8 active torsions:
REMARK  status: ('A' for Active; 'I' for Inactive)
REMARK    1  A    between atoms: C_1  and  O_2
REMARK    2  A    between atoms: O_2  and  C_3
REMARK    3  A    between atoms: N_12  and  C_13
REMARK    4  A    between atoms: N_18  and  C_19
REMARK    5  A    between atoms: N_22  and  C_23
REMARK    6  A    between atoms: C_23  and  C_24
REMARK    7  A    between atoms: C_34  and  O_35
REMARK    8  A    between atoms: O_35  and  C_36
REMARK                            x       y       z     vdW  Elec       q    Type
REMARK                         _______ _______ _______ _____ _____    ______ ____
ROOT
ATOM      1  C   UNL     1      -2.369  14.936  21.363  0.00  0.00    +0.000 A 
ATOM      2  C   UNL     1      -1.042  15.292  21.632  0.00  0.00    +0.000 A 
ATOM      3  C   UNL     1       0.048  14.563  21.163  0.00  0.00    +0.000 A 
ATOM      4  N   UNL     1       1.252  15.089  21.338  0.00  0.00    +0.000 NA
ATOM      5  C   UNL     1       2.314  14.457  20.830  0.00  0.00    +0.000 A 
ATOM      6  N   UNL     1       3.538  15.101  20.801  0.00  0.00    +0.000 N 
ATOM      7  C   UNL     1       3.671  16.468  21.289  0.00  0.00    +0.000 C 
ATOM      8  C   UNL     1       4.154  17.470  20.231  0.00  0.00    +0.000 C 
ATOM      9  C   UNL     1       5.603  17.234  19.795  0.00  0.00    +0.000 C 
ATOM     10  N   UNL     1       5.784  16.291  18.684  0.00  0.00    +0.000 NA
ATOM     11  C   UNL     1       7.189  15.901  18.567  0.00  0.00    +0.000 C 
ATOM     12  C   UNL     1       4.894  15.114  18.718  0.00  0.00    +0.000 C 
ATOM     13  C   UNL     1       4.655  14.470  20.100  0.00  0.00    +0.000 C 
ATOM     14  N   UNL     1       2.204  13.218  20.335  0.00  0.00    +0.000 NA
ATOM     15  C   UNL     1       0.992  12.641  20.209  0.00  0.00    +0.000 A 
ATOM     16  N   UNL     1       1.114  11.368  19.715  0.00  0.00    +0.000 N 
ATOM     17  C   UNL     1      -0.176  13.351  20.504  0.00  0.00    +0.000 A 
ATOM     18  C   UNL     1      -1.515  13.017  20.186  0.00  0.00    +0.000 A 
ATOM     19  C   UNL     1      -2.615  13.794  20.594  0.00  0.00    +0.000 A 
ATOM     20  H   UNL     1       2.115  11.181  19.733  0.00  0.00    +0.000 HD
ENDROOT
BRANCH  16  21
ATOM     21  C   UNL     1       0.281  10.175  19.886  0.00  0.00    +0.000 C 
ATOM     22  C   UNL     1       0.944   9.011  20.618  0.00  0.00    +0.000 C 
ATOM     23  C   UNL     1       1.967   8.189  19.809  0.00  0.00    +0.000 C 
ATOM     24  N   UNL     1       1.782   8.054  18.354  0.00  0.00    +0.000 NA
ATOM     25  C   UNL     1       1.029   9.141  17.715  0.00  0.00    +0.000 C 
ATOM     26  C   UNL     1      -0.158   9.668  18.512  0.00  0.00    +0.000 C 
BRANCH  24  27
ATOM     27  C   UNL     1       3.081   7.909  17.641  0.00  0.00    +0.000 C 
BRANCH  27  28
ATOM     28  C   UNL     1       4.188   7.070  18.329  0.00  0.00    +0.000 C 
ATOM     29  C   UNL     1       3.730   5.666  18.744  0.00  0.00    +0.000 C 
ATOM     30  C   UNL     1       3.316   4.812  17.548  0.00  0.00    +0.000 C 
ATOM     31  C   UNL     1       4.387   4.729  16.461  0.00  0.00    +0.000 C 
ATOM     32  C   UNL     1       5.125   6.036  16.163  0.00  0.00    +0.000 C 
ATOM     33  C   UNL     1       5.407   6.904  17.392  0.00  0.00    +0.000 C 
ENDBRANCH  27  28
ENDBRANCH  24  27
ENDBRANCH  16  21
BRANCH   1  35
ATOM     34  C   UNL     1      -3.735  15.538  23.226  0.00  0.00    +0.000 C 
ATOM     35  O   UNL     1      -3.420  15.666  21.844  0.00  0.00    +0.000 OA
ENDBRANCH   1  35
BRANCH  19  36
ATOM     36  O   UNL     1      -3.786  13.289  20.113  0.00  0.00    +0.000 OA
ATOM     37  C   UNL     1      -4.735  12.593  20.898  0.00  0.00    +0.000 C 
ENDBRANCH  19  36
TORSDOF 5
ENDMDL
