MODEL 1
REMARK VINA RESULT:      -8.0      0.000      0.000
REMARK  Name = 
REMARK  6 active torsions:
REMARK  status: ('A' for Active; 'I' for Inactive)
REMARK    1  A    between atoms: C_1  and  C_2
REMARK    2  A    between atoms: C_5  and  C_6
REMARK    3  A    between atoms: C_12  and  C_13
REMARK    4  A    between atoms: C_16  and  C_17
REMARK    5  A    between atoms: C_17  and  O_18
REMARK    6  A    between atoms: O_18  and  C_19
REMARK                            x       y       z     vdW  Elec       q    Type
REMARK                         _______ _______ _______ _____ _____    ______ ____
ROOT
ATOM      1  C   UNL     1       4.799   4.498  18.667  0.00  0.00    +0.000 A 
ATOM      2  C   UNL     1       5.546   5.220  19.575  0.00  0.00    +0.000 A 
ATOM      3  S   UNL     1       7.090   5.572  18.922  0.00  0.00    +0.000 S 
ATOM      4  C   UNL     1       6.652   4.749  17.475  0.00  0.00    +0.000 A 
ATOM      5  N   UNL     1       5.433   4.247  17.465  0.00  0.00    +0.000 NA
ENDROOT
BRANCH   1  11
ATOM      6  C   UNL     1       3.673   1.384  18.499  0.00  0.00    +0.000 C 
ATOM      7  C   UNL     1       3.024   2.676  18.792  0.00  0.00    +0.000 A 
ATOM      8  O   UNL     1       1.700   2.624  19.083  0.00  0.00    +0.000 OA
ATOM      9  N   UNL     1       1.225   3.892  19.327  0.00  0.00    +0.000 NA
ATOM     10  C   UNL     1       2.267   4.733  19.176  0.00  0.00    +0.000 A 
ATOM     11  C   UNL     1       3.447   3.983  18.867  0.00  0.00    +0.000 A 
BRANCH  10  12
ATOM     12  C   UNL     1       2.061   6.181  19.302  0.00  0.00    +0.000 A 
ATOM     13  C   UNL     1       2.282   7.030  18.206  0.00  0.00    +0.000 A 
ATOM     14  C   UNL     1       2.077   8.408  18.316  0.00  0.00    +0.000 A 
ATOM     15  C   UNL     1       1.644   8.956  19.523  0.00  0.00    +0.000 A 
ATOM     16  C   UNL     1       1.442   8.131  20.625  0.00  0.00    +0.000 A 
ATOM     17  C   UNL     1       1.668   6.757  20.520  0.00  0.00    +0.000 A 
ENDBRANCH  10  12
ENDBRANCH   1  11
BRANCH   4  18
ATOM     18  C   UNL     1       7.644   4.617  16.357  0.00  0.00    +0.000 C 
BRANCH  18  19
ATOM     19  O   UNL     1       7.191   5.472  15.307  0.00  0.00    +0.000 OA
BRANCH  19  20
ATOM     20  C   UNL     1       6.834   4.846  14.145  0.00  0.00    +0.000 A 
ATOM     21  C   UNL     1       7.703   5.051  13.071  0.00  0.00    +0.000 A 
ATOM     22  C   UNL     1       7.470   4.431  11.843  0.00  0.00    +0.000 A 
ATOM     23  C   UNL     1       6.372   3.589  11.690  0.00  0.00    +0.000 A 
ATOM     24  C   UNL     1       5.508   3.371  12.763  0.00  0.00    +0.000 A 
ATOM     25  C   UNL     1       5.736   3.998  13.991  0.00  0.00    +0.000 A 
ENDBRANCH  19  20
ENDBRANCH  18  19
ENDBRANCH   4  18
TORSDOF 5
ENDMDL
MODEL 2
REMARK VINA RESULT:      -7.9      3.294      7.350
REMARK  Name = 
REMARK  6 active torsions:
REMARK  status: ('A' for Active; 'I' for Inactive)
REMARK    1  A    between atoms: C_1  and  C_2
REMARK    2  A    between atoms: C_5  and  C_6
REMARK    3  A    between atoms: C_12  and  C_13
REMARK    4  A    between atoms: C_16  and  C_17
REMARK    5  A    between atoms: C_17  and  O_18
REMARK    6  A    between atoms: O_18  and  C_19
REMARK                            x       y       z     vdW  Elec       q    Type
REMARK                         _______ _______ _______ _____ _____    ______ ____
ROOT
ATOM      1  C   UNL     1       2.559   6.066  18.968  0.00  0.00    +0.000 A 
ATOM      2  C   UNL     1       2.175   6.250  20.280  0.00  0.00    +0.000 A 
ATOM      3  S   UNL     1       1.624   7.854  20.516  0.00  0.00    +0.000 S 
ATOM      4  C   UNL     1       1.925   8.189  18.854  0.00  0.00    +0.000 A 
ATOM      5  N   UNL     1       2.397   7.175  18.157  0.00  0.00    +0.000 NA
ENDROOT
BRANCH   1  11
ATOM      6  C   UNL     1       1.094   3.155  18.362  0.00  0.00    +0.000 C 
ATOM      7  C   UNL     1       2.464   3.658  18.146  0.00  0.00    +0.000 A 
ATOM      8  O   UNL     1       3.330   2.794  17.558  0.00  0.00    +0.000 OA
ATOM      9  N   UNL     1       4.564   3.388  17.425  0.00  0.00    +0.000 NA
ATOM     10  C   UNL     1       4.458   4.626  17.944  0.00  0.00    +0.000 A 
ATOM     11  C   UNL     1       3.113   4.847  18.385  0.00  0.00    +0.000 A 
BRANCH  10  12
ATOM     12  C   UNL     1       5.641   5.492  18.016  0.00  0.00    +0.000 A 
ATOM     13  C   UNL     1       5.779   6.583  17.142  0.00  0.00    +0.000 A 
ATOM     14  C   UNL     1       6.898   7.417  17.212  0.00  0.00    +0.000 A 
ATOM     15  C   UNL     1       7.892   7.176  18.160  0.00  0.00    +0.000 A 
ATOM     16  C   UNL     1       7.781   6.086  19.017  0.00  0.00    +0.000 A 
ATOM     17  C   UNL     1       6.673   5.240  18.932  0.00  0.00    +0.000 A 
ENDBRANCH  10  12
ENDBRANCH   1  11
BRANCH   4  18
ATOM     18  C   UNL     1       1.679   9.564  18.308  0.00  0.00    +0.000 C 
BRANCH  18  19
ATOM     19  O   UNL     1       0.802  10.216  19.227  0.00  0.00    +0.000 OA
BRANCH  19  20
ATOM     20  C   UNL     1      -0.449  10.500  18.754  0.00  0.00    +0.000 A 
ATOM     21  C   UNL     1      -1.151  11.468  19.476  0.00  0.00    +0.000 A 
ATOM     22  C   UNL     1      -2.421  11.874  19.066  0.00  0.00    +0.000 A 
ATOM     23  C   UNL     1      -2.989  11.323  17.920  0.00  0.00    +0.000 A 
ATOM     24  C   UNL     1      -2.287  10.366  17.188  0.00  0.00    +0.000 A 
ATOM     25  C   UNL     1      -1.018   9.953  17.602  0.00  0.00    +0.000 A 
ENDBRANCH  19  20
ENDBRANCH  18  19
ENDBRANCH   4  18
TORSDOF 5
ENDMDL
MODEL 3
REMARK VINA RESULT:      -7.9      2.907      8.161
REMARK  Name = 
REMARK  6 active torsions:
REMARK  status: ('A' for Active; 'I' for Inactive)
REMARK    1  A    between atoms: C_1  and  C_2
REMARK    2  A    between atoms: C_5  and  C_6
REMARK    3  A    between atoms: C_12  and  C_13
REMARK    4  A    between atoms: C_16  and  C_17
REMARK    5  A    between atoms: C_17  and  O_18
REMARK    6  A    between atoms: O_18  and  C_19
REMARK                            x       y       z     vdW  Elec       q    Type
REMARK                         _______ _______ _______ _____ _____    ______ ____
ROOT
ATOM      1  C   UNL     1       2.596   5.595  18.854  0.00  0.00    +0.000 A 
ATOM      2  C   UNL     1       2.763   6.494  17.821  0.00  0.00    +0.000 A 
ATOM      3  S   UNL     1       2.349   8.073  18.339  0.00  0.00    +0.000 S 
ATOM      4  C   UNL     1       1.988   7.452  19.904  0.00  0.00    +0.000 A 
ATOM      5  N   UNL     1       2.168   6.154  20.044  0.00  0.00    +0.000 NA
ENDROOT
BRANCH   1  11
ATOM      6  C   UNL     1       0.889   3.138  20.282  0.00  0.00    +0.000 C 
ATOM      7  C   UNL     1       2.073   3.164  19.403  0.00  0.00    +0.000 A 
ATOM      8  O   UNL     1       2.588   1.955  19.063  0.00  0.00    +0.000 OA
ATOM      9  N   UNL     1       3.686   2.128  18.252  0.00  0.00    +0.000 NA
ATOM     10  C   UNL     1       3.853   3.456  18.100  0.00  0.00    +0.000 A 
ATOM     11  C   UNL     1       2.814   4.152  18.797  0.00  0.00    +0.000 A 
BRANCH  10  12
ATOM     12  C   UNL     1       4.999   3.965  17.337  0.00  0.00    +0.000 A 
ATOM     13  C   UNL     1       6.156   4.406  17.999  0.00  0.00    +0.000 A 
ATOM     14  C   UNL     1       7.255   4.881  17.277  0.00  0.00    +0.000 A 
ATOM     15  C   UNL     1       7.213   4.919  15.885  0.00  0.00    +0.000 A 
ATOM     16  C   UNL     1       6.065   4.508  15.215  0.00  0.00    +0.000 A 
ATOM     17  C   UNL     1       4.960   4.053  15.937  0.00  0.00    +0.000 A 
ENDBRANCH  10  12
ENDBRANCH   1  11
BRANCH   4  18
ATOM     18  C   UNL     1       1.476   8.368  20.975  0.00  0.00    +0.000 C 
BRANCH  18  19
ATOM     19  O   UNL     1       0.851   9.466  20.309  0.00  0.00    +0.000 OA
BRANCH  19  20
ATOM     20  C   UNL     1       0.160  10.331  21.111  0.00  0.00    +0.000 A 
ATOM     21  C   UNL     1      -0.378   9.765  22.269  0.00  0.00    +0.000 A 
ATOM     22  C   UNL     1      -1.069  10.555  23.188  0.00  0.00    +0.000 A 
ATOM     23  C   UNL     1      -1.210  11.922  22.959  0.00  0.00    +0.000 A 
ATOM     24  C   UNL     1      -0.663  12.494  21.811  0.00  0.00    +0.000 A 
ATOM     25  C   UNL     1       0.021  11.702  20.886  0.00  0.00    +0.000 A 
ENDBRANCH  19  20
ENDBRANCH  18  19
ENDBRANCH   4  18
TORSDOF 5
ENDMDL
MODEL 4
REMARK VINA RESULT:      -7.9      3.297      7.370
REMARK  Name = 
REMARK  6 active torsions:
REMARK  status: ('A' for Active; 'I' for Inactive)
REMARK    1  A    between atoms: C_1  and  C_2
REMARK    2  A    between atoms: C_5  and  C_6
REMARK    3  A    between atoms: C_12  and  C_13
REMARK    4  A    between atoms: C_16  and  C_17
REMARK    5  A    between atoms: C_17  and  O_18
REMARK    6  A    between atoms: O_18  and  C_19
REMARK                            x       y       z     vdW  Elec       q    Type
REMARK                         _______ _______ _______ _____ _____    ______ ____
ROOT
ATOM      1  C   UNL     1       2.571   6.100  18.931  0.00  0.00    +0.000 A 
ATOM      2  C   UNL     1       2.207   6.301  20.247  0.00  0.00    +0.000 A 
ATOM      3  S   UNL     1       1.642   7.903  20.465  0.00  0.00    +0.000 S 
ATOM      4  C   UNL     1       1.912   8.213  18.793  0.00  0.00    +0.000 A 
ATOM      5  N   UNL     1       2.384   7.192  18.105  0.00  0.00    +0.000 NA
ENDROOT
BRANCH   1  11
ATOM      6  C   UNL     1       1.103   3.194  18.307  0.00  0.00    +0.000 C 
ATOM      7  C   UNL     1       2.479   3.690  18.113  0.00  0.00    +0.000 A 
ATOM      8  O   UNL     1       3.350   2.821  17.541  0.00  0.00    +0.000 OA
ATOM      9  N   UNL     1       4.589   3.409  17.427  0.00  0.00    +0.000 NA
ATOM     10  C   UNL     1       4.480   4.649  17.942  0.00  0.00    +0.000 A 
ATOM     11  C   UNL     1       3.129   4.877  18.360  0.00  0.00    +0.000 A 
BRANCH  10  12
ATOM     12  C   UNL     1       5.665   5.509  18.031  0.00  0.00    +0.000 A 
ATOM     13  C   UNL     1       6.641   5.279  19.014  0.00  0.00    +0.000 A 
ATOM     14  C   UNL     1       7.778   6.088  19.097  0.00  0.00    +0.000 A 
ATOM     15  C   UNL     1       7.957   7.136  18.195  0.00  0.00    +0.000 A 
ATOM     16  C   UNL     1       6.988   7.392  17.230  0.00  0.00    +0.000 A 
ATOM     17  C   UNL     1       5.842   6.597  17.162  0.00  0.00    +0.000 A 
ENDBRANCH  10  12
ENDBRANCH   1  11
BRANCH   4  18
ATOM     18  C   UNL     1       1.642   9.576  18.228  0.00  0.00    +0.000 C 
BRANCH  18  19
ATOM     19  O   UNL     1       0.847  10.267  19.192  0.00  0.00    +0.000 OA
BRANCH  19  20
ATOM     20  C   UNL     1      -0.407  10.623  18.781  0.00  0.00    +0.000 A 
ATOM     21  C   UNL     1      -0.893   9.917  17.679  0.00  0.00    +0.000 A 
ATOM     22  C   UNL     1      -2.178  10.161  17.193  0.00  0.00    +0.000 A 
ATOM     23  C   UNL     1      -2.989  11.104  17.819  0.00  0.00    +0.000 A 
ATOM     24  C   UNL     1      -2.513  11.803  18.929  0.00  0.00    +0.000 A 
ATOM     25  C   UNL     1      -1.223  11.565  19.411  0.00  0.00    +0.000 A 
ENDBRANCH  19  20
ENDBRANCH  18  19
ENDBRANCH   4  18
TORSDOF 5
ENDMDL
MODEL 5
REMARK VINA RESULT:      -7.8      2.793      8.068
REMARK  Name = 
REMARK  6 active torsions:
REMARK  status: ('A' for Active; 'I' for Inactive)
REMARK    1  A    between atoms: C_1  and  C_2
REMARK    2  A    between atoms: C_5  and  C_6
REMARK    3  A    between atoms: C_12  and  C_13
REMARK    4  A    between atoms: C_16  and  C_17
REMARK    5  A    between atoms: C_17  and  O_18
REMARK    6  A    between atoms: O_18  and  C_19
REMARK                            x       y       z     vdW  Elec       q    Type
REMARK                         _______ _______ _______ _____ _____    ______ ____
ROOT
ATOM      1  C   UNL     1       2.518   5.589  18.805  0.00  0.00    +0.000 A 
ATOM      2  C   UNL     1       2.535   6.546  17.811  0.00  0.00    +0.000 A 
ATOM      3  S   UNL     1       2.196   8.090  18.471  0.00  0.00    +0.000 S 
ATOM      4  C   UNL     1       2.060   7.379  20.033  0.00  0.00    +0.000 A 
ATOM      5  N   UNL     1       2.262   6.077  20.073  0.00  0.00    +0.000 NA
ENDROOT
BRANCH   1  11
ATOM      6  C   UNL     1       0.747   3.039  19.969  0.00  0.00    +0.000 C 
ATOM      7  C   UNL     1       1.961   3.126  19.134  0.00  0.00    +0.000 A 
ATOM      8  O   UNL     1       2.479   1.945  18.713  0.00  0.00    +0.000 OA
ATOM      9  N   UNL     1       3.605   2.173  17.956  0.00  0.00    +0.000 NA
ATOM     10  C   UNL     1       3.786   3.508  17.919  0.00  0.00    +0.000 A 
ATOM     11  C   UNL     1       2.728   4.154  18.636  0.00  0.00    +0.000 A 
BRANCH  10  12
ATOM     12  C   UNL     1       4.960   4.067  17.239  0.00  0.00    +0.000 A 
ATOM     13  C   UNL     1       6.094   4.449  17.974  0.00  0.00    +0.000 A 
ATOM     14  C   UNL     1       7.220   4.972  17.331  0.00  0.00    +0.000 A 
ATOM     15  C   UNL     1       7.228   5.118  15.945  0.00  0.00    +0.000 A 
ATOM     16  C   UNL     1       6.104   4.766  15.204  0.00  0.00    +0.000 A 
ATOM     17  C   UNL     1       4.972   4.263  15.850  0.00  0.00    +0.000 A 
ENDBRANCH  10  12
ENDBRANCH   1  11
BRANCH   4  18
ATOM     18  C   UNL     1       1.703   8.229  21.217  0.00  0.00    +0.000 C 
BRANCH  18  19
ATOM     19  O   UNL     1       0.278   8.290  21.260  0.00  0.00    +0.000 OA
BRANCH  19  20
ATOM     20  C   UNL     1      -0.254   9.500  21.607  0.00  0.00    +0.000 A 
ATOM     21  C   UNL     1      -0.441  10.392  20.549  0.00  0.00    +0.000 A 
ATOM     22  C   UNL     1      -1.016  11.643  20.771  0.00  0.00    +0.000 A 
ATOM     23  C   UNL     1      -1.423  12.002  22.054  0.00  0.00    +0.000 A 
ATOM     24  C   UNL     1      -1.251  11.110  23.112  0.00  0.00    +0.000 A 
ATOM     25  C   UNL     1      -0.667   9.859  22.892  0.00  0.00    +0.000 A 
ENDBRANCH  19  20
ENDBRANCH  18  19
ENDBRANCH   4  18
TORSDOF 5
ENDMDL
MODEL 6
REMARK VINA RESULT:      -7.8      2.969      8.146
REMARK  Name = 
REMARK  6 active torsions:
REMARK  status: ('A' for Active; 'I' for Inactive)
REMARK    1  A    between atoms: C_1  and  C_2
REMARK    2  A    between atoms: C_5  and  C_6
REMARK    3  A    between atoms: C_12  and  C_13
REMARK    4  A    between atoms: C_16  and  C_17
REMARK    5  A    between atoms: C_17  and  O_18
REMARK    6  A    between atoms: O_18  and  C_19
REMARK                            x       y       z     vdW  Elec       q    Type
REMARK                         _______ _______ _______ _____ _____    ______ ____
ROOT
ATOM      1  C   UNL     1       2.601   5.680  18.992  0.00  0.00    +0.000 A 
ATOM      2  C   UNL     1       2.749   6.552  17.933  0.00  0.00    +0.000 A 
ATOM      3  S   UNL     1       2.286   8.134  18.401  0.00  0.00    +0.000 S 
ATOM      4  C   UNL     1       1.933   7.550  19.982  0.00  0.00    +0.000 A 
ATOM      5  N   UNL     1       2.150   6.262  20.162  0.00  0.00    +0.000 NA
ENDROOT
BRANCH   1  11
ATOM      6  C   UNL     1       1.006   3.228  20.551  0.00  0.00    +0.000 C 
ATOM      7  C   UNL     1       2.166   3.256  19.640  0.00  0.00    +0.000 A 
ATOM      8  O   UNL     1       2.708   2.052  19.328  0.00  0.00    +0.000 OA
ATOM      9  N   UNL     1       3.779   2.227  18.482  0.00  0.00    +0.000 NA
ATOM     10  C   UNL     1       3.902   3.553  18.279  0.00  0.00    +0.000 A 
ATOM     11  C   UNL     1       2.860   4.243  18.979  0.00  0.00    +0.000 A 
BRANCH  10  12
ATOM     12  C   UNL     1       5.011   4.068  17.468  0.00  0.00    +0.000 A 
ATOM     13  C   UNL     1       4.916   4.098  16.067  0.00  0.00    +0.000 A 
ATOM     14  C   UNL     1       5.965   4.598  15.290  0.00  0.00    +0.000 A 
ATOM     15  C   UNL     1       7.122   5.078  15.902  0.00  0.00    +0.000 A 
ATOM     16  C   UNL     1       7.241   5.034  17.288  0.00  0.00    +0.000 A 
ATOM     17  C   UNL     1       6.201   4.515  18.062  0.00  0.00    +0.000 A 
ENDBRANCH  10  12
ENDBRANCH   1  11
BRANCH   4  18
ATOM     18  C   UNL     1       1.388   8.482  21.023  0.00  0.00    +0.000 C 
BRANCH  18  19
ATOM     19  O   UNL     1       0.800   9.577  20.322  0.00  0.00    +0.000 OA
BRANCH  19  20
ATOM     20  C   UNL     1      -0.083  10.336  21.038  0.00  0.00    +0.000 A 
ATOM     21  C   UNL     1      -0.275   9.932  22.361  0.00  0.00    +0.000 A 
ATOM     22  C   UNL     1      -1.120  10.651  23.206  0.00  0.00    +0.000 A 
ATOM     23  C   UNL     1      -1.766  11.791  22.734  0.00  0.00    +0.000 A 
ATOM     24  C   UNL     1      -1.568  12.206  21.417  0.00  0.00    +0.000 A 
ATOM     25  C   UNL     1      -0.728  11.481  20.568  0.00  0.00    +0.000 A 
ENDBRANCH  19  20
ENDBRANCH  18  19
ENDBRANCH   4  18
TORSDOF 5
ENDMDL
MODEL 7
REMARK VINA RESULT:      -7.8      3.280      7.408
REMARK  Name = 
REMARK  6 active torsions:
REMARK  status: ('A' for Active; 'I' for Inactive)
REMARK    1  A    between atoms: C_1  and  C_2
REMARK    2  A    between atoms: C_5  and  C_6
REMARK    3  A    between atoms: C_12  and  C_13
REMARK    4  A    between atoms: C_16  and  C_17
REMARK    5  A    between atoms: C_17  and  O_18
REMARK    6  A    between atoms: O_18  and  C_19
REMARK                            x       y       z     vdW  Elec       q    Type
REMARK                         _______ _______ _______ _____ _____    ______ ____
ROOT
ATOM      1  C   UNL     1       2.525   6.004  19.062  0.00  0.00    +0.000 A 
ATOM      2  C   UNL     1       2.121   6.186  20.368  0.00  0.00    +0.000 A 
ATOM      3  S   UNL     1       1.592   7.798  20.604  0.00  0.00    +0.000 S 
ATOM      4  C   UNL     1       1.926   8.137  18.949  0.00  0.00    +0.000 A 
ATOM      5  N   UNL     1       2.395   7.119  18.255  0.00  0.00    +0.000 NA
ENDROOT
BRANCH   1  11
ATOM      6  C   UNL     1       1.055   3.084  18.516  0.00  0.00    +0.000 C 
ATOM      7  C   UNL     1       2.420   3.587  18.268  0.00  0.00    +0.000 A 
ATOM      8  O   UNL     1       3.275   2.718  17.673  0.00  0.00    +0.000 OA
ATOM      9  N   UNL     1       4.505   3.313  17.509  0.00  0.00    +0.000 NA
ATOM     10  C   UNL     1       4.407   4.557  18.017  0.00  0.00    +0.000 A 
ATOM     11  C   UNL     1       3.071   4.780  18.482  0.00  0.00    +0.000 A 
BRANCH  10  12
ATOM     12  C   UNL     1       5.589   5.425  18.056  0.00  0.00    +0.000 A 
ATOM     13  C   UNL     1       5.727   6.482  17.141  0.00  0.00    +0.000 A 
ATOM     14  C   UNL     1       6.846   7.319  17.180  0.00  0.00    +0.000 A 
ATOM     15  C   UNL     1       7.839   7.115  18.137  0.00  0.00    +0.000 A 
ATOM     16  C   UNL     1       7.728   6.059  19.036  0.00  0.00    +0.000 A 
ATOM     17  C   UNL     1       6.621   5.209  18.982  0.00  0.00    +0.000 A 
ENDBRANCH  10  12
ENDBRANCH   1  11
BRANCH   4  18
ATOM     18  C   UNL     1       1.711   9.519  18.407  0.00  0.00    +0.000 C 
BRANCH  18  19
ATOM     19  O   UNL     1       0.454   9.501  17.731  0.00  0.00    +0.000 OA
BRANCH  19  20
ATOM     20  C   UNL     1      -0.499  10.346  18.228  0.00  0.00    +0.000 A 
ATOM     21  C   UNL     1      -1.730  10.302  17.570  0.00  0.00    +0.000 A 
ATOM     22  C   UNL     1      -2.796  11.087  18.011  0.00  0.00    +0.000 A 
ATOM     23  C   UNL     1      -2.638  11.909  19.124  0.00  0.00    +0.000 A 
ATOM     24  C   UNL     1      -1.415  11.946  19.792  0.00  0.00    +0.000 A 
ATOM     25  C   UNL     1      -0.344  11.166  19.346  0.00  0.00    +0.000 A 
ENDBRANCH  19  20
ENDBRANCH  18  19
ENDBRANCH   4  18
TORSDOF 5
ENDMDL
MODEL 8
REMARK VINA RESULT:      -7.8      0.982      1.376
REMARK  Name = 
REMARK  6 active torsions:
REMARK  status: ('A' for Active; 'I' for Inactive)
REMARK    1  A    between atoms: C_1  and  C_2
REMARK    2  A    between atoms: C_5  and  C_6
REMARK    3  A    between atoms: C_12  and  C_13
REMARK    4  A    between atoms: C_16  and  C_17
REMARK    5  A    between atoms: C_17  and  O_18
REMARK    6  A    between atoms: O_18  and  C_19
REMARK                            x       y       z     vdW  Elec       q    Type
REMARK                         _______ _______ _______ _____ _____    ______ ____
ROOT
ATOM      1  C   UNL     1       5.090   5.221  18.943  0.00  0.00    +0.000 A 
ATOM      2  C   UNL     1       6.287   5.367  19.613  0.00  0.00    +0.000 A 
ATOM      3  S   UNL     1       7.480   6.003  18.560  0.00  0.00    +0.000 S 
ATOM      4  C   UNL     1       6.317   6.048  17.290  0.00  0.00    +0.000 A 
ATOM      5  N   UNL     1       5.113   5.627  17.622  0.00  0.00    +0.000 NA
ENDROOT
BRANCH   1  11
ATOM      6  C   UNL     1       4.374   2.136  19.922  0.00  0.00    +0.000 C 
ATOM      7  C   UNL     1       3.596   3.388  19.889  0.00  0.00    +0.000 A 
ATOM      8  O   UNL     1       2.330   3.316  20.372  0.00  0.00    +0.000 OA
ATOM      9  N   UNL     1       1.722   4.546  20.274  0.00  0.00    +0.000 NA
ATOM     10  C   UNL     1       2.620   5.381  19.717  0.00  0.00    +0.000 A 
ATOM     11  C   UNL     1       3.848   4.680  19.489  0.00  0.00    +0.000 A 
BRANCH  10  12
ATOM     12  C   UNL     1       2.240   6.766  19.413  0.00  0.00    +0.000 A 
ATOM     13  C   UNL     1       1.711   7.596  20.414  0.00  0.00    +0.000 A 
ATOM     14  C   UNL     1       1.357   8.919  20.133  0.00  0.00    +0.000 A 
ATOM     15  C   UNL     1       1.531   9.431  18.849  0.00  0.00    +0.000 A 
ATOM     16  C   UNL     1       2.033   8.615  17.840  0.00  0.00    +0.000 A 
ATOM     17  C   UNL     1       2.366   7.287  18.116  0.00  0.00    +0.000 A 
ENDBRANCH  10  12
ENDBRANCH   1  11
BRANCH   4  18
ATOM     18  C   UNL     1       6.718   6.511  15.921  0.00  0.00    +0.000 C 
BRANCH  18  19
ATOM     19  O   UNL     1       7.532   5.480  15.364  0.00  0.00    +0.000 OA
BRANCH  19  20
ATOM     20  C   UNL     1       7.021   4.848  14.265  0.00  0.00    +0.000 A 
ATOM     21  C   UNL     1       7.730   5.055  13.079  0.00  0.00    +0.000 A 
ATOM     22  C   UNL     1       7.331   4.429  11.898  0.00  0.00    +0.000 A 
ATOM     23  C   UNL     1       6.228   3.579  11.902  0.00  0.00    +0.000 A 
ATOM     24  C   UNL     1       5.524   3.359  13.085  0.00  0.00    +0.000 A 
ATOM     25  C   UNL     1       5.918   3.993  14.267  0.00  0.00    +0.000 A 
ENDBRANCH  19  20
ENDBRANCH  18  19
ENDBRANCH   4  18
TORSDOF 5
ENDMDL
MODEL 9
REMARK VINA RESULT:      -7.8      4.372      6.653
REMARK  Name = 
REMARK  6 active torsions:
REMARK  status: ('A' for Active; 'I' for Inactive)
REMARK    1  A    between atoms: C_1  and  C_2
REMARK    2  A    between atoms: C_5  and  C_6
REMARK    3  A    between atoms: C_12  and  C_13
REMARK    4  A    between atoms: C_16  and  C_17
REMARK    5  A    between atoms: C_17  and  O_18
REMARK    6  A    between atoms: O_18  and  C_19
REMARK                            x       y       z     vdW  Elec       q    Type
REMARK                         _______ _______ _______ _____ _____    ______ ____
ROOT
ATOM      1  C   UNL     1       6.906   5.744  16.826  0.00  0.00    +0.000 A 
ATOM      2  C   UNL     1       7.420   5.239  18.002  0.00  0.00    +0.000 A 
ATOM      3  S   UNL     1       8.120   6.497  18.930  0.00  0.00    +0.000 S 
ATOM      4  C   UNL     1       7.681   7.627  17.707  0.00  0.00    +0.000 A 
ATOM      5  N   UNL     1       7.046   7.111  16.673  0.00  0.00    +0.000 NA
ENDROOT
BRANCH   1  11
ATOM      6  C   UNL     1       7.812   5.346  13.662  0.00  0.00    +0.000 C 
ATOM      7  C   UNL     1       6.676   4.840  14.456  0.00  0.00    +0.000 A 
ATOM      8  O   UNL     1       5.814   4.019  13.806  0.00  0.00    +0.000 OA
ATOM      9  N   UNL     1       4.806   3.630  14.659  0.00  0.00    +0.000 NA
ATOM     10  C   UNL     1       5.047   4.226  15.843  0.00  0.00    +0.000 A 
ATOM     11  C   UNL     1       6.260   4.983  15.760  0.00  0.00    +0.000 A 
BRANCH  10  12
ATOM     12  C   UNL     1       4.098   4.062  16.950  0.00  0.00    +0.000 A 
ATOM     13  C   UNL     1       3.394   5.168  17.454  0.00  0.00    +0.000 A 
ATOM     14  C   UNL     1       2.479   5.016  18.501  0.00  0.00    +0.000 A 
ATOM     15  C   UNL     1       2.253   3.757  19.055  0.00  0.00    +0.000 A 
ATOM     16  C   UNL     1       2.960   2.655  18.581  0.00  0.00    +0.000 A 
ATOM     17  C   UNL     1       3.889   2.811  17.551  0.00  0.00    +0.000 A 
ENDBRANCH  10  12
ENDBRANCH   1  11
BRANCH   4  18
ATOM     18  C   UNL     1       8.054   9.073  17.851  0.00  0.00    +0.000 C 
BRANCH  18  19
ATOM     19  O   UNL     1       8.923   9.159  18.980  0.00  0.00    +0.000 OA
BRANCH  19  20
ATOM     20  C   UNL     1       9.414  10.404  19.257  0.00  0.00    +0.000 A 
ATOM     21  C   UNL     1       9.762  11.167  18.140  0.00  0.00    +0.000 A 
ATOM     22  C   UNL     1      10.234  12.471  18.292  0.00  0.00    +0.000 A 
ATOM     23  C   UNL     1      10.346  13.023  19.566  0.00  0.00    +0.000 A 
ATOM     24  C   UNL     1       9.988  12.271  20.684  0.00  0.00    +0.000 A 
ATOM     25  C   UNL     1       9.522  10.962  20.533  0.00  0.00    +0.000 A 
ENDBRANCH  19  20
ENDBRANCH  18  19
ENDBRANCH   4  18
TORSDOF 5
ENDMDL
