MODEL 1
REMARK VINA RESULT:      -7.9      0.000      0.000
REMARK  Name = 
REMARK  5 active torsions:
REMARK  status: ('A' for Active; 'I' for Inactive)
REMARK    1  A    between atoms: C_1  and  C_2
REMARK    2  A    between atoms: C_4  and  C_5
REMARK    3  A    between atoms: C_5  and  N_6
REMARK    4  A    between atoms: C_9  and  C_10
REMARK    5  A    between atoms: N_18  and  C_19
REMARK                            x       y       z     vdW  Elec       q    Type
REMARK                         _______ _______ _______ _____ _____    ______ ____
ROOT
ATOM      1  N   UNL     1       6.156   4.309  16.674  0.00  0.00    +0.000 NA
ATOM      2  C   UNL     1       6.229   4.820  18.052  0.00  0.00    +0.000 C 
ATOM      3  C   UNL     1       5.221   4.152  18.991  0.00  0.00    +0.000 C 
ATOM      4  C   UNL     1       3.778   4.223  18.487  0.00  0.00    +0.000 C 
ATOM      5  C   UNL     1       3.718   3.788  17.025  0.00  0.00    +0.000 C 
ATOM      6  C   UNL     1       4.791   4.418  16.137  0.00  0.00    +0.000 C 
ENDROOT
BRANCH   4   7
ATOM      7  C   UNL     1       3.123   5.560  18.776  0.00  0.00    +0.000 A 
ATOM      8  N   UNL     1       3.077   6.617  17.983  0.00  0.00    +0.000 NA
ATOM      9  C   UNL     1       2.361   7.584  18.665  0.00  0.00    +0.000 A 
ATOM     10  C   UNL     1       2.018   8.895  18.291  0.00  0.00    +0.000 A 
ATOM     11  C   UNL     1       1.274   9.690  19.181  0.00  0.00    +0.000 A 
ATOM     12  C   UNL     1       0.867   9.186  20.413  0.00  0.00    +0.000 A 
ATOM     13  C   UNL     1       1.192   7.880  20.802  0.00  0.00    +0.000 A 
ATOM     14  C   UNL     1       1.955   7.111  19.905  0.00  0.00    +0.000 A 
ATOM     15  N   UNL     1       2.465   5.837  19.964  0.00  0.00    +0.000 N 
ATOM     16  C   UNL     1       2.319   4.964  21.103  0.00  0.00    +0.000 C 
ENDBRANCH   4   7
BRANCH   1  17
ATOM     17  C   UNL     1       7.065   5.094  15.797  0.00  0.00    +0.000 C 
BRANCH  17  21
ATOM     18  C   UNL     1       5.722   2.655  11.676  0.00  0.00    +0.000 C 
ATOM     19  C   UNL     1       6.356   3.545  12.668  0.00  0.00    +0.000 A 
ATOM     20  N   UNL     1       6.158   3.618  13.970  0.00  0.00    +0.000 NA
ATOM     21  C   UNL     1       6.965   4.669  14.370  0.00  0.00    +0.000 A 
ATOM     22  C   UNL     1       7.633   5.164  13.274  0.00  0.00    +0.000 A 
ATOM     23  O   UNL     1       7.255   4.452  12.179  0.00  0.00    +0.000 OA
ENDBRANCH  17  21
ENDBRANCH   1  17
TORSDOF 3
ENDMDL
MODEL 2
REMARK VINA RESULT:      -7.9      1.585      3.291
REMARK  Name = 
REMARK  5 active torsions:
REMARK  status: ('A' for Active; 'I' for Inactive)
REMARK    1  A    between atoms: C_1  and  C_2
REMARK    2  A    between atoms: C_4  and  C_5
REMARK    3  A    between atoms: C_5  and  N_6
REMARK    4  A    between atoms: C_9  and  C_10
REMARK    5  A    between atoms: N_18  and  C_19
REMARK                            x       y       z     vdW  Elec       q    Type
REMARK                         _______ _______ _______ _____ _____    ______ ____
ROOT
ATOM      1  N   UNL     1       6.865   5.607  15.614  0.00  0.00    +0.000 NA
ATOM      2  C   UNL     1       5.401   5.641  15.462  0.00  0.00    +0.000 C 
ATOM      3  C   UNL     1       4.746   6.785  16.242  0.00  0.00    +0.000 C 
ATOM      4  C   UNL     1       5.114   6.800  17.727  0.00  0.00    +0.000 C 
ATOM      5  C   UNL     1       6.627   6.663  17.888  0.00  0.00    +0.000 C 
ATOM      6  C   UNL     1       7.252   5.562  17.032  0.00  0.00    +0.000 C 
ENDROOT
BRANCH   4   7
ATOM      7  C   UNL     1       4.301   5.812  18.541  0.00  0.00    +0.000 A 
ATOM      8  N   UNL     1       4.610   4.557  18.819  0.00  0.00    +0.000 NA
ATOM      9  C   UNL     1       3.579   4.066  19.600  0.00  0.00    +0.000 A 
ATOM     10  C   UNL     1       3.394   2.793  20.167  0.00  0.00    +0.000 A 
ATOM     11  C   UNL     1       2.240   2.543  20.931  0.00  0.00    +0.000 A 
ATOM     12  C   UNL     1       1.295   3.545  21.138  0.00  0.00    +0.000 A 
ATOM     13  C   UNL     1       1.464   4.822  20.588  0.00  0.00    +0.000 A 
ATOM     14  C   UNL     1       2.615   5.042  19.811  0.00  0.00    +0.000 A 
ATOM     15  N   UNL     1       3.080   6.132  19.115  0.00  0.00    +0.000 N 
ATOM     16  C   UNL     1       2.375   7.387  19.021  0.00  0.00    +0.000 C 
ENDBRANCH   4   7
BRANCH   1  17
ATOM     17  C   UNL     1       7.413   4.399  14.943  0.00  0.00    +0.000 C 
BRANCH  17  21
ATOM     18  C   UNL     1       4.290   3.033  11.321  0.00  0.00    +0.000 C 
ATOM     19  C   UNL     1       5.430   3.538  12.112  0.00  0.00    +0.000 A 
ATOM     20  N   UNL     1       5.607   3.532  13.418  0.00  0.00    +0.000 NA
ATOM     21  C   UNL     1       6.810   4.192  13.593  0.00  0.00    +0.000 A 
ATOM     22  C   UNL     1       7.312   4.545  12.361  0.00  0.00    +0.000 A 
ATOM     23  O   UNL     1       6.440   4.130  11.405  0.00  0.00    +0.000 OA
ENDBRANCH  17  21
ENDBRANCH   1  17
TORSDOF 3
ENDMDL
MODEL 3
REMARK VINA RESULT:      -7.8      2.295      3.277
REMARK  Name = 
REMARK  5 active torsions:
REMARK  status: ('A' for Active; 'I' for Inactive)
REMARK    1  A    between atoms: C_1  and  C_2
REMARK    2  A    between atoms: C_4  and  C_5
REMARK    3  A    between atoms: C_5  and  N_6
REMARK    4  A    between atoms: C_9  and  C_10
REMARK    5  A    between atoms: N_18  and  C_19
REMARK                            x       y       z     vdW  Elec       q    Type
REMARK                         _______ _______ _______ _____ _____    ______ ____
ROOT
ATOM      1  N   UNL     1       5.783   3.891  17.023  0.00  0.00    +0.000 NA
ATOM      2  C   UNL     1       5.712   4.240  18.451  0.00  0.00    +0.000 C 
ATOM      3  C   UNL     1       4.486   3.648  19.151  0.00  0.00    +0.000 C 
ATOM      4  C   UNL     1       3.164   3.999  18.465  0.00  0.00    +0.000 C 
ATOM      5  C   UNL     1       3.270   3.731  16.966  0.00  0.00    +0.000 C 
ATOM      6  C   UNL     1       4.547   4.270  16.321  0.00  0.00    +0.000 C 
ENDROOT
BRANCH   4   7
ATOM      7  C   UNL     1       2.669   5.386  18.826  0.00  0.00    +0.000 A 
ATOM      8  N   UNL     1       2.660   6.459  18.054  0.00  0.00    +0.000 NA
ATOM      9  C   UNL     1       2.102   7.476  18.806  0.00  0.00    +0.000 A 
ATOM     10  C   UNL     1       1.859   8.822  18.480  0.00  0.00    +0.000 A 
ATOM     11  C   UNL     1       1.272   9.666  19.439  0.00  0.00    +0.000 A 
ATOM     12  C   UNL     1       0.921   9.176  20.695  0.00  0.00    +0.000 A 
ATOM     13  C   UNL     1       1.148   7.838  21.038  0.00  0.00    +0.000 A 
ATOM     14  C   UNL     1       1.755   7.018  20.070  0.00  0.00    +0.000 A 
ATOM     15  N   UNL     1       2.141   5.700  20.069  0.00  0.00    +0.000 N 
ATOM     16  C   UNL     1       2.005   4.821  21.205  0.00  0.00    +0.000 C 
ENDBRANCH   4   7
BRANCH   1  17
ATOM     17  C   UNL     1       6.919   4.607  16.385  0.00  0.00    +0.000 C 
BRANCH  17  21
ATOM     18  C   UNL     1       8.144   9.207  17.824  0.00  0.00    +0.000 C 
ATOM     19  C   UNL     1       7.917   7.752  17.728  0.00  0.00    +0.000 A 
ATOM     20  N   UNL     1       7.445   7.046  16.719  0.00  0.00    +0.000 NA
ATOM     21  C   UNL     1       7.388   5.756  17.214  0.00  0.00    +0.000 A 
ATOM     22  C   UNL     1       7.858   5.750  18.507  0.00  0.00    +0.000 A 
ATOM     23  O   UNL     1       8.203   7.020  18.847  0.00  0.00    +0.000 OA
ENDBRANCH  17  21
ENDBRANCH   1  17
TORSDOF 3
ENDMDL
MODEL 4
REMARK VINA RESULT:      -7.7      1.695      3.279
REMARK  Name = 
REMARK  5 active torsions:
REMARK  status: ('A' for Active; 'I' for Inactive)
REMARK    1  A    between atoms: C_1  and  C_2
REMARK    2  A    between atoms: C_4  and  C_5
REMARK    3  A    between atoms: C_5  and  N_6
REMARK    4  A    between atoms: C_9  and  C_10
REMARK    5  A    between atoms: N_18  and  C_19
REMARK                            x       y       z     vdW  Elec       q    Type
REMARK                         _______ _______ _______ _____ _____    ______ ____
ROOT
ATOM      1  N   UNL     1       6.833   5.947  15.832  0.00  0.00    +0.000 NA
ATOM      2  C   UNL     1       5.455   5.911  15.317  0.00  0.00    +0.000 C 
ATOM      3  C   UNL     1       4.537   6.934  15.992  0.00  0.00    +0.000 C 
ATOM      4  C   UNL     1       4.523   6.827  17.518  0.00  0.00    +0.000 C 
ATOM      5  C   UNL     1       5.955   6.764  18.047  0.00  0.00    +0.000 C 
ATOM      6  C   UNL     1       6.859   5.788  17.294  0.00  0.00    +0.000 C 
ENDROOT
BRANCH   4   7
ATOM      7  C   UNL     1       3.615   5.720  18.019  0.00  0.00    +0.000 A 
ATOM      8  N   UNL     1       3.574   4.467  17.598  0.00  0.00    +0.000 NA
ATOM      9  C   UNL     1       2.608   3.834  18.359  0.00  0.00    +0.000 A 
ATOM     10  C   UNL     1       2.154   2.504  18.329  0.00  0.00    +0.000 A 
ATOM     11  C   UNL     1       1.144   2.103  19.221  0.00  0.00    +0.000 A 
ATOM     12  C   UNL     1       0.605   3.005  20.135  0.00  0.00    +0.000 A 
ATOM     13  C   UNL     1       1.049   4.332  20.187  0.00  0.00    +0.000 A 
ATOM     14  C   UNL     1       2.045   4.715  19.271  0.00  0.00    +0.000 A 
ATOM     15  N   UNL     1       2.680   5.908  19.025  0.00  0.00    +0.000 N 
ATOM     16  C   UNL     1       2.387   7.136  19.723  0.00  0.00    +0.000 C 
ENDBRANCH   4   7
BRANCH   1  17
ATOM     17  C   UNL     1       7.626   4.843  15.229  0.00  0.00    +0.000 C 
BRANCH  17  21
ATOM     18  C   UNL     1       5.033   2.763  11.530  0.00  0.00    +0.000 C 
ATOM     19  C   UNL     1       5.998   3.523  12.349  0.00  0.00    +0.000 A 
ATOM     20  N   UNL     1       6.122   3.571  13.660  0.00  0.00    +0.000 NA
ATOM     21  C   UNL     1       7.137   4.489  13.864  0.00  0.00    +0.000 A 
ATOM     22  C   UNL     1       7.592   4.934  12.644  0.00  0.00    +0.000 A 
ATOM     23  O   UNL     1       6.873   4.321  11.666  0.00  0.00    +0.000 OA
ENDBRANCH  17  21
ENDBRANCH   1  17
TORSDOF 3
ENDMDL
MODEL 5
REMARK VINA RESULT:      -7.5      2.656      3.502
REMARK  Name = 
REMARK  5 active torsions:
REMARK  status: ('A' for Active; 'I' for Inactive)
REMARK    1  A    between atoms: C_1  and  C_2
REMARK    2  A    between atoms: C_4  and  C_5
REMARK    3  A    between atoms: C_5  and  N_6
REMARK    4  A    between atoms: C_9  and  C_10
REMARK    5  A    between atoms: N_18  and  C_19
REMARK                            x       y       z     vdW  Elec       q    Type
REMARK                         _______ _______ _______ _____ _____    ______ ____
ROOT
ATOM      1  N   UNL     1       5.508   4.208  17.692  0.00  0.00    +0.000 NA
ATOM      2  C   UNL     1       5.414   4.891  18.992  0.00  0.00    +0.000 C 
ATOM      3  C   UNL     1       4.112   4.585  19.736  0.00  0.00    +0.000 C 
ATOM      4  C   UNL     1       2.856   4.867  18.910  0.00  0.00    +0.000 C 
ATOM      5  C   UNL     1       2.995   4.242  17.524  0.00  0.00    +0.000 C 
ATOM      6  C   UNL     1       4.341   4.506  16.848  0.00  0.00    +0.000 C 
ENDROOT
BRANCH   4   7
ATOM      7  C   UNL     1       2.478   6.336  18.905  0.00  0.00    +0.000 A 
ATOM      8  N   UNL     1       2.734   7.226  17.961  0.00  0.00    +0.000 NA
ATOM      9  C   UNL     1       2.181   8.419  18.391  0.00  0.00    +0.000 A 
ATOM     10  C   UNL     1       2.164   9.685  17.780  0.00  0.00    +0.000 A 
ATOM     11  C   UNL     1       1.526  10.754  18.435  0.00  0.00    +0.000 A 
ATOM     12  C   UNL     1       0.905  10.562  19.667  0.00  0.00    +0.000 A 
ATOM     13  C   UNL     1       0.904   9.307  20.288  0.00  0.00    +0.000 A 
ATOM     14  C   UNL     1       1.567   8.259  19.625  0.00  0.00    +0.000 A 
ATOM     15  N   UNL     1       1.784   6.940  19.942  0.00  0.00    +0.000 N 
ATOM     16  C   UNL     1       1.346   6.326  21.172  0.00  0.00    +0.000 C 
ENDBRANCH   4   7
BRANCH   1  17
ATOM     17  C   UNL     1       6.730   4.656  16.973  0.00  0.00    +0.000 C 
BRANCH  17  21
ATOM     18  C   UNL     1       8.065   9.378  17.782  0.00  0.00    +0.000 C 
ATOM     19  C   UNL     1       7.878   7.915  17.840  0.00  0.00    +0.000 A 
ATOM     20  N   UNL     1       7.224   7.125  17.012  0.00  0.00    +0.000 NA
ATOM     21  C   UNL     1       7.324   5.875  17.596  0.00  0.00    +0.000 A 
ATOM     22  C   UNL     1       8.066   5.978  18.751  0.00  0.00    +0.000 A 
ATOM     23  O   UNL     1       8.429   7.278  18.917  0.00  0.00    +0.000 OA
ENDBRANCH  17  21
ENDBRANCH   1  17
TORSDOF 3
ENDMDL
MODEL 6
REMARK VINA RESULT:      -7.3      3.675      6.159
REMARK  Name = 
REMARK  5 active torsions:
REMARK  status: ('A' for Active; 'I' for Inactive)
REMARK    1  A    between atoms: C_1  and  C_2
REMARK    2  A    between atoms: C_4  and  C_5
REMARK    3  A    between atoms: C_5  and  N_6
REMARK    4  A    between atoms: C_9  and  C_10
REMARK    5  A    between atoms: N_18  and  C_19
REMARK                            x       y       z     vdW  Elec       q    Type
REMARK                         _______ _______ _______ _____ _____    ______ ____
ROOT
ATOM      1  N   UNL     1       2.543   7.671  18.831  0.00  0.00    +0.000 NA
ATOM      2  C   UNL     1       2.379   8.622  17.719  0.00  0.00    +0.000 C 
ATOM      3  C   UNL     1       2.254  10.074  18.188  0.00  0.00    +0.000 C 
ATOM      4  C   UNL     1       1.146  10.288  19.222  0.00  0.00    +0.000 C 
ATOM      5  C   UNL     1       1.256   9.238  20.325  0.00  0.00    +0.000 C 
ATOM      6  C   UNL     1       1.460   7.811  19.815  0.00  0.00    +0.000 C 
ENDROOT
BRANCH   4   7
ATOM      7  C   UNL     1      -0.229  10.399  18.591  0.00  0.00    +0.000 A 
ATOM      8  N   UNL     1      -0.672   9.764  17.519  0.00  0.00    +0.000 NA
ATOM      9  C   UNL     1      -1.981  10.171  17.340  0.00  0.00    +0.000 A 
ATOM     10  C   UNL     1      -2.918   9.813  16.354  0.00  0.00    +0.000 A 
ATOM     11  C   UNL     1      -4.205  10.378  16.394  0.00  0.00    +0.000 A 
ATOM     12  C   UNL     1      -4.558  11.271  17.402  0.00  0.00    +0.000 A 
ATOM     13  C   UNL     1      -3.642  11.635  18.397  0.00  0.00    +0.000 A 
ATOM     14  C   UNL     1      -2.355  11.074  18.325  0.00  0.00    +0.000 A 
ATOM     15  N   UNL     1      -1.226  11.221  19.094  0.00  0.00    +0.000 N 
ATOM     16  C   UNL     1      -1.136  12.104  20.231  0.00  0.00    +0.000 C 
ENDBRANCH   4   7
BRANCH   1  17
ATOM     17  C   UNL     1       2.524   6.279  18.310  0.00  0.00    +0.000 C 
BRANCH  17  21
ATOM     18  C   UNL     1       7.254   4.830  17.800  0.00  0.00    +0.000 C 
ATOM     19  C   UNL     1       5.847   5.000  18.214  0.00  0.00    +0.000 A 
ATOM     20  N   UNL     1       4.920   5.792  17.711  0.00  0.00    +0.000 NA
ATOM     21  C   UNL     1       3.826   5.584  18.532  0.00  0.00    +0.000 A 
ATOM     22  C   UNL     1       4.151   4.647  19.485  0.00  0.00    +0.000 A 
ATOM     23  O   UNL     1       5.441   4.263  19.291  0.00  0.00    +0.000 OA
ENDBRANCH  17  21
ENDBRANCH   1  17
TORSDOF 3
ENDMDL
MODEL 7
REMARK VINA RESULT:      -7.3      2.436      3.306
REMARK  Name = 
REMARK  5 active torsions:
REMARK  status: ('A' for Active; 'I' for Inactive)
REMARK    1  A    between atoms: C_1  and  C_2
REMARK    2  A    between atoms: C_4  and  C_5
REMARK    3  A    between atoms: C_5  and  N_6
REMARK    4  A    between atoms: C_9  and  C_10
REMARK    5  A    between atoms: N_18  and  C_19
REMARK                            x       y       z     vdW  Elec       q    Type
REMARK                         _______ _______ _______ _____ _____    ______ ____
ROOT
ATOM      1  N   UNL     1       5.967   4.025  17.733  0.00  0.00    +0.000 NA
ATOM      2  C   UNL     1       5.658   4.558  19.070  0.00  0.00    +0.000 C 
ATOM      3  C   UNL     1       4.279   4.129  19.580  0.00  0.00    +0.000 C 
ATOM      4  C   UNL     1       3.141   4.462  18.613  0.00  0.00    +0.000 C 
ATOM      5  C   UNL     1       3.504   3.998  17.204  0.00  0.00    +0.000 C 
ATOM      6  C   UNL     1       4.918   4.378  16.764  0.00  0.00    +0.000 C 
ENDROOT
BRANCH   4   7
ATOM      7  C   UNL     1       2.698   5.910  18.707  0.00  0.00    +0.000 A 
ATOM      8  N   UNL     1       2.846   6.853  17.793  0.00  0.00    +0.000 NA
ATOM      9  C   UNL     1       2.272   7.997  18.318  0.00  0.00    +0.000 A 
ATOM     10  C   UNL     1       2.155   9.288  17.774  0.00  0.00    +0.000 A 
ATOM     11  C   UNL     1       1.518  10.293  18.523  0.00  0.00    +0.000 A 
ATOM     12  C   UNL     1       0.996  10.015  19.784  0.00  0.00    +0.000 A 
ATOM     13  C   UNL     1       1.097   8.734  20.341  0.00  0.00    +0.000 A 
ATOM     14  C   UNL     1       1.756   7.751  19.582  0.00  0.00    +0.000 A 
ATOM     15  N   UNL     1       2.054   6.431  19.818  0.00  0.00    +0.000 N 
ATOM     16  C   UNL     1       1.734   5.740  21.043  0.00  0.00    +0.000 C 
ENDBRANCH   4   7
BRANCH   1  17
ATOM     17  C   UNL     1       7.255   4.589  17.251  0.00  0.00    +0.000 C 
BRANCH  17  21
ATOM     18  C   UNL     1       8.450   9.311  18.256  0.00  0.00    +0.000 C 
ATOM     19  C   UNL     1       7.813   8.067  17.781  0.00  0.00    +0.000 A 
ATOM     20  N   UNL     1       8.150   6.815  18.016  0.00  0.00    +0.000 NA
ATOM     21  C   UNL     1       7.248   6.081  17.266  0.00  0.00    +0.000 A 
ATOM     22  C   UNL     1       6.388   6.946  16.627  0.00  0.00    +0.000 A 
ATOM     23  O   UNL     1       6.737   8.219  16.951  0.00  0.00    +0.000 OA
ENDBRANCH  17  21
ENDBRANCH   1  17
TORSDOF 3
ENDMDL
MODEL 8
REMARK VINA RESULT:      -7.2      1.023      1.259
REMARK  Name = 
REMARK  5 active torsions:
REMARK  status: ('A' for Active; 'I' for Inactive)
REMARK    1  A    between atoms: C_1  and  C_2
REMARK    2  A    between atoms: C_4  and  C_5
REMARK    3  A    between atoms: C_5  and  N_6
REMARK    4  A    between atoms: C_9  and  C_10
REMARK    5  A    between atoms: N_18  and  C_19
REMARK                            x       y       z     vdW  Elec       q    Type
REMARK                         _______ _______ _______ _____ _____    ______ ____
ROOT
ATOM      1  N   UNL     1       5.789   3.966  17.225  0.00  0.00    +0.000 NA
ATOM      2  C   UNL     1       5.653   4.310  18.650  0.00  0.00    +0.000 C 
ATOM      3  C   UNL     1       4.380   3.742  19.283  0.00  0.00    +0.000 C 
ATOM      4  C   UNL     1       3.102   4.123  18.532  0.00  0.00    +0.000 C 
ATOM      5  C   UNL     1       3.280   3.859  17.038  0.00  0.00    +0.000 C 
ATOM      6  C   UNL     1       4.600   4.373  16.463  0.00  0.00    +0.000 C 
ENDROOT
BRANCH   4   7
ATOM      7  C   UNL     1       2.618   5.520  18.873  0.00  0.00    +0.000 A 
ATOM      8  N   UNL     1       2.601   6.577  18.080  0.00  0.00    +0.000 NA
ATOM      9  C   UNL     1       2.059   7.611  18.821  0.00  0.00    +0.000 A 
ATOM     10  C   UNL     1       1.815   8.951  18.472  0.00  0.00    +0.000 A 
ATOM     11  C   UNL     1       1.248   9.816  19.424  0.00  0.00    +0.000 A 
ATOM     12  C   UNL     1       0.916   9.353  20.695  0.00  0.00    +0.000 A 
ATOM     13  C   UNL     1       1.145   8.021  21.061  0.00  0.00    +0.000 A 
ATOM     14  C   UNL     1       1.732   7.180  20.099  0.00  0.00    +0.000 A 
ATOM     15  N   UNL     1       2.114   5.860  20.118  0.00  0.00    +0.000 N 
ATOM     16  C   UNL     1       1.993   5.004  21.273  0.00  0.00    +0.000 C 
ENDBRANCH   4   7
BRANCH   1  17
ATOM     17  C   UNL     1       6.972   4.659  16.650  0.00  0.00    +0.000 C 
BRANCH  17  21
ATOM     18  C   UNL     1       7.956   5.667  11.881  0.00  0.00    +0.000 C 
ATOM     19  C   UNL     1       7.438   5.117  13.148  0.00  0.00    +0.000 A 
ATOM     20  N   UNL     1       7.683   5.500  14.386  0.00  0.00    +0.000 NA
ATOM     21  C   UNL     1       6.988   4.588  15.160  0.00  0.00    +0.000 A 
ATOM     22  C   UNL     1       6.332   3.705  14.332  0.00  0.00    +0.000 A 
ATOM     23  O   UNL     1       6.610   4.034  13.043  0.00  0.00    +0.000 OA
ENDBRANCH  17  21
ENDBRANCH   1  17
TORSDOF 3
ENDMDL
MODEL 9
REMARK VINA RESULT:      -7.2      1.465      1.863
REMARK  Name = 
REMARK  5 active torsions:
REMARK  status: ('A' for Active; 'I' for Inactive)
REMARK    1  A    between atoms: C_1  and  C_2
REMARK    2  A    between atoms: C_4  and  C_5
REMARK    3  A    between atoms: C_5  and  N_6
REMARK    4  A    between atoms: C_9  and  C_10
REMARK    5  A    between atoms: N_18  and  C_19
REMARK                            x       y       z     vdW  Elec       q    Type
REMARK                         _______ _______ _______ _____ _____    ______ ____
ROOT
ATOM      1  N   UNL     1       5.449   4.640  17.927  0.00  0.00    +0.000 NA
ATOM      2  C   UNL     1       5.278   5.302  19.231  0.00  0.00    +0.000 C 
ATOM      3  C   UNL     1       3.924   5.004  19.880  0.00  0.00    +0.000 C 
ATOM      4  C   UNL     1       2.731   5.321  18.975  0.00  0.00    +0.000 C 
ATOM      5  C   UNL     1       2.954   4.718  17.591  0.00  0.00    +0.000 C 
ATOM      6  C   UNL     1       4.347   4.972  17.013  0.00  0.00    +0.000 C 
ENDROOT
BRANCH   4   7
ATOM      7  C   UNL     1       2.376   6.796  18.972  0.00  0.00    +0.000 A 
ATOM      8  N   UNL     1       2.657   7.685  18.035  0.00  0.00    +0.000 NA
ATOM      9  C   UNL     1       2.118   8.885  18.462  0.00  0.00    +0.000 A 
ATOM     10  C   UNL     1       2.127  10.153  17.857  0.00  0.00    +0.000 A 
ATOM     11  C   UNL     1       1.499  11.229  18.508  0.00  0.00    +0.000 A 
ATOM     12  C   UNL     1       0.861  11.044  19.732  0.00  0.00    +0.000 A 
ATOM     13  C   UNL     1       0.834   9.787  20.349  0.00  0.00    +0.000 A 
ATOM     14  C   UNL     1       1.487   8.731  19.689  0.00  0.00    +0.000 A 
ATOM     15  N   UNL     1       1.681   7.407  20.004  0.00  0.00    +0.000 N 
ATOM     16  C   UNL     1       1.219   6.795  21.226  0.00  0.00    +0.000 C 
ENDBRANCH   4   7
BRANCH   1  17
ATOM     17  C   UNL     1       6.723   5.081  17.301  0.00  0.00    +0.000 C 
BRANCH  17  21
ATOM     18  C   UNL     1       7.744   5.257  12.437  0.00  0.00    +0.000 C 
ATOM     19  C   UNL     1       7.236   4.915  13.780  0.00  0.00    +0.000 A 
ATOM     20  N   UNL     1       7.426   5.537  14.927  0.00  0.00    +0.000 NA
ATOM     21  C   UNL     1       6.778   4.736  15.850  0.00  0.00    +0.000 A 
ATOM     22  C   UNL     1       6.204   3.670  15.195  0.00  0.00    +0.000 A 
ATOM     23  O   UNL     1       6.487   3.774  13.870  0.00  0.00    +0.000 OA
ENDBRANCH  17  21
ENDBRANCH   1  17
TORSDOF 3
ENDMDL
