MODEL 1
REMARK VINA RESULT:      -6.7      0.000      0.000
REMARK  Name = 
REMARK  3 active torsions:
REMARK  status: ('A' for Active; 'I' for Inactive)
REMARK    1  A    between atoms: C_1  and  C_2
REMARK    2  A    between atoms: C_11  and  C_12
REMARK    3  A    between atoms: C_12  and  O_14
REMARK                            x       y       z     vdW  Elec       q    Type
REMARK                         _______ _______ _______ _____ _____    ______ ____
ROOT
ATOM      1  C   UNL     1       7.436   6.414  17.793  0.00  0.00    +0.000 C 
ATOM      2  C   UNL     1       6.895   5.555  16.687  0.00  0.00    +0.000 A 
ATOM      3  N   UNL     1       7.518   5.718  15.485  0.00  0.00    +0.000 NA
ATOM      4  C   UNL     1       7.098   5.013  14.421  0.00  0.00    +0.000 A 
ATOM      5  C   UNL     1       7.724   5.189  13.195  0.00  0.00    +0.000 A 
ATOM      6  C   UNL     1       7.320   4.485  12.058  0.00  0.00    +0.000 A 
ATOM      7  C   UNL     1       6.266   3.584  12.141  0.00  0.00    +0.000 A 
ATOM      8  C   UNL     1       5.619   3.392  13.360  0.00  0.00    +0.000 A 
ATOM      9  C   UNL     1       6.029   4.104  14.504  0.00  0.00    +0.000 A 
ATOM     10  C   UNL     1       5.395   3.941  15.742  0.00  0.00    +0.000 A 
ATOM     11  C   UNL     1       5.839   4.658  16.861  0.00  0.00    +0.000 A 
ENDROOT
BRANCH  11  12
ATOM     12  C   UNL     1       5.167   4.497  18.176  0.00  0.00    +0.000 C 
ATOM     13  O   UNL     1       4.215   5.163  18.537  0.00  0.00    +0.000 OA
BRANCH  12  14
ATOM     14  O   UNL     1       5.714   3.539  18.961  0.00  0.00    +0.000 OA
ATOM     15  H   UNL     1       6.244   3.850  19.716  0.00  0.00    +0.000 HD
ENDBRANCH  12  14
ENDBRANCH  11  12
TORSDOF 2
ENDMDL
MODEL 2
REMARK VINA RESULT:      -6.7      3.187      5.206
REMARK  Name = 
REMARK  3 active torsions:
REMARK  status: ('A' for Active; 'I' for Inactive)
REMARK    1  A    between atoms: C_1  and  C_2
REMARK    2  A    between atoms: C_11  and  C_12
REMARK    3  A    between atoms: C_12  and  O_14
REMARK                            x       y       z     vdW  Elec       q    Type
REMARK                         _______ _______ _______ _____ _____    ______ ____
ROOT
ATOM      1  C   UNL     1       7.357   5.769  19.480  0.00  0.00    +0.000 C 
ATOM      2  C   UNL     1       6.084   5.275  18.858  0.00  0.00    +0.000 A 
ATOM      3  N   UNL     1       5.024   5.203  19.713  0.00  0.00    +0.000 NA
ATOM      4  C   UNL     1       3.840   4.753  19.265  0.00  0.00    +0.000 A 
ATOM      5  C   UNL     1       2.766   4.668  20.141  0.00  0.00    +0.000 A 
ATOM      6  C   UNL     1       1.517   4.200  19.724  0.00  0.00    +0.000 A 
ATOM      7  C   UNL     1       1.332   3.806  18.405  0.00  0.00    +0.000 A 
ATOM      8  C   UNL     1       2.395   3.879  17.508  0.00  0.00    +0.000 A 
ATOM      9  C   UNL     1       3.652   4.350  17.932  0.00  0.00    +0.000 A 
ATOM     10  C   UNL     1       4.745   4.429  17.059  0.00  0.00    +0.000 A 
ATOM     11  C   UNL     1       5.977   4.915  17.512  0.00  0.00    +0.000 A 
ENDROOT
BRANCH  11  12
ATOM     12  C   UNL     1       7.142   4.993  16.595  0.00  0.00    +0.000 C 
ATOM     13  O   UNL     1       7.258   5.826  15.715  0.00  0.00    +0.000 OA
BRANCH  12  14
ATOM     14  O   UNL     1       8.080   4.040  16.810  0.00  0.00    +0.000 OA
ATOM     15  H   UNL     1       7.767   3.210  17.212  0.00  0.00    +0.000 HD
ENDBRANCH  12  14
ENDBRANCH  11  12
TORSDOF 2
ENDMDL
MODEL 3
REMARK VINA RESULT:      -6.6      2.690      5.421
REMARK  Name = 
REMARK  3 active torsions:
REMARK  status: ('A' for Active; 'I' for Inactive)
REMARK    1  A    between atoms: C_1  and  C_2
REMARK    2  A    between atoms: C_11  and  C_12
REMARK    3  A    between atoms: C_12  and  O_14
REMARK                            x       y       z     vdW  Elec       q    Type
REMARK                         _______ _______ _______ _____ _____    ______ ____
ROOT
ATOM      1  C   UNL     1       5.844   4.034  15.177  0.00  0.00    +0.000 C 
ATOM      2  C   UNL     1       5.227   4.217  16.534  0.00  0.00    +0.000 A 
ATOM      3  N   UNL     1       3.912   3.868  16.611  0.00  0.00    +0.000 NA
ATOM      4  C   UNL     1       3.255   4.014  17.775  0.00  0.00    +0.000 A 
ATOM      5  C   UNL     1       1.912   3.670  17.849  0.00  0.00    +0.000 A 
ATOM      6  C   UNL     1       1.185   3.809  19.034  0.00  0.00    +0.000 A 
ATOM      7  C   UNL     1       1.808   4.303  20.173  0.00  0.00    +0.000 A 
ATOM      8  C   UNL     1       3.154   4.657  20.123  0.00  0.00    +0.000 A 
ATOM      9  C   UNL     1       3.883   4.516  18.927  0.00  0.00    +0.000 A 
ATOM     10  C   UNL     1       5.236   4.871  18.840  0.00  0.00    +0.000 A 
ATOM     11  C   UNL     1       5.933   4.705  17.636  0.00  0.00    +0.000 A 
ENDROOT
BRANCH  11  12
ATOM     12  C   UNL     1       7.364   5.086  17.534  0.00  0.00    +0.000 C 
ATOM     13  O   UNL     1       7.750   6.213  17.283  0.00  0.00    +0.000 OA
BRANCH  12  14
ATOM     14  O   UNL     1       8.224   4.060  17.735  0.00  0.00    +0.000 OA
ATOM     15  H   UNL     1       8.055   3.499  18.512  0.00  0.00    +0.000 HD
ENDBRANCH  12  14
ENDBRANCH  11  12
TORSDOF 2
ENDMDL
MODEL 4
REMARK VINA RESULT:      -6.6      3.598      4.678
REMARK  Name = 
REMARK  3 active torsions:
REMARK  status: ('A' for Active; 'I' for Inactive)
REMARK    1  A    between atoms: C_1  and  C_2
REMARK    2  A    between atoms: C_11  and  C_12
REMARK    3  A    between atoms: C_12  and  O_14
REMARK                            x       y       z     vdW  Elec       q    Type
REMARK                         _______ _______ _______ _____ _____    ______ ____
ROOT
ATOM      1  C   UNL     1       3.836   2.481  19.953  0.00  0.00    +0.000 C 
ATOM      2  C   UNL     1       4.345   3.577  19.063  0.00  0.00    +0.000 A 
ATOM      3  N   UNL     1       5.533   4.121  19.455  0.00  0.00    +0.000 NA
ATOM      4  C   UNL     1       6.069   5.126  18.741  0.00  0.00    +0.000 A 
ATOM      5  C   UNL     1       7.271   5.687  19.149  0.00  0.00    +0.000 A 
ATOM      6  C   UNL     1       7.866   6.737  18.444  0.00  0.00    +0.000 A 
ATOM      7  C   UNL     1       7.248   7.242  17.307  0.00  0.00    +0.000 A 
ATOM      8  C   UNL     1       6.039   6.697  16.879  0.00  0.00    +0.000 A 
ATOM      9  C   UNL     1       5.444   5.639  17.593  0.00  0.00    +0.000 A 
ATOM     10  C   UNL     1       4.225   5.074  17.195  0.00  0.00    +0.000 A 
ATOM     11  C   UNL     1       3.669   4.014  17.922  0.00  0.00    +0.000 A 
ENDROOT
BRANCH  11  12
ATOM     12  C   UNL     1       2.373   3.415  17.512  0.00  0.00    +0.000 C 
ATOM     13  O   UNL     1       2.234   2.248  17.197  0.00  0.00    +0.000 OA
BRANCH  12  14
ATOM     14  O   UNL     1       1.339   4.289  17.505  0.00  0.00    +0.000 OA
ATOM     15  H   UNL     1       0.906   4.439  16.646  0.00  0.00    +0.000 HD
ENDBRANCH  12  14
ENDBRANCH  11  12
TORSDOF 2
ENDMDL
MODEL 5
REMARK VINA RESULT:      -6.6      2.894      5.205
REMARK  Name = 
REMARK  3 active torsions:
REMARK  status: ('A' for Active; 'I' for Inactive)
REMARK    1  A    between atoms: C_1  and  C_2
REMARK    2  A    between atoms: C_11  and  C_12
REMARK    3  A    between atoms: C_12  and  O_14
REMARK                            x       y       z     vdW  Elec       q    Type
REMARK                         _______ _______ _______ _____ _____    ______ ____
ROOT
ATOM      1  C   UNL     1       7.356   5.390  18.702  0.00  0.00    +0.000 C 
ATOM      2  C   UNL     1       6.072   4.733  18.284  0.00  0.00    +0.000 A 
ATOM      3  N   UNL     1       5.345   4.206  19.309  0.00  0.00    +0.000 NA
ATOM      4  C   UNL     1       4.188   3.574  19.044  0.00  0.00    +0.000 A 
ATOM      5  C   UNL     1       3.455   3.026  20.087  0.00  0.00    +0.000 A 
ATOM      6  C   UNL     1       2.250   2.355  19.862  0.00  0.00    +0.000 A 
ATOM      7  C   UNL     1       1.763   2.225  18.567  0.00  0.00    +0.000 A 
ATOM      8  C   UNL     1       2.483   2.764  17.503  0.00  0.00    +0.000 A 
ATOM      9  C   UNL     1       3.697   3.440  17.735  0.00  0.00    +0.000 A 
ATOM     10  C   UNL     1       4.449   3.986  16.687  0.00  0.00    +0.000 A 
ATOM     11  C   UNL     1       5.646   4.662  16.956  0.00  0.00    +0.000 A 
ENDROOT
BRANCH  11  12
ATOM     12  C   UNL     1       6.453   5.237  15.850  0.00  0.00    +0.000 C 
ATOM     13  O   UNL     1       7.477   4.734  15.425  0.00  0.00    +0.000 OA
BRANCH  12  14
ATOM     14  O   UNL     1       5.959   6.394  15.349  0.00  0.00    +0.000 OA
ATOM     15  H   UNL     1       5.459   6.325  14.517  0.00  0.00    +0.000 HD
ENDBRANCH  12  14
ENDBRANCH  11  12
TORSDOF 2
ENDMDL
MODEL 6
REMARK VINA RESULT:      -6.5      3.271      5.793
REMARK  Name = 
REMARK  3 active torsions:
REMARK  status: ('A' for Active; 'I' for Inactive)
REMARK    1  A    between atoms: C_1  and  C_2
REMARK    2  A    between atoms: C_11  and  C_12
REMARK    3  A    between atoms: C_12  and  O_14
REMARK                            x       y       z     vdW  Elec       q    Type
REMARK                         _______ _______ _______ _____ _____    ______ ____
ROOT
ATOM      1  C   UNL     1       6.574   5.353  18.576  0.00  0.00    +0.000 C 
ATOM      2  C   UNL     1       5.204   4.760  18.419  0.00  0.00    +0.000 A 
ATOM      3  N   UNL     1       4.470   4.716  19.567  0.00  0.00    +0.000 NA
ATOM      4  C   UNL     1       3.236   4.183  19.544  0.00  0.00    +0.000 A 
ATOM      5  C   UNL     1       2.494   4.127  20.716  0.00  0.00    +0.000 A 
ATOM      6  C   UNL     1       1.210   3.579  20.745  0.00  0.00    +0.000 A 
ATOM      7  C   UNL     1       0.649   3.071  19.579  0.00  0.00    +0.000 A 
ATOM      8  C   UNL     1       1.375   3.114  18.391  0.00  0.00    +0.000 A 
ATOM      9  C   UNL     1       2.669   3.668  18.366  0.00  0.00    +0.000 A 
ATOM     10  C   UNL     1       3.429   3.718  17.190  0.00  0.00    +0.000 A 
ATOM     11  C   UNL     1       4.708   4.288  17.202  0.00  0.00    +0.000 A 
ENDROOT
BRANCH  11  12
ATOM     12  C   UNL     1       5.524   4.338  15.961  0.00  0.00    +0.000 C 
ATOM     13  O   UNL     1       5.606   5.316  15.242  0.00  0.00    +0.000 OA
BRANCH  12  14
ATOM     14  O   UNL     1       6.173   3.183  15.681  0.00  0.00    +0.000 OA
ATOM     15  H   UNL     1       7.145   3.217  15.706  0.00  0.00    +0.000 HD
ENDBRANCH  12  14
ENDBRANCH  11  12
TORSDOF 2
ENDMDL
MODEL 7
REMARK VINA RESULT:      -6.4      2.918      4.981
REMARK  Name = 
REMARK  3 active torsions:
REMARK  status: ('A' for Active; 'I' for Inactive)
REMARK    1  A    between atoms: C_1  and  C_2
REMARK    2  A    between atoms: C_11  and  C_12
REMARK    3  A    between atoms: C_12  and  O_14
REMARK                            x       y       z     vdW  Elec       q    Type
REMARK                         _______ _______ _______ _____ _____    ______ ____
ROOT
ATOM      1  C   UNL     1       6.041   7.136  17.204  0.00  0.00    +0.000 C 
ATOM      2  C   UNL     1       5.231   5.873  17.238  0.00  0.00    +0.000 A 
ATOM      3  N   UNL     1       4.068   5.962  17.945  0.00  0.00    +0.000 NA
ATOM      4  C   UNL     1       3.277   4.882  18.059  0.00  0.00    +0.000 A 
ATOM      5  C   UNL     1       2.100   4.971  18.790  0.00  0.00    +0.000 A 
ATOM      6  C   UNL     1       1.247   3.875  18.942  0.00  0.00    +0.000 A 
ATOM      7  C   UNL     1       1.573   2.659  18.353  0.00  0.00    +0.000 A 
ATOM      8  C   UNL     1       2.750   2.544  17.617  0.00  0.00    +0.000 A 
ATOM      9  C   UNL     1       3.607   3.652  17.467  0.00  0.00    +0.000 A 
ATOM     10  C   UNL     1       4.802   3.568  16.740  0.00  0.00    +0.000 A 
ATOM     11  C   UNL     1       5.623   4.694  16.601  0.00  0.00    +0.000 A 
ENDROOT
BRANCH  11  12
ATOM     12  C   UNL     1       6.896   4.611  15.840  0.00  0.00    +0.000 C 
ATOM     13  O   UNL     1       6.973   4.737  14.632  0.00  0.00    +0.000 OA
BRANCH  12  14
ATOM     14  O   UNL     1       7.984   4.368  16.609  0.00  0.00    +0.000 OA
ATOM     15  H   UNL     1       7.883   3.686  17.297  0.00  0.00    +0.000 HD
ENDBRANCH  12  14
ENDBRANCH  11  12
TORSDOF 2
ENDMDL
MODEL 8
REMARK VINA RESULT:      -6.4      3.046      5.428
REMARK  Name = 
REMARK  3 active torsions:
REMARK  status: ('A' for Active; 'I' for Inactive)
REMARK    1  A    between atoms: C_1  and  C_2
REMARK    2  A    between atoms: C_11  and  C_12
REMARK    3  A    between atoms: C_12  and  O_14
REMARK                            x       y       z     vdW  Elec       q    Type
REMARK                         _______ _______ _______ _____ _____    ______ ____
ROOT
ATOM      1  C   UNL     1       7.292   4.737  17.937  0.00  0.00    +0.000 C 
ATOM      2  C   UNL     1       5.844   4.343  17.879  0.00  0.00    +0.000 A 
ATOM      3  N   UNL     1       5.336   3.876  19.054  0.00  0.00    +0.000 NA
ATOM      4  C   UNL     1       4.054   3.475  19.108  0.00  0.00    +0.000 A 
ATOM      5  C   UNL     1       3.541   2.987  20.302  0.00  0.00    +0.000 A 
ATOM      6  C   UNL     1       2.217   2.552  20.407  0.00  0.00    +0.000 A 
ATOM      7  C   UNL     1       1.383   2.602  19.297  0.00  0.00    +0.000 A 
ATOM      8  C   UNL     1       1.876   3.085  18.087  0.00  0.00    +0.000 A 
ATOM      9  C   UNL     1       3.211   3.522  17.985  0.00  0.00    +0.000 A 
ATOM     10  C   UNL     1       3.741   4.005  16.781  0.00  0.00    +0.000 A 
ATOM     11  C   UNL     1       5.070   4.443  16.721  0.00  0.00    +0.000 A 
ENDROOT
BRANCH  11  12
ATOM     12  C   UNL     1       5.641   4.948  15.447  0.00  0.00    +0.000 C 
ATOM     13  O   UNL     1       5.624   6.118  15.113  0.00  0.00    +0.000 OA
BRANCH  12  14
ATOM     14  O   UNL     1       6.183   3.985  14.665  0.00  0.00    +0.000 OA
ATOM     15  H   UNL     1       6.466   3.170  15.116  0.00  0.00    +0.000 HD
ENDBRANCH  12  14
ENDBRANCH  11  12
TORSDOF 2
ENDMDL
MODEL 9
REMARK VINA RESULT:      -6.4      2.928      5.777
REMARK  Name = 
REMARK  3 active torsions:
REMARK  status: ('A' for Active; 'I' for Inactive)
REMARK    1  A    between atoms: C_1  and  C_2
REMARK    2  A    between atoms: C_11  and  C_12
REMARK    3  A    between atoms: C_12  and  O_14
REMARK                            x       y       z     vdW  Elec       q    Type
REMARK                         _______ _______ _______ _____ _____    ______ ____
ROOT
ATOM      1  C   UNL     1       5.568   4.016  15.646  0.00  0.00    +0.000 C 
ATOM      2  C   UNL     1       4.900   4.141  16.985  0.00  0.00    +0.000 A 
ATOM      3  N   UNL     1       3.613   3.693  17.021  0.00  0.00    +0.000 NA
ATOM      4  C   UNL     1       2.913   3.778  18.165  0.00  0.00    +0.000 A 
ATOM      5  C   UNL     1       1.599   3.334  18.197  0.00  0.00    +0.000 A 
ATOM      6  C   UNL     1       0.829   3.407  19.360  0.00  0.00    +0.000 A 
ATOM      7  C   UNL     1       1.379   3.937  20.521  0.00  0.00    +0.000 A 
ATOM      8  C   UNL     1       2.696   4.392  20.513  0.00  0.00    +0.000 A 
ATOM      9  C   UNL     1       3.468   4.316  19.338  0.00  0.00    +0.000 A 
ATOM     10  C   UNL     1       4.792   4.772  19.294  0.00  0.00    +0.000 A 
ATOM     11  C   UNL     1       5.534   4.670  18.111  0.00  0.00    +0.000 A 
ENDROOT
BRANCH  11  12
ATOM     12  C   UNL     1       6.935   5.159  18.053  0.00  0.00    +0.000 C 
ATOM     13  O   UNL     1       7.910   4.446  18.207  0.00  0.00    +0.000 OA
BRANCH  12  14
ATOM     14  O   UNL     1       7.047   6.489  17.824  0.00  0.00    +0.000 OA
ATOM     15  H   UNL     1       7.440   7.019  18.539  0.00  0.00    +0.000 HD
ENDBRANCH  12  14
ENDBRANCH  11  12
TORSDOF 2
ENDMDL
