MODEL 1
REMARK VINA RESULT:      -7.9      0.000      0.000
REMARK  Name = 
REMARK  5 active torsions:
REMARK  status: ('A' for Active; 'I' for Inactive)
REMARK    1  A    between atoms: C_1  and  N_2
REMARK    2  A    between atoms: C_6  and  C_8
REMARK    3  A    between atoms: N_11  and  C_12
REMARK    4  A    between atoms: N_20  and  C_21
REMARK    5  A    between atoms: C_21  and  C_22
REMARK                            x       y       z     vdW  Elec       q    Type
REMARK                         _______ _______ _______ _____ _____    ______ ____
ROOT
ATOM      1  C   UNL     1       3.574   2.676  19.925  0.00  0.00    +0.000 C 
ATOM      2  N   UNL     1       3.496   4.054  19.544  0.00  0.00    +0.000 NA
ATOM      3  C   UNL     1       2.976   5.007  20.547  0.00  0.00    +0.000 C 
ATOM      4  C   UNL     1       1.954   6.013  19.972  0.00  0.00    +0.000 C 
ATOM      5  N   UNL     1       2.325   6.467  18.629  0.00  0.00    +0.000 N 
ATOM      6  C   UNL     1       2.192   7.735  18.063  0.00  0.00    +0.000 C 
ATOM      7  O   UNL     1       2.560   7.964  16.905  0.00  0.00    +0.000 OA
ATOM      8  C   UNL     1       2.776   5.414  17.756  0.00  0.00    +0.000 C 
ATOM      9  C   UNL     1       4.045   4.628  18.281  0.00  0.00    +0.000 C 
ATOM     10  C   UNL     1       5.230   5.581  18.699  0.00  0.00    +0.000 C 
ATOM     11  C   UNL     1       6.673   5.183  18.409  0.00  0.00    +0.000 C 
ATOM     12  C   UNL     1       6.990   5.523  16.980  0.00  0.00    +0.000 C 
ATOM     13  O   UNL     1       7.659   6.514  16.692  0.00  0.00    +0.000 OA
ATOM     14  N   UNL     1       6.394   4.690  16.056  0.00  0.00    +0.000 N 
ATOM     15  C   UNL     1       5.713   3.460  16.458  0.00  0.00    +0.000 C 
ATOM     16  C   UNL     1       4.314   3.695  17.027  0.00  0.00    +0.000 C 
ENDROOT
BRANCH   6  17
ATOM     17  C   UNL     1       1.681   8.839  18.879  0.00  0.00    +0.000 A 
ATOM     18  C   UNL     1       1.567  10.181  18.444  0.00  0.00    +0.000 A 
ATOM     19  C   UNL     1       1.139  10.875  19.554  0.00  0.00    +0.000 A 
ATOM     20  N   UNL     1       0.983   9.952  20.526  0.00  0.00    +0.000 N 
ATOM     21  C   UNL     1       0.676  10.183  21.921  0.00  0.00    +0.000 C 
ATOM     22  N   UNL     1       1.237   8.699  20.135  0.00  0.00    +0.000 NA
ENDBRANCH   6  17
BRANCH  14  23
ATOM     23  C   UNL     1       6.418   5.094  14.652  0.00  0.00    +0.000 C 
BRANCH  23  24
ATOM     24  C   UNL     1       6.452   3.907  13.735  0.00  0.00    +0.000 C 
ATOM     25  C   UNL     1       5.392   3.677  12.688  0.00  0.00    +0.000 C 
ATOM     26  C   UNL     1       6.777   4.085  12.271  0.00  0.00    +0.000 C 
ENDBRANCH  23  24
ENDBRANCH  14  23
TORSDOF 3
ENDMDL
MODEL 2
REMARK VINA RESULT:      -7.8      0.935      1.202
REMARK  Name = 
REMARK  5 active torsions:
REMARK  status: ('A' for Active; 'I' for Inactive)
REMARK    1  A    between atoms: C_1  and  N_2
REMARK    2  A    between atoms: C_6  and  C_8
REMARK    3  A    between atoms: N_11  and  C_12
REMARK    4  A    between atoms: N_20  and  C_21
REMARK    5  A    between atoms: C_21  and  C_22
REMARK                            x       y       z     vdW  Elec       q    Type
REMARK                         _______ _______ _______ _____ _____    ______ ____
ROOT
ATOM      1  C   UNL     1       2.897   2.390  19.959  0.00  0.00    +0.000 C 
ATOM      2  N   UNL     1       2.939   3.813  19.807  0.00  0.00    +0.000 NA
ATOM      3  C   UNL     1       2.415   4.631  20.921  0.00  0.00    +0.000 C 
ATOM      4  C   UNL     1       1.505   5.792  20.461  0.00  0.00    +0.000 C 
ATOM      5  N   UNL     1       2.000   6.425  19.236  0.00  0.00    +0.000 N 
ATOM      6  C   UNL     1       1.993   7.773  18.880  0.00  0.00    +0.000 C 
ATOM      7  O   UNL     1       2.456   8.157  17.799  0.00  0.00    +0.000 OA
ATOM      8  C   UNL     1       2.440   5.494  18.228  0.00  0.00    +0.000 C 
ATOM      9  C   UNL     1       3.614   4.538  18.690  0.00  0.00    +0.000 C 
ATOM     10  C   UNL     1       4.827   5.316  19.328  0.00  0.00    +0.000 C 
ATOM     11  C   UNL     1       6.257   4.859  19.061  0.00  0.00    +0.000 C 
ATOM     12  C   UNL     1       6.696   5.398  17.729  0.00  0.00    +0.000 C 
ATOM     13  O   UNL     1       7.448   6.367  17.649  0.00  0.00    +0.000 OA
ATOM     14  N   UNL     1       6.112   4.773  16.647  0.00  0.00    +0.000 N 
ATOM     15  C   UNL     1       5.324   3.552  16.800  0.00  0.00    +0.000 C 
ATOM     16  C   UNL     1       3.906   3.800  17.317  0.00  0.00    +0.000 C 
ENDROOT
BRANCH   6  17
ATOM     17  C   UNL     1       1.501   8.769  19.835  0.00  0.00    +0.000 A 
ATOM     18  C   UNL     1       1.438   8.584  21.237  0.00  0.00    +0.000 A 
ATOM     19  C   UNL     1       0.830   9.724  21.715  0.00  0.00    +0.000 A 
ATOM     20  N   UNL     1       0.617  10.506  20.637  0.00  0.00    +0.000 N 
ATOM     21  C   UNL     1      -0.112  11.754  20.582  0.00  0.00    +0.000 C 
ATOM     22  N   UNL     1       1.072   9.990  19.490  0.00  0.00    +0.000 NA
ENDBRANCH   6  17
BRANCH  14  23
ATOM     23  C   UNL     1       6.262   5.394  15.333  0.00  0.00    +0.000 C 
BRANCH  23  24
ATOM     24  C   UNL     1       6.941   4.475  14.361  0.00  0.00    +0.000 C 
ATOM     25  C   UNL     1       6.217   3.892  13.174  0.00  0.00    +0.000 C 
ATOM     26  C   UNL     1       7.265   4.948  12.964  0.00  0.00    +0.000 C 
ENDBRANCH  23  24
ENDBRANCH  14  23
TORSDOF 3
ENDMDL
MODEL 3
REMARK VINA RESULT:      -6.5      2.480      4.972
REMARK  Name = 
REMARK  5 active torsions:
REMARK  status: ('A' for Active; 'I' for Inactive)
REMARK    1  A    between atoms: C_1  and  N_2
REMARK    2  A    between atoms: C_6  and  C_8
REMARK    3  A    between atoms: N_11  and  C_12
REMARK    4  A    between atoms: N_20  and  C_21
REMARK    5  A    between atoms: C_21  and  C_22
REMARK                            x       y       z     vdW  Elec       q    Type
REMARK                         _______ _______ _______ _____ _____    ______ ____
ROOT
ATOM      1  C   UNL     1       6.245   5.087  16.606  0.00  0.00    +0.000 C 
ATOM      2  N   UNL     1       5.023   5.557  17.188  0.00  0.00    +0.000 NA
ATOM      3  C   UNL     1       4.476   6.832  16.681  0.00  0.00    +0.000 C 
ATOM      4  C   UNL     1       3.995   7.785  17.797  0.00  0.00    +0.000 C 
ATOM      5  N   UNL     1       3.329   7.065  18.885  0.00  0.00    +0.000 N 
ATOM      6  C   UNL     1       2.217   7.444  19.637  0.00  0.00    +0.000 C 
ATOM      7  O   UNL     1       1.766   6.717  20.530  0.00  0.00    +0.000 OA
ATOM      8  C   UNL     1       4.005   5.861  19.294  0.00  0.00    +0.000 C 
ATOM      9  C   UNL     1       4.177   4.786  18.146  0.00  0.00    +0.000 C 
ATOM     10  C   UNL     1       2.828   4.466  17.395  0.00  0.00    +0.000 C 
ATOM     11  C   UNL     1       2.518   3.042  16.948  0.00  0.00    +0.000 C 
ATOM     12  C   UNL     1       1.973   2.275  18.119  0.00  0.00    +0.000 C 
ATOM     13  O   UNL     1       0.769   2.043  18.226  0.00  0.00    +0.000 OA
ATOM     14  N   UNL     1       2.916   1.953  19.072  0.00  0.00    +0.000 N 
ATOM     15  C   UNL     1       4.345   2.146  18.833  0.00  0.00    +0.000 C 
ATOM     16  C   UNL     1       4.801   3.597  18.990  0.00  0.00    +0.000 C 
ENDROOT
BRANCH   6  17
ATOM     17  C   UNL     1       1.518   8.689  19.314  0.00  0.00    +0.000 A 
ATOM     18  C   UNL     1       1.201   9.124  18.005  0.00  0.00    +0.000 A 
ATOM     19  C   UNL     1       0.642  10.371  18.174  0.00  0.00    +0.000 A 
ATOM     20  N   UNL     1       0.613  10.582  19.506  0.00  0.00    +0.000 N 
ATOM     21  C   UNL     1       0.240  11.797  20.199  0.00  0.00    +0.000 C 
ATOM     22  N   UNL     1       1.072   9.558  20.232  0.00  0.00    +0.000 NA
ENDBRANCH   6  17
BRANCH  14  23
ATOM     23  C   UNL     1       2.445   1.453  20.362  0.00  0.00    +0.000 C 
BRANCH  23  24
ATOM     24  C   UNL     1       2.417   2.536  21.399  0.00  0.00    +0.000 C 
ATOM     25  C   UNL     1       1.575   3.776  21.235  0.00  0.00    +0.000 C 
ATOM     26  C   UNL     1       1.188   2.741  22.253  0.00  0.00    +0.000 C 
ENDBRANCH  23  24
ENDBRANCH  14  23
TORSDOF 3
ENDMDL
MODEL 4
REMARK VINA RESULT:      -6.4      0.914      1.045
REMARK  Name = 
REMARK  5 active torsions:
REMARK  status: ('A' for Active; 'I' for Inactive)
REMARK    1  A    between atoms: C_1  and  N_2
REMARK    2  A    between atoms: C_6  and  C_8
REMARK    3  A    between atoms: N_11  and  C_12
REMARK    4  A    between atoms: N_20  and  C_21
REMARK    5  A    between atoms: C_21  and  C_22
REMARK                            x       y       z     vdW  Elec       q    Type
REMARK                         _______ _______ _______ _____ _____    ______ ____
ROOT
ATOM      1  C   UNL     1       2.778   2.067  19.214  0.00  0.00    +0.000 C 
ATOM      2  N   UNL     1       2.885   3.495  19.243  0.00  0.00    +0.000 NA
ATOM      3  C   UNL     1       2.202   4.205  20.344  0.00  0.00    +0.000 C 
ATOM      4  C   UNL     1       1.417   5.453  19.882  0.00  0.00    +0.000 C 
ATOM      5  N   UNL     1       2.131   6.196  18.841  0.00  0.00    +0.000 N 
ATOM      6  C   UNL     1       2.223   7.576  18.653  0.00  0.00    +0.000 C 
ATOM      7  O   UNL     1       2.874   8.056  17.718  0.00  0.00    +0.000 OA
ATOM      8  C   UNL     1       2.710   5.366  17.816  0.00  0.00    +0.000 C 
ATOM      9  C   UNL     1       3.760   4.309  18.348  0.00  0.00    +0.000 C 
ATOM     10  C   UNL     1       4.868   4.950  19.268  0.00  0.00    +0.000 C 
ATOM     11  C   UNL     1       6.309   4.459  19.189  0.00  0.00    +0.000 C 
ATOM     12  C   UNL     1       6.984   5.123  18.023  0.00  0.00    +0.000 C 
ATOM     13  O   UNL     1       7.766   6.058  18.185  0.00  0.00    +0.000 OA
ATOM     14  N   UNL     1       6.576   4.654  16.792  0.00  0.00    +0.000 N 
ATOM     15  C   UNL     1       5.739   3.462  16.664  0.00  0.00    +0.000 C 
ATOM     16  C   UNL     1       4.262   3.718  16.965  0.00  0.00    +0.000 C 
ENDROOT
BRANCH   6  17
ATOM     17  C   UNL     1       1.603   8.479  19.626  0.00  0.00    +0.000 A 
ATOM     18  C   UNL     1       1.081   9.759  19.323  0.00  0.00    +0.000 A 
ATOM     19  C   UNL     1       0.695  10.278  20.540  0.00  0.00    +0.000 A 
ATOM     20  N   UNL     1       0.950   9.312  21.447  0.00  0.00    +0.000 N 
ATOM     21  C   UNL     1       0.847   9.406  22.887  0.00  0.00    +0.000 C 
ATOM     22  N   UNL     1       1.437   8.184  20.922  0.00  0.00    +0.000 NA
ENDBRANCH   6  17
BRANCH  14  23
ATOM     23  C   UNL     1       6.965   5.411  15.605  0.00  0.00    +0.000 C 
BRANCH  23  24
ATOM     24  C   UNL     1       6.183   4.989  14.397  0.00  0.00    +0.000 C 
ATOM     25  C   UNL     1       6.808   4.913  13.027  0.00  0.00    +0.000 C 
ATOM     26  C   UNL     1       6.443   3.648  13.752  0.00  0.00    +0.000 C 
ENDBRANCH  23  24
ENDBRANCH  14  23
TORSDOF 3
ENDMDL
MODEL 5
REMARK VINA RESULT:      -6.4      4.845     11.267
REMARK  Name = 
REMARK  5 active torsions:
REMARK  status: ('A' for Active; 'I' for Inactive)
REMARK    1  A    between atoms: C_1  and  N_2
REMARK    2  A    between atoms: C_6  and  C_8
REMARK    3  A    between atoms: N_11  and  C_12
REMARK    4  A    between atoms: N_20  and  C_21
REMARK    5  A    between atoms: C_21  and  C_22
REMARK                            x       y       z     vdW  Elec       q    Type
REMARK                         _______ _______ _______ _____ _____    ______ ____
ROOT
ATOM      1  C   UNL     1       0.819  15.808  21.081  0.00  0.00    +0.000 C 
ATOM      2  N   UNL     1       0.586  14.411  20.867  0.00  0.00    +0.000 NA
ATOM      3  C   UNL     1       1.770  13.539  20.731  0.00  0.00    +0.000 C 
ATOM      4  C   UNL     1       1.663  12.529  19.566  0.00  0.00    +0.000 C 
ATOM      5  N   UNL     1       0.311  11.981  19.437  0.00  0.00    +0.000 N 
ATOM      6  C   UNL     1      -0.083  10.684  19.107  0.00  0.00    +0.000 C 
ATOM      7  O   UNL     1      -1.278  10.372  19.040  0.00  0.00    +0.000 OA
ATOM      8  C   UNL     1      -0.736  12.963  19.555  0.00  0.00    +0.000 C 
ATOM      9  C   UNL     1      -0.748  13.743  20.932  0.00  0.00    +0.000 C 
ATOM     10  C   UNL     1      -0.709  12.785  22.183  0.00  0.00    +0.000 C 
ATOM     11  C   UNL     1      -1.516  13.122  23.432  0.00  0.00    +0.000 C 
ATOM     12  C   UNL     1      -2.938  12.684  23.222  0.00  0.00    +0.000 C 
ATOM     13  O   UNL     1      -3.374  11.658  23.741  0.00  0.00    +0.000 OA
ATOM     14  N   UNL     1      -3.648  13.474  22.341  0.00  0.00    +0.000 N 
ATOM     15  C   UNL     1      -3.117  14.746  21.853  0.00  0.00    +0.000 C 
ATOM     16  C   UNL     1      -2.077  14.588  20.744  0.00  0.00    +0.000 C 
ENDROOT
BRANCH   6  17
ATOM     17  C   UNL     1       0.934   9.649  18.912  0.00  0.00    +0.000 A 
ATOM     18  C   UNL     1       1.729   9.503  17.749  0.00  0.00    +0.000 A 
ATOM     19  C   UNL     1       2.464   8.358  17.967  0.00  0.00    +0.000 A 
ATOM     20  N   UNL     1       2.122   7.932  19.201  0.00  0.00    +0.000 N 
ATOM     21  C   UNL     1       2.513   6.699  19.849  0.00  0.00    +0.000 C 
ATOM     22  N   UNL     1       1.249   8.726  19.830  0.00  0.00    +0.000 NA
ENDBRANCH   6  17
BRANCH  14  23
ATOM     23  C   UNL     1      -4.938  12.982  21.866  0.00  0.00    +0.000 C 
BRANCH  23  24
ATOM     24  C   UNL     1      -6.080  13.686  22.537  0.00  0.00    +0.000 C 
ATOM     25  C   UNL     1      -6.943  14.685  21.807  0.00  0.00    +0.000 C 
ATOM     26  C   UNL     1      -7.506  13.342  22.176  0.00  0.00    +0.000 C 
ENDBRANCH  23  24
ENDBRANCH  14  23
TORSDOF 3
ENDMDL
MODEL 6
REMARK VINA RESULT:      -6.2      4.851     11.062
REMARK  Name = 
REMARK  5 active torsions:
REMARK  status: ('A' for Active; 'I' for Inactive)
REMARK    1  A    between atoms: C_1  and  N_2
REMARK    2  A    between atoms: C_6  and  C_8
REMARK    3  A    between atoms: N_11  and  C_12
REMARK    4  A    between atoms: N_20  and  C_21
REMARK    5  A    between atoms: C_21  and  C_22
REMARK                            x       y       z     vdW  Elec       q    Type
REMARK                         _______ _______ _______ _____ _____    ______ ____
ROOT
ATOM      1  C   UNL     1       0.578  15.902  21.284  0.00  0.00    +0.000 C 
ATOM      2  N   UNL     1       0.305  14.505  21.123  0.00  0.00    +0.000 NA
ATOM      3  C   UNL     1       1.463  13.588  21.082  0.00  0.00    +0.000 C 
ATOM      4  C   UNL     1       1.372  12.528  19.961  0.00  0.00    +0.000 C 
ATOM      5  N   UNL     1       0.008  12.021  19.794  0.00  0.00    +0.000 N 
ATOM      6  C   UNL     1      -0.417  10.724  19.505  0.00  0.00    +0.000 C 
ATOM      7  O   UNL     1      -1.618  10.449  19.397  0.00  0.00    +0.000 OA
ATOM      8  C   UNL     1      -1.008  13.042  19.819  0.00  0.00    +0.000 C 
ATOM      9  C   UNL     1      -1.053  13.886  21.156  0.00  0.00    +0.000 C 
ATOM     10  C   UNL     1      -1.105  12.988  22.450  0.00  0.00    +0.000 C 
ATOM     11  C   UNL     1      -1.954  13.410  23.644  0.00  0.00    +0.000 C 
ATOM     12  C   UNL     1      -3.380  13.011  23.388  0.00  0.00    +0.000 C 
ATOM     13  O   UNL     1      -3.875  12.025  23.932  0.00  0.00    +0.000 OA
ATOM     14  N   UNL     1      -4.021  13.782  22.440  0.00  0.00    +0.000 N 
ATOM     15  C   UNL     1      -3.424  15.010  21.920  0.00  0.00    +0.000 C 
ATOM     16  C   UNL     1      -2.341  14.765  20.869  0.00  0.00    +0.000 C 
ENDROOT
BRANCH   6  17
ATOM     17  C   UNL     1       0.570   9.647  19.405  0.00  0.00    +0.000 A 
ATOM     18  C   UNL     1       0.982   8.824  20.480  0.00  0.00    +0.000 A 
ATOM     19  C   UNL     1       1.977   8.030  19.954  0.00  0.00    +0.000 A 
ATOM     20  N   UNL     1       2.068   8.370  18.651  0.00  0.00    +0.000 N 
ATOM     21  C   UNL     1       3.050   7.922  17.689  0.00  0.00    +0.000 C 
ATOM     22  N   UNL     1       1.185   9.298  18.267  0.00  0.00    +0.000 NA
ENDBRANCH   6  17
BRANCH  14  23
ATOM     23  C   UNL     1      -5.306  13.312  21.928  0.00  0.00    +0.000 C 
BRANCH  23  24
ATOM     24  C   UNL     1      -5.141  12.509  20.672  0.00  0.00    +0.000 C 
ATOM     25  C   UNL     1      -6.306  11.828  20.000  0.00  0.00    +0.000 C 
ATOM     26  C   UNL     1      -5.674  13.031  19.359  0.00  0.00    +0.000 C 
ENDBRANCH  23  24
ENDBRANCH  14  23
TORSDOF 3
ENDMDL
MODEL 7
REMARK VINA RESULT:      -6.2      6.628     10.080
REMARK  Name = 
REMARK  5 active torsions:
REMARK  status: ('A' for Active; 'I' for Inactive)
REMARK    1  A    between atoms: C_1  and  N_2
REMARK    2  A    between atoms: C_6  and  C_8
REMARK    3  A    between atoms: N_11  and  C_12
REMARK    4  A    between atoms: N_20  and  C_21
REMARK    5  A    between atoms: C_21  and  C_22
REMARK                            x       y       z     vdW  Elec       q    Type
REMARK                         _______ _______ _______ _____ _____    ______ ____
ROOT
ATOM      1  C   UNL     1       1.927  16.002  18.780  0.00  0.00    +0.000 C 
ATOM      2  N   UNL     1       0.952  15.471  19.685  0.00  0.00    +0.000 NA
ATOM      3  C   UNL     1      -0.023  16.419  20.264  0.00  0.00    +0.000 C 
ATOM      4  C   UNL     1      -0.240  16.231  21.782  0.00  0.00    +0.000 C 
ATOM      5  N   UNL     1      -0.253  14.817  22.164  0.00  0.00    +0.000 N 
ATOM      6  C   UNL     1      -1.044  14.172  23.115  0.00  0.00    +0.000 C 
ATOM      7  O   UNL     1      -0.938  12.957  23.323  0.00  0.00    +0.000 OA
ATOM      8  C   UNL     1       0.783  14.030  21.546  0.00  0.00    +0.000 C 
ATOM      9  C   UNL     1       0.738  14.020  19.964  0.00  0.00    +0.000 C 
ATOM     10  C   UNL     1      -0.684  13.658  19.390  0.00  0.00    +0.000 C 
ATOM     11  C   UNL     1      -0.810  12.794  18.140  0.00  0.00    +0.000 C 
ATOM     12  C   UNL     1      -0.673  11.351  18.534  0.00  0.00    +0.000 C 
ATOM     13  O   UNL     1      -1.655  10.615  18.617  0.00  0.00    +0.000 OA
ATOM     14  N   UNL     1       0.611  10.977  18.872  0.00  0.00    +0.000 N 
ATOM     15  C   UNL     1       1.754  11.858  18.635  0.00  0.00    +0.000 C 
ATOM     16  C   UNL     1       1.892  12.971  19.675  0.00  0.00    +0.000 C 
ENDROOT
BRANCH   6  17
ATOM     17  C   UNL     1      -2.077  14.927  23.827  0.00  0.00    +0.000 A 
ATOM     18  C   UNL     1      -1.929  15.476  25.124  0.00  0.00    +0.000 A 
ATOM     19  C   UNL     1      -3.165  16.006  25.423  0.00  0.00    +0.000 A 
ATOM     20  N   UNL     1      -3.928  15.798  24.330  0.00  0.00    +0.000 N 
ATOM     21  C   UNL     1      -5.345  16.050  24.183  0.00  0.00    +0.000 C 
ATOM     22  N   UNL     1      -3.284  15.208  23.319  0.00  0.00    +0.000 NA
ENDBRANCH   6  17
BRANCH  14  23
ATOM     23  C   UNL     1       0.801   9.683  19.521  0.00  0.00    +0.000 C 
BRANCH  23  24
ATOM     24  C   UNL     1       0.549   9.763  20.998  0.00  0.00    +0.000 C 
ATOM     25  C   UNL     1      -0.227   8.701  21.735  0.00  0.00    +0.000 C 
ATOM     26  C   UNL     1       1.256   8.821  21.944  0.00  0.00    +0.000 C 
ENDBRANCH  23  24
ENDBRANCH  14  23
TORSDOF 3
ENDMDL
MODEL 8
REMARK VINA RESULT:      -6.2      2.657      5.054
REMARK  Name = 
REMARK  5 active torsions:
REMARK  status: ('A' for Active; 'I' for Inactive)
REMARK    1  A    between atoms: C_1  and  N_2
REMARK    2  A    between atoms: C_6  and  C_8
REMARK    3  A    between atoms: N_11  and  C_12
REMARK    4  A    between atoms: N_20  and  C_21
REMARK    5  A    between atoms: C_21  and  C_22
REMARK                            x       y       z     vdW  Elec       q    Type
REMARK                         _______ _______ _______ _____ _____    ______ ____
ROOT
ATOM      1  C   UNL     1       5.636   5.767  16.343  0.00  0.00    +0.000 C 
ATOM      2  N   UNL     1       4.473   6.102  17.109  0.00  0.00    +0.000 NA
ATOM      3  C   UNL     1       3.782   7.365  16.778  0.00  0.00    +0.000 C 
ATOM      4  C   UNL     1       3.390   8.199  18.018  0.00  0.00    +0.000 C 
ATOM      5  N   UNL     1       2.921   7.356  19.121  0.00  0.00    +0.000 N 
ATOM      6  C   UNL     1       1.895   7.596  20.035  0.00  0.00    +0.000 C 
ATOM      7  O   UNL     1       1.614   6.776  20.917  0.00  0.00    +0.000 OA
ATOM      8  C   UNL     1       3.722   6.179  19.344  0.00  0.00    +0.000 C 
ATOM      9  C   UNL     1       3.811   5.204  18.101  0.00  0.00    +0.000 C 
ATOM     10  C   UNL     1       2.399   4.838  17.503  0.00  0.00    +0.000 C 
ATOM     11  C   UNL     1       2.127   3.430  16.986  0.00  0.00    +0.000 C 
ATOM     12  C   UNL     1       1.791   2.544  18.152  0.00  0.00    +0.000 C 
ATOM     13  O   UNL     1       0.630   2.215  18.391  0.00  0.00    +0.000 OA
ATOM     14  N   UNL     1       2.870   2.227  18.951  0.00  0.00    +0.000 N 
ATOM     15  C   UNL     1       4.240   2.542  18.549  0.00  0.00    +0.000 C 
ATOM     16  C   UNL     1       4.616   4.009  18.762  0.00  0.00    +0.000 C 
ENDROOT
BRANCH   6  17
ATOM     17  C   UNL     1       1.080   8.806  19.903  0.00  0.00    +0.000 A 
ATOM     18  C   UNL     1       0.792   9.707  20.956  0.00  0.00    +0.000 A 
ATOM     19  C   UNL     1      -0.072  10.627  20.404  0.00  0.00    +0.000 A 
ATOM     20  N   UNL     1      -0.208  10.272  19.110  0.00  0.00    +0.000 N 
ATOM     21  C   UNL     1      -1.110  10.838  18.130  0.00  0.00    +0.000 C 
ATOM     22  N   UNL     1       0.527   9.214  18.753  0.00  0.00    +0.000 NA
ENDBRANCH   6  17
BRANCH  14  23
ATOM     23  C   UNL     1       2.606   1.603  20.245  0.00  0.00    +0.000 C 
BRANCH  23  24
ATOM     24  C   UNL     1       2.539   2.619  21.346  0.00  0.00    +0.000 C 
ATOM     25  C   UNL     1       1.654   3.837  21.256  0.00  0.00    +0.000 C 
ATOM     26  C   UNL     1       1.304   2.728  22.207  0.00  0.00    +0.000 C 
ENDBRANCH  23  24
ENDBRANCH  14  23
TORSDOF 3
ENDMDL
MODEL 9
REMARK VINA RESULT:      -6.1      6.280     12.057
REMARK  Name = 
REMARK  5 active torsions:
REMARK  status: ('A' for Active; 'I' for Inactive)
REMARK    1  A    between atoms: C_1  and  N_2
REMARK    2  A    between atoms: C_6  and  C_8
REMARK    3  A    between atoms: N_11  and  C_12
REMARK    4  A    between atoms: N_20  and  C_21
REMARK    5  A    between atoms: C_21  and  C_22
REMARK                            x       y       z     vdW  Elec       q    Type
REMARK                         _______ _______ _______ _____ _____    ______ ____
ROOT
ATOM      1  C   UNL     1      -2.271  16.060  23.223  0.00  0.00    +0.000 C 
ATOM      2  N   UNL     1      -2.233  14.804  22.537  0.00  0.00    +0.000 NA
ATOM      3  C   UNL     1      -1.061  13.936  22.773  0.00  0.00    +0.000 C 
ATOM      4  C   UNL     1      -0.479  13.318  21.483  0.00  0.00    +0.000 C 
ATOM      5  N   UNL     1      -1.529  12.918  20.543  0.00  0.00    +0.000 N 
ATOM      6  C   UNL     1      -1.581  11.802  19.708  0.00  0.00    +0.000 C 
ATOM      7  O   UNL     1      -2.549  11.598  18.966  0.00  0.00    +0.000 OA
ATOM      8  C   UNL     1      -2.584  13.887  20.391  0.00  0.00    +0.000 C 
ATOM      9  C   UNL     1      -3.352  14.231  21.731  0.00  0.00    +0.000 C 
ATOM     10  C   UNL     1      -3.850  12.950  22.502  0.00  0.00    +0.000 C 
ATOM     11  C   UNL     1      -5.199  12.958  23.213  0.00  0.00    +0.000 C 
ATOM     12  C   UNL     1      -6.279  12.691  22.204  0.00  0.00    +0.000 C 
ATOM     13  O   UNL     1      -6.816  11.588  22.119  0.00  0.00    +0.000 OA
ATOM     14  N   UNL     1      -6.529  13.746  21.351  0.00  0.00    +0.000 N 
ATOM     15  C   UNL     1      -5.949  15.069  21.577  0.00  0.00    +0.000 C 
ATOM     16  C   UNL     1      -4.485  15.176  21.149  0.00  0.00    +0.000 C 
ENDROOT
BRANCH   6  17
ATOM     17  C   UNL     1      -0.509  10.806  19.767  0.00  0.00    +0.000 A 
ATOM     18  C   UNL     1       0.423  10.558  18.731  0.00  0.00    +0.000 A 
ATOM     19  C   UNL     1       1.171   9.491  19.179  0.00  0.00    +0.000 A 
ATOM     20  N   UNL     1       0.702   9.206  20.412  0.00  0.00    +0.000 N 
ATOM     21  C   UNL     1       1.061   8.087  21.256  0.00  0.00    +0.000 C 
ATOM     22  N   UNL     1      -0.270  10.024  20.829  0.00  0.00    +0.000 NA
ENDBRANCH   6  17
BRANCH  14  23
ATOM     23  C   UNL     1      -7.359  13.496  20.175  0.00  0.00    +0.000 C 
BRANCH  23  24
ATOM     24  C   UNL     1      -6.546  12.982  19.023  0.00  0.00    +0.000 C 
ATOM     25  C   UNL     1      -6.750  11.601  18.456  0.00  0.00    +0.000 C 
ATOM     26  C   UNL     1      -7.180  12.803  17.664  0.00  0.00    +0.000 C 
ENDBRANCH  23  24
ENDBRANCH  14  23
TORSDOF 3
ENDMDL
