MODEL 1
REMARK VINA RESULT:      -7.3      0.000      0.000
REMARK  Name = 
REMARK  6 active torsions:
REMARK  status: ('A' for Active; 'I' for Inactive)
REMARK    1  A    between atoms: C_2  and  C_3
REMARK    2  A    between atoms: C_3  and  N_4
REMARK    3  A    between atoms: N_15  and  C_16
REMARK    4  A    between atoms: N_15  and  C_23
REMARK    5  A    between atoms: C_16  and  C_17
REMARK    6  A    between atoms: C_23  and  C_24
REMARK                            x       y       z     vdW  Elec       q    Type
REMARK                         _______ _______ _______ _____ _____    ______ ____
ROOT
ATOM      1  O   UNL     1       4.098   8.502  18.142  0.00  0.00    +0.000 OA
ATOM      2  C   UNL     1       3.053   7.846  18.113  0.00  0.00    +0.000 C 
ATOM      3  N   UNL     1       3.089   6.459  18.241  0.00  0.00    +0.000 N 
ENDROOT
BRANCH   2   4
ATOM      4  C   UNL     1       1.701   8.556  17.900  0.00  0.00    +0.000 C 
BRANCH   4   5
ATOM      5  N   UNL     1       1.497   9.658  18.833  0.00  0.00    +0.000 N 
ATOM      6  C   UNL     1       1.848  10.927  18.406  0.00  0.00    +0.000 C 
ATOM      7  O   UNL     1       2.238  11.168  17.261  0.00  0.00    +0.000 OA
ATOM      8  C   UNL     1       1.681  12.045  19.428  0.00  0.00    +0.000 C 
ATOM      9  O   UNL     1       1.445  11.757  20.789  0.00  0.00    +0.000 OA
ATOM     10  C   UNL     1       0.846  10.549  21.006  0.00  0.00    +0.000 A 
ATOM     11  C   UNL     1       0.217  10.417  22.248  0.00  0.00    +0.000 A 
ATOM     12  C   UNL     1      -0.412   9.225  22.593  0.00  0.00    +0.000 A 
ATOM     13  C   UNL     1      -0.376   8.151  21.712  0.00  0.00    +0.000 A 
ATOM     14  C   UNL     1       0.283   8.271  20.485  0.00  0.00    +0.000 A 
ATOM     15  C   UNL     1       0.882   9.480  20.101  0.00  0.00    +0.000 A 
ENDBRANCH   4   5
ENDBRANCH   2   4
BRANCH   3  16
ATOM     16  C   UNL     1       4.398   5.823  18.397  0.00  0.00    +0.000 C 
BRANCH  16  17
ATOM     17  C   UNL     1       5.125   5.472  17.125  0.00  0.00    +0.000 A 
ATOM     18  C   UNL     1       4.711   4.504  16.204  0.00  0.00    +0.000 A 
ATOM     19  C   UNL     1       5.513   4.209  15.102  0.00  0.00    +0.000 A 
ATOM     20  C   UNL     1       6.698   4.907  14.940  0.00  0.00    +0.000 A 
ATOM     21  N   UNL     1       7.116   5.874  15.781  0.00  0.00    +0.000 NA
ATOM     22  C   UNL     1       6.327   6.125  16.849  0.00  0.00    +0.000 A 
ENDBRANCH  16  17
ENDBRANCH   3  16
BRANCH   3  23
ATOM     23  C   UNL     1       1.928   5.583  18.055  0.00  0.00    +0.000 C 
BRANCH  23  24
ATOM     24  C   UNL     1       1.840   4.502  19.111  0.00  0.00    +0.000 A 
ATOM     25  C   UNL     1       1.730   4.792  20.480  0.00  0.00    +0.000 A 
ATOM     26  C   UNL     1       1.735   3.766  21.428  0.00  0.00    +0.000 A 
ATOM     27  C   UNL     1       1.824   2.436  21.021  0.00  0.00    +0.000 A 
ATOM     28  C   UNL     1       1.886   2.131  19.664  0.00  0.00    +0.000 A 
ATOM     29  C   UNL     1       1.885   3.159  18.724  0.00  0.00    +0.000 A 
ATOM     30  F   UNL     1       1.964   2.842  17.425  0.00  0.00    +0.000 F 
ENDBRANCH  23  24
ENDBRANCH   3  23
TORSDOF 6
ENDMDL
MODEL 2
REMARK VINA RESULT:      -7.1      0.979      1.315
REMARK  Name = 
REMARK  6 active torsions:
REMARK  status: ('A' for Active; 'I' for Inactive)
REMARK    1  A    between atoms: C_2  and  C_3
REMARK    2  A    between atoms: C_3  and  N_4
REMARK    3  A    between atoms: N_15  and  C_16
REMARK    4  A    between atoms: N_15  and  C_23
REMARK    5  A    between atoms: C_16  and  C_17
REMARK    6  A    between atoms: C_23  and  C_24
REMARK                            x       y       z     vdW  Elec       q    Type
REMARK                         _______ _______ _______ _____ _____    ______ ____
ROOT
ATOM      1  O   UNL     1       3.909   8.629  18.115  0.00  0.00    +0.000 OA
ATOM      2  C   UNL     1       2.864   7.972  18.133  0.00  0.00    +0.000 C 
ATOM      3  N   UNL     1       2.908   6.583  18.246  0.00  0.00    +0.000 N 
ENDROOT
BRANCH   2   4
ATOM      4  C   UNL     1       1.503   8.682  17.997  0.00  0.00    +0.000 C 
BRANCH   4   5
ATOM      5  N   UNL     1       1.358   9.793  18.931  0.00  0.00    +0.000 N 
ATOM      6  C   UNL     1       1.757  11.046  18.497  0.00  0.00    +0.000 C 
ATOM      7  O   UNL     1       2.142  11.269  17.346  0.00  0.00    +0.000 OA
ATOM      8  C   UNL     1       1.652  12.171  19.518  0.00  0.00    +0.000 C 
ATOM      9  O   UNL     1       1.421  11.895  20.883  0.00  0.00    +0.000 OA
ATOM     10  C   UNL     1       0.774  10.714  21.110  0.00  0.00    +0.000 A 
ATOM     11  C   UNL     1       0.157  10.611  22.361  0.00  0.00    +0.000 A 
ATOM     12  C   UNL     1      -0.519   9.448  22.717  0.00  0.00    +0.000 A 
ATOM     13  C   UNL     1      -0.540   8.372  21.837  0.00  0.00    +0.000 A 
ATOM     14  C   UNL     1       0.108   8.462  20.601  0.00  0.00    +0.000 A 
ATOM     15  C   UNL     1       0.753   9.644  20.207  0.00  0.00    +0.000 A 
ENDBRANCH   4   5
ENDBRANCH   2   4
BRANCH   3  16
ATOM     16  C   UNL     1       4.224   5.948  18.328  0.00  0.00    +0.000 C 
BRANCH  16  17
ATOM     17  C   UNL     1       4.788   5.413  17.037  0.00  0.00    +0.000 A 
ATOM     18  C   UNL     1       4.900   4.058  16.710  0.00  0.00    +0.000 A 
ATOM     19  C   UNL     1       5.516   3.683  15.517  0.00  0.00    +0.000 A 
ATOM     20  C   UNL     1       5.985   4.677  14.672  0.00  0.00    +0.000 A 
ATOM     21  N   UNL     1       5.863   5.994  14.931  0.00  0.00    +0.000 NA
ATOM     22  C   UNL     1       5.278   6.326  16.102  0.00  0.00    +0.000 A 
ENDBRANCH  16  17
ENDBRANCH   3  16
BRANCH   3  23
ATOM     23  C   UNL     1       1.740   5.708  18.113  0.00  0.00    +0.000 C 
BRANCH  23  24
ATOM     24  C   UNL     1       1.793   4.519  19.047  0.00  0.00    +0.000 A 
ATOM     25  C   UNL     1       1.844   3.195  18.581  0.00  0.00    +0.000 A 
ATOM     26  C   UNL     1       1.808   2.123  19.476  0.00  0.00    +0.000 A 
ATOM     27  C   UNL     1       1.749   2.357  20.848  0.00  0.00    +0.000 A 
ATOM     28  C   UNL     1       1.746   3.665  21.327  0.00  0.00    +0.000 A 
ATOM     29  C   UNL     1       1.776   4.729  20.428  0.00  0.00    +0.000 A 
ATOM     30  F   UNL     1       1.754   5.979  20.912  0.00  0.00    +0.000 F 
ENDBRANCH  23  24
ENDBRANCH   3  23
TORSDOF 6
ENDMDL
MODEL 3
REMARK VINA RESULT:      -7.1      2.092      3.721
REMARK  Name = 
REMARK  6 active torsions:
REMARK  status: ('A' for Active; 'I' for Inactive)
REMARK    1  A    between atoms: C_2  and  C_3
REMARK    2  A    between atoms: C_3  and  N_4
REMARK    3  A    between atoms: N_15  and  C_16
REMARK    4  A    between atoms: N_15  and  C_23
REMARK    5  A    between atoms: C_16  and  C_17
REMARK    6  A    between atoms: C_23  and  C_24
REMARK                            x       y       z     vdW  Elec       q    Type
REMARK                         _______ _______ _______ _____ _____    ______ ____
ROOT
ATOM      1  O   UNL     1       1.253   6.013  20.509  0.00  0.00    +0.000 OA
ATOM      2  C   UNL     1       1.972   6.518  19.642  0.00  0.00    +0.000 C 
ATOM      3  N   UNL     1       2.314   5.794  18.502  0.00  0.00    +0.000 N 
ENDROOT
BRANCH   2   4
ATOM      4  C   UNL     1       2.524   7.945  19.832  0.00  0.00    +0.000 C 
BRANCH   4   5
ATOM      5  N   UNL     1       1.486   8.964  19.721  0.00  0.00    +0.000 N 
ATOM      6  C   UNL     1       1.142   9.385  18.448  0.00  0.00    +0.000 C 
ATOM      7  O   UNL     1       1.608   8.882  17.423  0.00  0.00    +0.000 OA
ATOM      8  C   UNL     1       0.102  10.495  18.370  0.00  0.00    +0.000 C 
ATOM      9  O   UNL     1      -0.275  11.219  19.522  0.00  0.00    +0.000 OA
ATOM     10  C   UNL     1      -0.103  10.536  20.691  0.00  0.00    +0.000 A 
ATOM     11  C   UNL     1      -0.842  11.022  21.774  0.00  0.00    +0.000 A 
ATOM     12  C   UNL     1      -0.737  10.420  23.023  0.00  0.00    +0.000 A 
ATOM     13  C   UNL     1       0.140   9.356  23.200  0.00  0.00    +0.000 A 
ATOM     14  C   UNL     1       0.906   8.892  22.125  0.00  0.00    +0.000 A 
ATOM     15  C   UNL     1       0.777   9.457  20.848  0.00  0.00    +0.000 A 
ENDBRANCH   4   5
ENDBRANCH   2   4
BRANCH   3  16
ATOM     16  C   UNL     1       1.804   4.427  18.384  0.00  0.00    +0.000 C 
BRANCH  16  17
ATOM     17  C   UNL     1       2.725   3.329  18.847  0.00  0.00    +0.000 A 
ATOM     18  C   UNL     1       3.381   3.297  20.081  0.00  0.00    +0.000 A 
ATOM     19  C   UNL     1       4.276   2.266  20.363  0.00  0.00    +0.000 A 
ATOM     20  C   UNL     1       4.474   1.280  19.409  0.00  0.00    +0.000 A 
ATOM     21  N   UNL     1       3.834   1.252  18.223  0.00  0.00    +0.000 NA
ATOM     22  C   UNL     1       2.987   2.274  17.971  0.00  0.00    +0.000 A 
ENDBRANCH  16  17
ENDBRANCH   3  16
BRANCH   3  23
ATOM     23  C   UNL     1       3.288   6.242  17.501  0.00  0.00    +0.000 C 
BRANCH  23  24
ATOM     24  C   UNL     1       4.671   5.676  17.741  0.00  0.00    +0.000 A 
ATOM     25  C   UNL     1       5.390   5.916  18.923  0.00  0.00    +0.000 A 
ATOM     26  C   UNL     1       6.697   5.445  19.070  0.00  0.00    +0.000 A 
ATOM     27  C   UNL     1       7.294   4.706  18.051  0.00  0.00    +0.000 A 
ATOM     28  C   UNL     1       6.576   4.419  16.893  0.00  0.00    +0.000 A 
ATOM     29  C   UNL     1       5.275   4.897  16.751  0.00  0.00    +0.000 A 
ATOM     30  F   UNL     1       4.612   4.624  15.619  0.00  0.00    +0.000 F 
ENDBRANCH  23  24
ENDBRANCH   3  23
TORSDOF 6
ENDMDL
MODEL 4
REMARK VINA RESULT:      -7.1      2.565      4.568
REMARK  Name = 
REMARK  6 active torsions:
REMARK  status: ('A' for Active; 'I' for Inactive)
REMARK    1  A    between atoms: C_2  and  C_3
REMARK    2  A    between atoms: C_3  and  N_4
REMARK    3  A    between atoms: N_15  and  C_16
REMARK    4  A    between atoms: N_15  and  C_23
REMARK    5  A    between atoms: C_16  and  C_17
REMARK    6  A    between atoms: C_23  and  C_24
REMARK                            x       y       z     vdW  Elec       q    Type
REMARK                         _______ _______ _______ _____ _____    ______ ____
ROOT
ATOM      1  O   UNL     1       1.559   8.409  19.744  0.00  0.00    +0.000 OA
ATOM      2  C   UNL     1       2.019   8.399  18.598  0.00  0.00    +0.000 C 
ATOM      3  N   UNL     1       2.961   7.441  18.226  0.00  0.00    +0.000 N 
ENDROOT
BRANCH   2   4
ATOM      4  C   UNL     1       1.578   9.469  17.581  0.00  0.00    +0.000 C 
BRANCH   4   5
ATOM      5  N   UNL     1       0.787  10.530  18.194  0.00  0.00    +0.000 N 
ATOM      6  C   UNL     1       1.475  11.589  18.762  0.00  0.00    +0.000 C 
ATOM      7  O   UNL     1       2.701  11.710  18.694  0.00  0.00    +0.000 OA
ATOM      8  C   UNL     1       0.622  12.647  19.450  0.00  0.00    +0.000 C 
ATOM      9  O   UNL     1      -0.744  12.417  19.720  0.00  0.00    +0.000 OA
ATOM     10  C   UNL     1      -1.333  11.516  18.880  0.00  0.00    +0.000 A 
ATOM     11  C   UNL     1      -2.729  11.583  18.828  0.00  0.00    +0.000 A 
ATOM     12  C   UNL     1      -3.445  10.703  18.022  0.00  0.00    +0.000 A 
ATOM     13  C   UNL     1      -2.766   9.729  17.299  0.00  0.00    +0.000 A 
ATOM     14  C   UNL     1      -1.372   9.640  17.378  0.00  0.00    +0.000 A 
ATOM     15  C   UNL     1      -0.632  10.548  18.149  0.00  0.00    +0.000 A 
ENDBRANCH   4   5
ENDBRANCH   2   4
BRANCH   3  16
ATOM     16  C   UNL     1       3.383   6.472  19.238  0.00  0.00    +0.000 C 
BRANCH  16  17
ATOM     17  C   UNL     1       2.511   5.255  19.400  0.00  0.00    +0.000 A 
ATOM     18  C   UNL     1       1.950   4.522  18.350  0.00  0.00    +0.000 A 
ATOM     19  C   UNL     1       1.090   3.460  18.628  0.00  0.00    +0.000 A 
ATOM     20  C   UNL     1       0.831   3.147  19.953  0.00  0.00    +0.000 A 
ATOM     21  N   UNL     1       1.380   3.802  20.995  0.00  0.00    +0.000 NA
ATOM     22  C   UNL     1       2.195   4.837  20.694  0.00  0.00    +0.000 A 
ENDBRANCH  16  17
ENDBRANCH   3  16
BRANCH   3  23
ATOM     23  C   UNL     1       3.683   7.447  16.950  0.00  0.00    +0.000 C 
BRANCH  23  24
ATOM     24  C   UNL     1       4.846   6.479  16.934  0.00  0.00    +0.000 A 
ATOM     25  C   UNL     1       4.701   5.132  16.565  0.00  0.00    +0.000 A 
ATOM     26  C   UNL     1       5.783   4.252  16.645  0.00  0.00    +0.000 A 
ATOM     27  C   UNL     1       7.029   4.709  17.068  0.00  0.00    +0.000 A 
ATOM     28  C   UNL     1       7.199   6.054  17.392  0.00  0.00    +0.000 A 
ATOM     29  C   UNL     1       6.115   6.924  17.315  0.00  0.00    +0.000 A 
ATOM     30  F   UNL     1       6.299   8.209  17.649  0.00  0.00    +0.000 F 
ENDBRANCH  23  24
ENDBRANCH   3  23
TORSDOF 6
ENDMDL
MODEL 5
REMARK VINA RESULT:      -7.0      2.371      4.358
REMARK  Name = 
REMARK  6 active torsions:
REMARK  status: ('A' for Active; 'I' for Inactive)
REMARK    1  A    between atoms: C_2  and  C_3
REMARK    2  A    between atoms: C_3  and  N_4
REMARK    3  A    between atoms: N_15  and  C_16
REMARK    4  A    between atoms: N_15  and  C_23
REMARK    5  A    between atoms: C_16  and  C_17
REMARK    6  A    between atoms: C_23  and  C_24
REMARK                            x       y       z     vdW  Elec       q    Type
REMARK                         _______ _______ _______ _____ _____    ______ ____
ROOT
ATOM      1  O   UNL     1       1.628   8.794  20.133  0.00  0.00    +0.000 OA
ATOM      2  C   UNL     1       1.786   8.395  18.976  0.00  0.00    +0.000 C 
ATOM      3  N   UNL     1       2.419   7.177  18.732  0.00  0.00    +0.000 N 
ENDROOT
BRANCH   2   4
ATOM      4  C   UNL     1       1.314   9.258  17.790  0.00  0.00    +0.000 C 
BRANCH   4   5
ATOM      5  N   UNL     1       0.610  10.460  18.221  0.00  0.00    +0.000 N 
ATOM      6  C   UNL     1       1.378  11.557  18.575  0.00  0.00    +0.000 C 
ATOM      7  O   UNL     1       2.606  11.583  18.460  0.00  0.00    +0.000 OA
ATOM      8  C   UNL     1       0.613  12.773  19.081  0.00  0.00    +0.000 C 
ATOM      9  O   UNL     1      -0.754  12.683  19.417  0.00  0.00    +0.000 OA
ATOM     10  C   UNL     1      -1.424  11.688  18.764  0.00  0.00    +0.000 A 
ATOM     11  C   UNL     1      -2.815  11.835  18.732  0.00  0.00    +0.000 A 
ATOM     12  C   UNL     1      -3.608  10.875  18.112  0.00  0.00    +0.000 A 
ATOM     13  C   UNL     1      -3.013   9.747  17.560  0.00  0.00    +0.000 A 
ATOM     14  C   UNL     1      -1.625   9.582  17.624  0.00  0.00    +0.000 A 
ATOM     15  C   UNL     1      -0.807  10.562  18.204  0.00  0.00    +0.000 A 
ENDBRANCH   4   5
ENDBRANCH   2   4
BRANCH   3  16
ATOM     16  C   UNL     1       2.890   6.411  19.887  0.00  0.00    +0.000 C 
BRANCH  16  17
ATOM     17  C   UNL     1       2.402   4.989  19.989  0.00  0.00    +0.000 A 
ATOM     18  C   UNL     1       1.059   4.603  20.051  0.00  0.00    +0.000 A 
ATOM     19  C   UNL     1       0.733   3.259  20.228  0.00  0.00    +0.000 A 
ATOM     20  C   UNL     1       1.761   2.334  20.315  0.00  0.00    +0.000 A 
ATOM     21  N   UNL     1       3.066   2.658  20.221  0.00  0.00    +0.000 NA
ATOM     22  C   UNL     1       3.351   3.969  20.068  0.00  0.00    +0.000 A 
ENDBRANCH  16  17
ENDBRANCH   3  16
BRANCH   3  23
ATOM     23  C   UNL     1       2.798   6.697  17.400  0.00  0.00    +0.000 C 
BRANCH  23  24
ATOM     24  C   UNL     1       4.265   6.338  17.306  0.00  0.00    +0.000 A 
ATOM     25  C   UNL     1       5.286   7.278  17.521  0.00  0.00    +0.000 A 
ATOM     26  C   UNL     1       6.626   6.926  17.342  0.00  0.00    +0.000 A 
ATOM     27  C   UNL     1       6.967   5.627  16.973  0.00  0.00    +0.000 A 
ATOM     28  C   UNL     1       5.967   4.672  16.803  0.00  0.00    +0.000 A 
ATOM     29  C   UNL     1       4.633   5.031  16.978  0.00  0.00    +0.000 A 
ATOM     30  F   UNL     1       3.688   4.099  16.791  0.00  0.00    +0.000 F 
ENDBRANCH  23  24
ENDBRANCH   3  23
TORSDOF 6
ENDMDL
MODEL 6
REMARK VINA RESULT:      -7.0      1.682      2.669
REMARK  Name = 
REMARK  6 active torsions:
REMARK  status: ('A' for Active; 'I' for Inactive)
REMARK    1  A    between atoms: C_2  and  C_3
REMARK    2  A    between atoms: C_3  and  N_4
REMARK    3  A    between atoms: N_15  and  C_16
REMARK    4  A    between atoms: N_15  and  C_23
REMARK    5  A    between atoms: C_16  and  C_17
REMARK    6  A    between atoms: C_23  and  C_24
REMARK                            x       y       z     vdW  Elec       q    Type
REMARK                         _______ _______ _______ _____ _____    ______ ____
ROOT
ATOM      1  O   UNL     1       4.363   7.464  18.129  0.00  0.00    +0.000 OA
ATOM      2  C   UNL     1       3.531   6.552  18.097  0.00  0.00    +0.000 C 
ATOM      3  N   UNL     1       3.942   5.232  17.924  0.00  0.00    +0.000 N 
ENDROOT
BRANCH   2   4
ATOM      4  C   UNL     1       2.028   6.874  18.211  0.00  0.00    +0.000 C 
BRANCH   4   5
ATOM      5  N   UNL     1       1.741   7.820  19.284  0.00  0.00    +0.000 N 
ATOM      6  C   UNL     1       1.648   7.315  20.570  0.00  0.00    +0.000 C 
ATOM      7  O   UNL     1       1.879   6.135  20.848  0.00  0.00    +0.000 OA
ATOM      8  C   UNL     1       1.284   8.318  21.657  0.00  0.00    +0.000 C 
ATOM      9  O   UNL     1       0.812   9.607  21.328  0.00  0.00    +0.000 OA
ATOM     10  C   UNL     1       1.224  10.055  20.105  0.00  0.00    +0.000 A 
ATOM     11  C   UNL     1       1.151  11.441  19.930  0.00  0.00    +0.000 A 
ATOM     12  C   UNL     1       1.526  12.016  18.720  0.00  0.00    +0.000 A 
ATOM     13  C   UNL     1       1.934  11.200  17.670  0.00  0.00    +0.000 A 
ATOM     14  C   UNL     1       1.973   9.812  17.834  0.00  0.00    +0.000 A 
ATOM     15  C   UNL     1       1.643   9.219  19.062  0.00  0.00    +0.000 A 
ENDBRANCH   4   5
ENDBRANCH   2   4
BRANCH   3  16
ATOM     16  C   UNL     1       5.375   4.978  17.775  0.00  0.00    +0.000 C 
BRANCH  16  17
ATOM     17  C   UNL     1       5.894   4.892  16.363  0.00  0.00    +0.000 A 
ATOM     18  C   UNL     1       5.299   4.158  15.332  0.00  0.00    +0.000 A 
ATOM     19  C   UNL     1       5.919   4.088  14.085  0.00  0.00    +0.000 A 
ATOM     20  C   UNL     1       7.108   4.774  13.897  0.00  0.00    +0.000 A 
ATOM     21  N   UNL     1       7.696   5.524  14.851  0.00  0.00    +0.000 NA
ATOM     22  C   UNL     1       7.081   5.558  16.054  0.00  0.00    +0.000 A 
ENDBRANCH  16  17
ENDBRANCH   3  16
BRANCH   3  23
ATOM     23  C   UNL     1       3.028   4.106  17.708  0.00  0.00    +0.000 C 
BRANCH  23  24
ATOM     24  C   UNL     1       2.485   3.540  19.002  0.00  0.00    +0.000 A 
ATOM     25  C   UNL     1       1.112   3.515  19.298  0.00  0.00    +0.000 A 
ATOM     26  C   UNL     1       0.659   3.062  20.539  0.00  0.00    +0.000 A 
ATOM     27  C   UNL     1       1.566   2.602  21.491  0.00  0.00    +0.000 A 
ATOM     28  C   UNL     1       2.927   2.576  21.194  0.00  0.00    +0.000 A 
ATOM     29  C   UNL     1       3.372   3.035  19.957  0.00  0.00    +0.000 A 
ATOM     30  F   UNL     1       4.687   3.018  19.702  0.00  0.00    +0.000 F 
ENDBRANCH  23  24
ENDBRANCH   3  23
TORSDOF 6
ENDMDL
MODEL 7
REMARK VINA RESULT:      -6.8      1.583      2.586
REMARK  Name = 
REMARK  6 active torsions:
REMARK  status: ('A' for Active; 'I' for Inactive)
REMARK    1  A    between atoms: C_2  and  C_3
REMARK    2  A    between atoms: C_3  and  N_4
REMARK    3  A    between atoms: N_15  and  C_16
REMARK    4  A    between atoms: N_15  and  C_23
REMARK    5  A    between atoms: C_16  and  C_17
REMARK    6  A    between atoms: C_23  and  C_24
REMARK                            x       y       z     vdW  Elec       q    Type
REMARK                         _______ _______ _______ _____ _____    ______ ____
ROOT
ATOM      1  O   UNL     1       4.390   7.566  18.049  0.00  0.00    +0.000 OA
ATOM      2  C   UNL     1       3.560   6.651  18.043  0.00  0.00    +0.000 C 
ATOM      3  N   UNL     1       3.973   5.327  17.907  0.00  0.00    +0.000 N 
ENDROOT
BRANCH   2   4
ATOM      4  C   UNL     1       2.057   6.973  18.152  0.00  0.00    +0.000 C 
BRANCH   4   5
ATOM      5  N   UNL     1       1.763   7.908  19.233  0.00  0.00    +0.000 N 
ATOM      6  C   UNL     1       1.644   7.387  20.510  0.00  0.00    +0.000 C 
ATOM      7  O   UNL     1       1.857   6.201  20.776  0.00  0.00    +0.000 OA
ATOM      8  C   UNL     1       1.275   8.380  21.604  0.00  0.00    +0.000 C 
ATOM      9  O   UNL     1       0.823   9.679  21.285  0.00  0.00    +0.000 OA
ATOM     10  C   UNL     1       1.260  10.138  20.076  0.00  0.00    +0.000 A 
ATOM     11  C   UNL     1       1.206  11.527  19.917  0.00  0.00    +0.000 A 
ATOM     12  C   UNL     1       1.607  12.113  18.721  0.00  0.00    +0.000 A 
ATOM     13  C   UNL     1       2.022  11.307  17.668  0.00  0.00    +0.000 A 
ATOM     14  C   UNL     1       2.042   9.916  17.814  0.00  0.00    +0.000 A 
ATOM     15  C   UNL     1       1.686   9.311  19.028  0.00  0.00    +0.000 A 
ENDBRANCH   4   5
ENDBRANCH   2   4
BRANCH   3  16
ATOM     16  C   UNL     1       5.407   5.072  17.762  0.00  0.00    +0.000 C 
BRANCH  16  17
ATOM     17  C   UNL     1       5.921   4.938  16.352  0.00  0.00    +0.000 A 
ATOM     18  C   UNL     1       5.320   4.174  15.347  0.00  0.00    +0.000 A 
ATOM     19  C   UNL     1       5.937   4.060  14.102  0.00  0.00    +0.000 A 
ATOM     20  C   UNL     1       7.129   4.734  13.889  0.00  0.00    +0.000 A 
ATOM     21  N   UNL     1       7.722   5.511  14.817  0.00  0.00    +0.000 NA
ATOM     22  C   UNL     1       7.111   5.587  16.019  0.00  0.00    +0.000 A 
ENDBRANCH  16  17
ENDBRANCH   3  16
BRANCH   3  23
ATOM     23  C   UNL     1       3.061   4.194  17.724  0.00  0.00    +0.000 C 
BRANCH  23  24
ATOM     24  C   UNL     1       2.560   3.632  19.036  0.00  0.00    +0.000 A 
ATOM     25  C   UNL     1       3.415   3.362  20.117  0.00  0.00    +0.000 A 
ATOM     26  C   UNL     1       2.925   2.766  21.281  0.00  0.00    +0.000 A 
ATOM     27  C   UNL     1       1.571   2.456  21.394  0.00  0.00    +0.000 A 
ATOM     28  C   UNL     1       0.702   2.762  20.348  0.00  0.00    +0.000 A 
ATOM     29  C   UNL     1       1.199   3.352  19.188  0.00  0.00    +0.000 A 
ATOM     30  F   UNL     1       0.347   3.619  18.189  0.00  0.00    +0.000 F 
ENDBRANCH  23  24
ENDBRANCH   3  23
TORSDOF 6
ENDMDL
MODEL 8
REMARK VINA RESULT:      -6.8      0.984      1.213
REMARK  Name = 
REMARK  6 active torsions:
REMARK  status: ('A' for Active; 'I' for Inactive)
REMARK    1  A    between atoms: C_2  and  C_3
REMARK    2  A    between atoms: C_3  and  N_4
REMARK    3  A    between atoms: N_15  and  C_16
REMARK    4  A    between atoms: N_15  and  C_23
REMARK    5  A    between atoms: C_16  and  C_17
REMARK    6  A    between atoms: C_23  and  C_24
REMARK                            x       y       z     vdW  Elec       q    Type
REMARK                         _______ _______ _______ _____ _____    ______ ____
ROOT
ATOM      1  O   UNL     1       3.884   8.264  17.750  0.00  0.00    +0.000 OA
ATOM      2  C   UNL     1       3.033   7.613  18.362  0.00  0.00    +0.000 C 
ATOM      3  N   UNL     1       3.392   6.454  19.049  0.00  0.00    +0.000 N 
ENDROOT
BRANCH   2   4
ATOM      4  C   UNL     1       1.558   8.059  18.341  0.00  0.00    +0.000 C 
BRANCH   4   5
ATOM      5  N   UNL     1       1.345   9.317  19.048  0.00  0.00    +0.000 N 
ATOM      6  C   UNL     1       1.659  10.486  18.374  0.00  0.00    +0.000 C 
ATOM      7  O   UNL     1       2.023  10.507  17.196  0.00  0.00    +0.000 OA
ATOM      8  C   UNL     1       1.487  11.777  19.163  0.00  0.00    +0.000 C 
ATOM      9  O   UNL     1       1.282  11.754  20.559  0.00  0.00    +0.000 OA
ATOM     10  C   UNL     1       0.714  10.601  21.020  0.00  0.00    +0.000 A 
ATOM     11  C   UNL     1       0.112  10.701  22.278  0.00  0.00    +0.000 A 
ATOM     12  C   UNL     1      -0.484   9.588  22.862  0.00  0.00    +0.000 A 
ATOM     13  C   UNL     1      -0.440   8.364  22.205  0.00  0.00    +0.000 A 
ATOM     14  C   UNL     1       0.194   8.255  20.963  0.00  0.00    +0.000 A 
ATOM     15  C   UNL     1       0.758   9.378  20.339  0.00  0.00    +0.000 A 
ENDBRANCH   4   5
ENDBRANCH   2   4
BRANCH   3  16
ATOM     16  C   UNL     1       4.796   6.044  19.004  0.00  0.00    +0.000 C 
BRANCH  16  17
ATOM     17  C   UNL     1       5.353   5.718  17.643  0.00  0.00    +0.000 A 
ATOM     18  C   UNL     1       4.717   4.925  16.683  0.00  0.00    +0.000 A 
ATOM     19  C   UNL     1       5.370   4.626  15.488  0.00  0.00    +0.000 A 
ATOM     20  C   UNL     1       6.636   5.148  15.277  0.00  0.00    +0.000 A 
ATOM     21  N   UNL     1       7.270   5.947  16.158  0.00  0.00    +0.000 NA
ATOM     22  C   UNL     1       6.619   6.205  17.313  0.00  0.00    +0.000 A 
ENDBRANCH  16  17
ENDBRANCH   3  16
BRANCH   3  23
ATOM     23  C   UNL     1       2.435   5.529  19.663  0.00  0.00    +0.000 C 
BRANCH  23  24
ATOM     24  C   UNL     1       2.681   4.089  19.267  0.00  0.00    +0.000 A 
ATOM     25  C   UNL     1       3.554   3.250  19.977  0.00  0.00    +0.000 A 
ATOM     26  C   UNL     1       3.818   1.953  19.530  0.00  0.00    +0.000 A 
ATOM     27  C   UNL     1       3.193   1.467  18.383  0.00  0.00    +0.000 A 
ATOM     28  C   UNL     1       2.287   2.272  17.695  0.00  0.00    +0.000 A 
ATOM     29  C   UNL     1       2.034   3.565  18.144  0.00  0.00    +0.000 A 
ATOM     30  F   UNL     1       1.173   4.327  17.455  0.00  0.00    +0.000 F 
ENDBRANCH  23  24
ENDBRANCH   3  23
TORSDOF 6
ENDMDL
MODEL 9
REMARK VINA RESULT:      -6.8      0.976      2.367
REMARK  Name = 
REMARK  6 active torsions:
REMARK  status: ('A' for Active; 'I' for Inactive)
REMARK    1  A    between atoms: C_2  and  C_3
REMARK    2  A    between atoms: C_3  and  N_4
REMARK    3  A    between atoms: N_15  and  C_16
REMARK    4  A    between atoms: N_15  and  C_23
REMARK    5  A    between atoms: C_16  and  C_17
REMARK    6  A    between atoms: C_23  and  C_24
REMARK                            x       y       z     vdW  Elec       q    Type
REMARK                         _______ _______ _______ _____ _____    ______ ____
ROOT
ATOM      1  O   UNL     1       4.179   8.327  18.207  0.00  0.00    +0.000 OA
ATOM      2  C   UNL     1       3.132   7.679  18.119  0.00  0.00    +0.000 C 
ATOM      3  N   UNL     1       3.163   6.285  18.136  0.00  0.00    +0.000 N 
ENDROOT
BRANCH   2   4
ATOM      4  C   UNL     1       1.785   8.408  17.955  0.00  0.00    +0.000 C 
BRANCH   4   5
ATOM      5  N   UNL     1       1.504   9.318  19.060  0.00  0.00    +0.000 N 
ATOM      6  C   UNL     1       1.149   8.754  20.274  0.00  0.00    +0.000 C 
ATOM      7  O   UNL     1       1.143   7.537  20.475  0.00  0.00    +0.000 OA
ATOM      8  C   UNL     1       0.801   9.732  21.388  0.00  0.00    +0.000 C 
ATOM      9  O   UNL     1       0.596  11.102  21.115  0.00  0.00    +0.000 OA
ATOM     10  C   UNL     1       1.245  11.551  20.001  0.00  0.00    +0.000 A 
ATOM     11  C   UNL     1       1.424  12.936  19.940  0.00  0.00    +0.000 A 
ATOM     12  C   UNL     1       2.056  13.515  18.844  0.00  0.00    +0.000 A 
ATOM     13  C   UNL     1       2.472  12.711  17.789  0.00  0.00    +0.000 A 
ATOM     14  C   UNL     1       2.261  11.329  17.834  0.00  0.00    +0.000 A 
ATOM     15  C   UNL     1       1.668  10.724  18.952  0.00  0.00    +0.000 A 
ENDBRANCH   4   5
ENDBRANCH   2   4
BRANCH   3  16
ATOM     16  C   UNL     1       4.469   5.635  18.249  0.00  0.00    +0.000 C 
BRANCH  16  17
ATOM     17  C   UNL     1       5.189   5.353  16.955  0.00  0.00    +0.000 A 
ATOM     18  C   UNL     1       4.774   4.431  15.990  0.00  0.00    +0.000 A 
ATOM     19  C   UNL     1       5.569   4.198  14.869  0.00  0.00    +0.000 A 
ATOM     20  C   UNL     1       6.749   4.912  14.733  0.00  0.00    +0.000 A 
ATOM     21  N   UNL     1       7.167   5.837  15.620  0.00  0.00    +0.000 NA
ATOM     22  C   UNL     1       6.384   6.028  16.704  0.00  0.00    +0.000 A 
ENDBRANCH  16  17
ENDBRANCH   3  16
BRANCH   3  23
ATOM     23  C   UNL     1       2.001   5.431  17.874  0.00  0.00    +0.000 C 
BRANCH  23  24
ATOM     24  C   UNL     1       1.847   4.328  18.898  0.00  0.00    +0.000 A 
ATOM     25  C   UNL     1       1.581   4.587  20.252  0.00  0.00    +0.000 A 
ATOM     26  C   UNL     1       1.530   3.544  21.180  0.00  0.00    +0.000 A 
ATOM     27  C   UNL     1       1.715   2.226  20.765  0.00  0.00    +0.000 A 
ATOM     28  C   UNL     1       1.933   1.950  19.417  0.00  0.00    +0.000 A 
ATOM     29  C   UNL     1       1.988   2.996  18.499  0.00  0.00    +0.000 A 
ATOM     30  F   UNL     1       2.216   2.706  17.210  0.00  0.00    +0.000 F 
ENDBRANCH  23  24
ENDBRANCH   3  23
TORSDOF 6
ENDMDL
