MODEL 1
REMARK VINA RESULT:      -8.3      0.000      0.000
REMARK  Name = 
REMARK  7 active torsions:
REMARK  status: ('A' for Active; 'I' for Inactive)
REMARK    1  A    between atoms: N_1  and  C_2
REMARK    2  A    between atoms: C_8  and  N_9
REMARK    3  A    between atoms: C_10  and  C_12
REMARK    4  A    between atoms: C_15  and  C_16
REMARK    5  A    between atoms: C_16  and  N_17
REMARK    6  A    between atoms: C_18  and  C_20
REMARK    7  A    between atoms: C_21  and  C_22
REMARK                            x       y       z     vdW  Elec       q    Type
REMARK                         _______ _______ _______ _____ _____    ______ ____
ROOT
ATOM      1  C   UNL     1       1.608   7.979  20.067  0.00  0.00    +0.000 A 
ATOM      2  C   UNL     1       1.369   6.917  20.942  0.00  0.00    +0.000 A 
ATOM      3  C   UNL     1       1.870   5.640  20.637  0.00  0.00    +0.000 A 
ATOM      4  C   UNL     1       2.621   5.412  19.469  0.00  0.00    +0.000 A 
ATOM      5  C   UNL     1       2.815   6.470  18.577  0.00  0.00    +0.000 A 
ATOM      6  C   UNL     1       2.317   7.737  18.878  0.00  0.00    +0.000 A 
ENDROOT
BRANCH   1   8
ATOM      7  N   UNL     1       1.114  10.239  19.175  0.00  0.00    +0.000 N 
ATOM      8  C   UNL     1       1.072   9.358  20.253  0.00  0.00    +0.000 C 
ATOM      9  O   UNL     1       0.581   9.598  21.353  0.00  0.00    +0.000 OA
ATOM     10  H   UNL     1       1.340   9.866  18.265  0.00  0.00    +0.000 HD
BRANCH   7  17
ATOM     11  C   UNL     1       1.371  12.624  18.586  0.00  0.00    +0.000 A 
ATOM     12  C   UNL     1       0.813  13.922  18.534  0.00  0.00    +0.000 A 
ATOM     13  C   UNL     1      -0.397  14.222  19.164  0.00  0.00    +0.000 A 
ATOM     14  C   UNL     1      -1.075  13.211  19.821  0.00  0.00    +0.000 A 
ATOM     15  F   UNL     1      -2.238  13.484  20.425  0.00  0.00    +0.000 F 
ATOM     16  C   UNL     1      -0.573  11.916  19.849  0.00  0.00    +0.000 A 
ATOM     17  C   UNL     1       0.629  11.587  19.206  0.00  0.00    +0.000 A 
BRANCH  11  18
ATOM     18  N   UNL     1       2.523  12.382  17.813  0.00  0.00    +0.000 N 
ATOM     19  H   UNL     1       3.051  11.563  18.126  0.00  0.00    +0.000 HD
ATOM     20  H   UNL     1       2.367  12.350  16.814  0.00  0.00    +0.000 HD
ENDBRANCH  11  18
ENDBRANCH   7  17
ENDBRANCH   1   8
BRANCH   4  21
ATOM     21  C   UNL     1       3.223   4.053  19.179  0.00  0.00    +0.000 C 
BRANCH  21  22
ATOM     22  N   UNL     1       4.080   4.056  18.024  0.00  0.00    +0.000 N 
ATOM     23  C   UNL     1       5.439   4.224  18.135  0.00  0.00    +0.000 C 
ATOM     24  O   UNL     1       6.037   4.342  19.199  0.00  0.00    +0.000 OA
ATOM     25  H   UNL     1       3.655   3.938  17.117  0.00  0.00    +0.000 HD
BRANCH  23  26
ATOM     26  C   UNL     1       6.118   4.274  16.819  0.00  0.00    +0.000 C 
ATOM     27  C   UNL     1       5.424   4.086  15.686  0.00  0.00    +0.000 C 
BRANCH  27  28
ATOM     28  C   UNL     1       6.028   4.154  14.347  0.00  0.00    +0.000 A 
ATOM     29  C   UNL     1       5.510   3.450  13.251  0.00  0.00    +0.000 A 
ATOM     30  C   UNL     1       6.132   3.513  12.002  0.00  0.00    +0.000 A 
ATOM     31  C   UNL     1       7.269   4.299  11.829  0.00  0.00    +0.000 A 
ATOM     32  C   UNL     1       7.771   5.036  12.899  0.00  0.00    +0.000 A 
ATOM     33  C   UNL     1       7.150   4.970  14.149  0.00  0.00    +0.000 A 
ENDBRANCH  27  28
ENDBRANCH  23  26
ENDBRANCH  21  22
ENDBRANCH   4  21
TORSDOF 7
ENDMDL
MODEL 2
REMARK VINA RESULT:      -8.2      1.319      1.651
REMARK  Name = 
REMARK  7 active torsions:
REMARK  status: ('A' for Active; 'I' for Inactive)
REMARK    1  A    between atoms: N_1  and  C_2
REMARK    2  A    between atoms: C_8  and  N_9
REMARK    3  A    between atoms: C_10  and  C_12
REMARK    4  A    between atoms: C_15  and  C_16
REMARK    5  A    between atoms: C_16  and  N_17
REMARK    6  A    between atoms: C_18  and  C_20
REMARK    7  A    between atoms: C_21  and  C_22
REMARK                            x       y       z     vdW  Elec       q    Type
REMARK                         _______ _______ _______ _____ _____    ______ ____
ROOT
ATOM      1  C   UNL     1       1.744   7.311  20.137  0.00  0.00    +0.000 A 
ATOM      2  C   UNL     1       2.695   7.291  19.115  0.00  0.00    +0.000 A 
ATOM      3  C   UNL     1       3.464   6.133  18.907  0.00  0.00    +0.000 A 
ATOM      4  C   UNL     1       3.288   4.987  19.703  0.00  0.00    +0.000 A 
ATOM      5  C   UNL     1       2.367   5.034  20.753  0.00  0.00    +0.000 A 
ATOM      6  C   UNL     1       1.603   6.182  20.962  0.00  0.00    +0.000 A 
ENDROOT
BRANCH   1   8
ATOM      7  N   UNL     1       1.042   9.652  19.718  0.00  0.00    +0.000 N 
ATOM      8  C   UNL     1       0.918   8.501  20.493  0.00  0.00    +0.000 C 
ATOM      9  O   UNL     1       0.140   8.352  21.432  0.00  0.00    +0.000 OA
ATOM     10  H   UNL     1       1.548   9.587  18.848  0.00  0.00    +0.000 HD
BRANCH   7  17
ATOM     11  C   UNL     1      -0.560  11.359  18.929  0.00  0.00    +0.000 A 
ATOM     12  C   UNL     1      -1.356  12.491  19.215  0.00  0.00    +0.000 A 
ATOM     13  C   UNL     1      -1.233  13.184  20.422  0.00  0.00    +0.000 A 
ATOM     14  C   UNL     1      -0.334  12.723  21.366  0.00  0.00    +0.000 A 
ATOM     15  F   UNL     1      -0.210  13.375  22.529  0.00  0.00    +0.000 F 
ATOM     16  C   UNL     1       0.429  11.586  21.131  0.00  0.00    +0.000 A 
ATOM     17  C   UNL     1       0.307  10.862  19.936  0.00  0.00    +0.000 A 
BRANCH  11  18
ATOM     18  N   UNL     1      -0.844  10.648  17.747  0.00  0.00    +0.000 N 
ATOM     19  H   UNL     1      -0.466   9.697  17.751  0.00  0.00    +0.000 HD
ATOM     20  H   UNL     1      -1.819  10.647  17.475  0.00  0.00    +0.000 HD
ENDBRANCH  11  18
ENDBRANCH   7  17
ENDBRANCH   1   8
BRANCH   4  21
ATOM     21  C   UNL     1       4.065   3.716  19.430  0.00  0.00    +0.000 C 
BRANCH  21  22
ATOM     22  N   UNL     1       4.819   3.775  18.206  0.00  0.00    +0.000 N 
ATOM     23  C   UNL     1       6.079   4.319  18.162  0.00  0.00    +0.000 C 
ATOM     24  O   UNL     1       6.680   4.755  19.138  0.00  0.00    +0.000 OA
ATOM     25  H   UNL     1       4.393   3.409  17.368  0.00  0.00    +0.000 HD
BRANCH  23  26
ATOM     26  C   UNL     1       6.641   4.349  16.791  0.00  0.00    +0.000 C 
ATOM     27  C   UNL     1       5.842   4.201  15.723  0.00  0.00    +0.000 C 
BRANCH  27  28
ATOM     28  C   UNL     1       6.327   4.254  14.336  0.00  0.00    +0.000 A 
ATOM     29  C   UNL     1       5.792   3.447  13.321  0.00  0.00    +0.000 A 
ATOM     30  C   UNL     1       6.304   3.500  12.022  0.00  0.00    +0.000 A 
ATOM     31  C   UNL     1       7.343   4.377  11.718  0.00  0.00    +0.000 A 
ATOM     32  C   UNL     1       7.855   5.213  12.707  0.00  0.00    +0.000 A 
ATOM     33  C   UNL     1       7.346   5.157  14.007  0.00  0.00    +0.000 A 
ENDBRANCH  27  28
ENDBRANCH  23  26
ENDBRANCH  21  22
ENDBRANCH   4  21
TORSDOF 7
ENDMDL
MODEL 3
REMARK VINA RESULT:      -8.2      1.703      2.103
REMARK  Name = 
REMARK  7 active torsions:
REMARK  status: ('A' for Active; 'I' for Inactive)
REMARK    1  A    between atoms: N_1  and  C_2
REMARK    2  A    between atoms: C_8  and  N_9
REMARK    3  A    between atoms: C_10  and  C_12
REMARK    4  A    between atoms: C_15  and  C_16
REMARK    5  A    between atoms: C_16  and  N_17
REMARK    6  A    between atoms: C_18  and  C_20
REMARK    7  A    between atoms: C_21  and  C_22
REMARK                            x       y       z     vdW  Elec       q    Type
REMARK                         _______ _______ _______ _____ _____    ______ ____
ROOT
ATOM      1  C   UNL     1       1.441   8.563  19.619  0.00  0.00    +0.000 A 
ATOM      2  C   UNL     1       2.192   8.148  18.517  0.00  0.00    +0.000 A 
ATOM      3  C   UNL     1       2.758   6.861  18.508  0.00  0.00    +0.000 A 
ATOM      4  C   UNL     1       2.573   5.976  19.586  0.00  0.00    +0.000 A 
ATOM      5  C   UNL     1       1.859   6.417  20.703  0.00  0.00    +0.000 A 
ATOM      6  C   UNL     1       1.298   7.694  20.714  0.00  0.00    +0.000 A 
ENDROOT
BRANCH   1   8
ATOM      7  N   UNL     1      -0.092  10.133  20.772  0.00  0.00    +0.000 N 
ATOM      8  C   UNL     1       0.850   9.924  19.768  0.00  0.00    +0.000 C 
ATOM      9  O   UNL     1       1.287  10.784  19.007  0.00  0.00    +0.000 OA
ATOM     10  H   UNL     1      -0.212   9.414  21.469  0.00  0.00    +0.000 HD
BRANCH   7  17
ATOM     11  C   UNL     1      -1.592  11.964  20.066  0.00  0.00    +0.000 A 
ATOM     12  C   UNL     1      -2.299  13.142  20.399  0.00  0.00    +0.000 A 
ATOM     13  C   UNL     1      -2.096  13.796  21.616  0.00  0.00    +0.000 A 
ATOM     14  C   UNL     1      -1.206  13.253  22.524  0.00  0.00    +0.000 A 
ATOM     15  F   UNL     1      -1.004  13.868  23.696  0.00  0.00    +0.000 F 
ATOM     16  C   UNL     1      -0.530  12.072  22.243  0.00  0.00    +0.000 A 
ATOM     17  C   UNL     1      -0.735  11.386  21.037  0.00  0.00    +0.000 A 
BRANCH  11  18
ATOM     18  N   UNL     1      -1.958  11.302  18.879  0.00  0.00    +0.000 N 
ATOM     19  H   UNL     1      -2.897  10.897  18.919  0.00  0.00    +0.000 HD
ATOM     20  H   UNL     1      -1.836  11.844  18.034  0.00  0.00    +0.000 HD
ENDBRANCH  11  18
ENDBRANCH   7  17
ENDBRANCH   1   8
BRANCH   4  21
ATOM     21  C   UNL     1       3.120   4.564  19.542  0.00  0.00    +0.000 C 
BRANCH  21  22
ATOM     22  N   UNL     1       3.673   4.219  18.260  0.00  0.00    +0.000 N 
ATOM     23  C   UNL     1       5.020   4.014  18.089  0.00  0.00    +0.000 C 
ATOM     24  O   UNL     1       5.849   4.063  18.991  0.00  0.00    +0.000 OA
ATOM     25  H   UNL     1       3.042   4.137  17.477  0.00  0.00    +0.000 HD
BRANCH  23  26
ATOM     26  C   UNL     1       5.383   3.747  16.676  0.00  0.00    +0.000 C 
ATOM     27  C   UNL     1       5.822   4.738  15.886  0.00  0.00    +0.000 C 
BRANCH  27  28
ATOM     28  C   UNL     1       6.229   4.537  14.488  0.00  0.00    +0.000 A 
ATOM     29  C   UNL     1       5.539   3.680  13.618  0.00  0.00    +0.000 A 
ATOM     30  C   UNL     1       5.978   3.488  12.306  0.00  0.00    +0.000 A 
ATOM     31  C   UNL     1       7.101   4.169  11.841  0.00  0.00    +0.000 A 
ATOM     32  C   UNL     1       7.771   5.055  12.680  0.00  0.00    +0.000 A 
ATOM     33  C   UNL     1       7.334   5.243  13.994  0.00  0.00    +0.000 A 
ENDBRANCH  27  28
ENDBRANCH  23  26
ENDBRANCH  21  22
ENDBRANCH   4  21
TORSDOF 7
ENDMDL
MODEL 4
REMARK VINA RESULT:      -8.1      1.186      1.690
REMARK  Name = 
REMARK  7 active torsions:
REMARK  status: ('A' for Active; 'I' for Inactive)
REMARK    1  A    between atoms: N_1  and  C_2
REMARK    2  A    between atoms: C_8  and  N_9
REMARK    3  A    between atoms: C_10  and  C_12
REMARK    4  A    between atoms: C_15  and  C_16
REMARK    5  A    between atoms: C_16  and  N_17
REMARK    6  A    between atoms: C_18  and  C_20
REMARK    7  A    between atoms: C_21  and  C_22
REMARK                            x       y       z     vdW  Elec       q    Type
REMARK                         _______ _______ _______ _____ _____    ______ ____
ROOT
ATOM      1  C   UNL     1       1.583   8.248  19.557  0.00  0.00    +0.000 A 
ATOM      2  C   UNL     1       2.213   7.814  18.388  0.00  0.00    +0.000 A 
ATOM      3  C   UNL     1       2.685   6.493  18.304  0.00  0.00    +0.000 A 
ATOM      4  C   UNL     1       2.524   5.592  19.373  0.00  0.00    +0.000 A 
ATOM      5  C   UNL     1       1.934   6.049  20.554  0.00  0.00    +0.000 A 
ATOM      6  C   UNL     1       1.467   7.360  20.640  0.00  0.00    +0.000 A 
ENDROOT
BRANCH   1   8
ATOM      7  N   UNL     1       1.391  10.609  18.825  0.00  0.00    +0.000 N 
ATOM      8  C   UNL     1       1.103   9.641  19.785  0.00  0.00    +0.000 C 
ATOM      9  O   UNL     1       0.434   9.818  20.800  0.00  0.00    +0.000 OA
ATOM     10  H   UNL     1       1.758  10.303  17.937  0.00  0.00    +0.000 HD
BRANCH   7  17
ATOM     11  C   UNL     1      -0.254  12.390  18.354  0.00  0.00    +0.000 A 
ATOM     12  C   UNL     1      -0.677  13.725  18.548  0.00  0.00    +0.000 A 
ATOM     13  C   UNL     1       0.139  14.665  19.181  0.00  0.00    +0.000 A 
ATOM     14  C   UNL     1       1.374  14.263  19.656  0.00  0.00    +0.000 A 
ATOM     15  F   UNL     1       2.165  15.153  20.268  0.00  0.00    +0.000 F 
ATOM     16  C   UNL     1       1.798  12.947  19.519  0.00  0.00    +0.000 A 
ATOM     17  C   UNL     1       0.987  11.981  18.907  0.00  0.00    +0.000 A 
BRANCH  11  18
ATOM     18  N   UNL     1      -1.192  11.482  17.827  0.00  0.00    +0.000 N 
ATOM     19  H   UNL     1      -0.947  11.151  16.890  0.00  0.00    +0.000 HD
ATOM     20  H   UNL     1      -1.422  10.707  18.435  0.00  0.00    +0.000 HD
ENDBRANCH  11  18
ENDBRANCH   7  17
ENDBRANCH   1   8
BRANCH   4  21
ATOM     21  C   UNL     1       2.966   4.148  19.252  0.00  0.00    +0.000 C 
BRANCH  21  22
ATOM     22  N   UNL     1       3.777   3.906  18.089  0.00  0.00    +0.000 N 
ATOM     23  C   UNL     1       5.142   4.052  18.119  0.00  0.00    +0.000 C 
ATOM     24  O   UNL     1       5.784   4.351  19.120  0.00  0.00    +0.000 OA
ATOM     25  H   UNL     1       3.313   3.631  17.236  0.00  0.00    +0.000 HD
BRANCH  23  26
ATOM     26  C   UNL     1       5.770   3.831  16.795  0.00  0.00    +0.000 C 
ATOM     27  C   UNL     1       5.403   4.567  15.735  0.00  0.00    +0.000 C 
BRANCH  27  28
ATOM     28  C   UNL     1       6.006   4.424  14.402  0.00  0.00    +0.000 A 
ATOM     29  C   UNL     1       5.460   3.592  13.414  0.00  0.00    +0.000 A 
ATOM     30  C   UNL     1       6.083   3.454  12.172  0.00  0.00    +0.000 A 
ATOM     31  C   UNL     1       7.249   4.165  11.894  0.00  0.00    +0.000 A 
ATOM     32  C   UNL     1       7.779   5.026  12.851  0.00  0.00    +0.000 A 
ATOM     33  C   UNL     1       7.158   5.160  14.096  0.00  0.00    +0.000 A 
ENDBRANCH  27  28
ENDBRANCH  23  26
ENDBRANCH  21  22
ENDBRANCH   4  21
TORSDOF 7
ENDMDL
MODEL 5
REMARK VINA RESULT:      -8.1      3.372     10.242
REMARK  Name = 
REMARK  7 active torsions:
REMARK  status: ('A' for Active; 'I' for Inactive)
REMARK    1  A    between atoms: N_1  and  C_2
REMARK    2  A    between atoms: C_8  and  N_9
REMARK    3  A    between atoms: C_10  and  C_12
REMARK    4  A    between atoms: C_15  and  C_16
REMARK    5  A    between atoms: C_16  and  N_17
REMARK    6  A    between atoms: C_18  and  C_20
REMARK    7  A    between atoms: C_21  and  C_22
REMARK                            x       y       z     vdW  Elec       q    Type
REMARK                         _______ _______ _______ _____ _____    ______ ____
ROOT
ATOM      1  C   UNL     1       2.366   7.378  18.916  0.00  0.00    +0.000 A 
ATOM      2  C   UNL     1       1.976   7.267  20.252  0.00  0.00    +0.000 A 
ATOM      3  C   UNL     1       1.215   8.291  20.840  0.00  0.00    +0.000 A 
ATOM      4  C   UNL     1       0.827   9.425  20.104  0.00  0.00    +0.000 A 
ATOM      5  C   UNL     1       1.260   9.548  18.781  0.00  0.00    +0.000 A 
ATOM      6  C   UNL     1       2.017   8.533  18.197  0.00  0.00    +0.000 A 
ENDROOT
BRANCH   1   8
ATOM      7  N   UNL     1       4.431   6.825  17.659  0.00  0.00    +0.000 N 
ATOM      8  C   UNL     1       3.227   6.388  18.206  0.00  0.00    +0.000 C 
ATOM      9  O   UNL     1       2.819   5.229  18.203  0.00  0.00    +0.000 OA
ATOM     10  H   UNL     1       4.760   7.745  17.910  0.00  0.00    +0.000 HD
BRANCH   7  17
ATOM     11  C   UNL     1       6.483   5.451  17.640  0.00  0.00    +0.000 A 
ATOM     12  C   UNL     1       7.318   4.538  16.957  0.00  0.00    +0.000 A 
ATOM     13  C   UNL     1       7.118   4.232  15.609  0.00  0.00    +0.000 A 
ATOM     14  C   UNL     1       6.054   4.815  14.945  0.00  0.00    +0.000 A 
ATOM     15  F   UNL     1       5.848   4.528  13.653  0.00  0.00    +0.000 F 
ATOM     16  C   UNL     1       5.190   5.682  15.603  0.00  0.00    +0.000 A 
ATOM     17  C   UNL     1       5.359   5.987  16.961  0.00  0.00    +0.000 A 
BRANCH  11  18
ATOM     18  N   UNL     1       6.679   5.596  19.027  0.00  0.00    +0.000 N 
ATOM     19  H   UNL     1       6.077   6.312  19.444  0.00  0.00    +0.000 HD
ATOM     20  H   UNL     1       6.633   4.735  19.556  0.00  0.00    +0.000 HD
ENDBRANCH  11  18
ENDBRANCH   7  17
ENDBRANCH   1   8
BRANCH   4  21
ATOM     21  C   UNL     1      -0.056  10.492  20.718  0.00  0.00    +0.000 C 
BRANCH  21  22
ATOM     22  N   UNL     1       0.040  11.756  20.038  0.00  0.00    +0.000 N 
ATOM     23  C   UNL     1      -0.985  12.234  19.258  0.00  0.00    +0.000 C 
ATOM     24  O   UNL     1      -2.061  11.668  19.105  0.00  0.00    +0.000 OA
ATOM     25  H   UNL     1       0.891  12.287  20.141  0.00  0.00    +0.000 HD
BRANCH  23  26
ATOM     26  C   UNL     1      -0.645  13.512  18.589  0.00  0.00    +0.000 C 
ATOM     27  C   UNL     1       0.062  14.453  19.234  0.00  0.00    +0.000 C 
BRANCH  27  28
ATOM     28  C   UNL     1       0.461  15.728  18.620  0.00  0.00    +0.000 A 
ATOM     29  C   UNL     1       1.802  16.058  18.375  0.00  0.00    +0.000 A 
ATOM     30  C   UNL     1       2.144  17.294  17.823  0.00  0.00    +0.000 A 
ATOM     31  C   UNL     1       1.146  18.208  17.489  0.00  0.00    +0.000 A 
ATOM     32  C   UNL     1      -0.192  17.877  17.689  0.00  0.00    +0.000 A 
ATOM     33  C   UNL     1      -0.533  16.641  18.245  0.00  0.00    +0.000 A 
ENDBRANCH  27  28
ENDBRANCH  23  26
ENDBRANCH  21  22
ENDBRANCH   4  21
TORSDOF 7
ENDMDL
MODEL 6
REMARK VINA RESULT:      -8.0      1.239      1.885
REMARK  Name = 
REMARK  7 active torsions:
REMARK  status: ('A' for Active; 'I' for Inactive)
REMARK    1  A    between atoms: N_1  and  C_2
REMARK    2  A    between atoms: C_8  and  N_9
REMARK    3  A    between atoms: C_10  and  C_12
REMARK    4  A    between atoms: C_15  and  C_16
REMARK    5  A    between atoms: C_16  and  N_17
REMARK    6  A    between atoms: C_18  and  C_20
REMARK    7  A    between atoms: C_21  and  C_22
REMARK                            x       y       z     vdW  Elec       q    Type
REMARK                         _______ _______ _______ _____ _____    ______ ____
ROOT
ATOM      1  C   UNL     1       1.270   9.071  19.200  0.00  0.00    +0.000 A 
ATOM      2  C   UNL     1       2.019   8.675  18.090  0.00  0.00    +0.000 A 
ATOM      3  C   UNL     1       2.758   7.481  18.142  0.00  0.00    +0.000 A 
ATOM      4  C   UNL     1       2.750   6.667  19.290  0.00  0.00    +0.000 A 
ATOM      5  C   UNL     1       2.035   7.095  20.411  0.00  0.00    +0.000 A 
ATOM      6  C   UNL     1       1.302   8.281  20.362  0.00  0.00    +0.000 A 
ENDROOT
BRANCH   1   8
ATOM      7  N   UNL     1       0.951  11.338  20.152  0.00  0.00    +0.000 N 
ATOM      8  C   UNL     1       0.502  10.346  19.284  0.00  0.00    +0.000 C 
ATOM      9  O   UNL     1      -0.461  10.442  18.527  0.00  0.00    +0.000 OA
ATOM     10  H   UNL     1       1.868  11.232  20.560  0.00  0.00    +0.000 HD
BRANCH   7  17
ATOM     11  C   UNL     1       0.422  13.601  19.317  0.00  0.00    +0.000 A 
ATOM     12  C   UNL     1      -0.304  14.805  19.469  0.00  0.00    +0.000 A 
ATOM     13  C   UNL     1      -1.031  15.078  20.630  0.00  0.00    +0.000 A 
ATOM     14  C   UNL     1      -1.064  14.128  21.634  0.00  0.00    +0.000 A 
ATOM     15  F   UNL     1      -1.760  14.375  22.751  0.00  0.00    +0.000 F 
ATOM     16  C   UNL     1      -0.398  12.917  21.494  0.00  0.00    +0.000 A 
ATOM     17  C   UNL     1       0.321  12.612  20.329  0.00  0.00    +0.000 A 
BRANCH  11  18
ATOM     18  N   UNL     1       1.014  13.355  18.064  0.00  0.00    +0.000 N 
ATOM     19  H   UNL     1       0.429  12.782  17.450  0.00  0.00    +0.000 HD
ATOM     20  H   UNL     1       1.346  14.179  17.580  0.00  0.00    +0.000 HD
ENDBRANCH  11  18
ENDBRANCH   7  17
ENDBRANCH   1   8
BRANCH   4  21
ATOM     21  C   UNL     1       3.487   5.345  19.317  0.00  0.00    +0.000 C 
BRANCH  21  22
ATOM     22  N   UNL     1       4.295   5.130  18.146  0.00  0.00    +0.000 N 
ATOM     23  C   UNL     1       5.524   4.524  18.220  0.00  0.00    +0.000 C 
ATOM     24  O   UNL     1       6.018   4.083  19.252  0.00  0.00    +0.000 OA
ATOM     25  H   UNL     1       3.936   5.446  17.258  0.00  0.00    +0.000 HD
BRANCH  23  26
ATOM     26  C   UNL     1       6.218   4.475  16.911  0.00  0.00    +0.000 C 
ATOM     27  C   UNL     1       5.517   4.361  15.773  0.00  0.00    +0.000 C 
BRANCH  27  28
ATOM     28  C   UNL     1       6.137   4.340  14.440  0.00  0.00    +0.000 A 
ATOM     29  C   UNL     1       7.259   5.118  14.119  0.00  0.00    +0.000 A 
ATOM     30  C   UNL     1       7.799   5.098  12.831  0.00  0.00    +0.000 A 
ATOM     31  C   UNL     1       7.235   4.282  11.853  0.00  0.00    +0.000 A 
ATOM     32  C   UNL     1       6.146   3.473  12.168  0.00  0.00    +0.000 A 
ATOM     33  C   UNL     1       5.604   3.497  13.456  0.00  0.00    +0.000 A 
ENDBRANCH  27  28
ENDBRANCH  23  26
ENDBRANCH  21  22
ENDBRANCH   4  21
TORSDOF 7
ENDMDL
MODEL 7
REMARK VINA RESULT:      -8.0      1.387      2.022
REMARK  Name = 
REMARK  7 active torsions:
REMARK  status: ('A' for Active; 'I' for Inactive)
REMARK    1  A    between atoms: N_1  and  C_2
REMARK    2  A    between atoms: C_8  and  N_9
REMARK    3  A    between atoms: C_10  and  C_12
REMARK    4  A    between atoms: C_15  and  C_16
REMARK    5  A    between atoms: C_16  and  N_17
REMARK    6  A    between atoms: C_18  and  C_20
REMARK    7  A    between atoms: C_21  and  C_22
REMARK                            x       y       z     vdW  Elec       q    Type
REMARK                         _______ _______ _______ _____ _____    ______ ____
ROOT
ATOM      1  C   UNL     1       1.415   9.147  19.744  0.00  0.00    +0.000 A 
ATOM      2  C   UNL     1       1.911   8.795  18.486  0.00  0.00    +0.000 A 
ATOM      3  C   UNL     1       2.362   7.483  18.261  0.00  0.00    +0.000 A 
ATOM      4  C   UNL     1       2.313   6.510  19.276  0.00  0.00    +0.000 A 
ATOM      5  C   UNL     1       1.858   6.885  20.544  0.00  0.00    +0.000 A 
ATOM      6  C   UNL     1       1.412   8.187  20.769  0.00  0.00    +0.000 A 
ENDROOT
BRANCH   1   8
ATOM      7  N   UNL     1       1.140  11.548  19.192  0.00  0.00    +0.000 N 
ATOM      8  C   UNL     1       0.972  10.521  20.117  0.00  0.00    +0.000 C 
ATOM      9  O   UNL     1       0.436  10.630  21.218  0.00  0.00    +0.000 OA
ATOM     10  H   UNL     1       1.391  11.300  18.247  0.00  0.00    +0.000 HD
BRANCH   7  17
ATOM     11  C   UNL     1      -0.162  13.539  18.528  0.00  0.00    +0.000 A 
ATOM     12  C   UNL     1      -0.612  14.844  18.832  0.00  0.00    +0.000 A 
ATOM     13  C   UNL     1      -0.100  15.558  19.918  0.00  0.00    +0.000 A 
ATOM     14  C   UNL     1       0.842  14.953  20.729  0.00  0.00    +0.000 A 
ATOM     15  F   UNL     1       1.337  15.624  21.776  0.00  0.00    +0.000 F 
ATOM     16  C   UNL     1       1.269  13.654  20.482  0.00  0.00    +0.000 A 
ATOM     17  C   UNL     1       0.753  12.911  19.410  0.00  0.00    +0.000 A 
BRANCH  11  18
ATOM     18  N   UNL     1      -0.828  12.848  17.497  0.00  0.00    +0.000 N 
ATOM     19  H   UNL     1      -0.189  12.450  16.804  0.00  0.00    +0.000 HD
ATOM     20  H   UNL     1      -1.495  12.155  17.811  0.00  0.00    +0.000 HD
ENDBRANCH  11  18
ENDBRANCH   7  17
ENDBRANCH   1   8
BRANCH   4  21
ATOM     21  C   UNL     1       2.729   5.079  19.010  0.00  0.00    +0.000 C 
BRANCH  21  22
ATOM     22  N   UNL     1       3.664   4.961  17.923  0.00  0.00    +0.000 N 
ATOM     23  C   UNL     1       4.855   4.293  18.067  0.00  0.00    +0.000 C 
ATOM     24  O   UNL     1       5.206   3.715  19.089  0.00  0.00    +0.000 OA
ATOM     25  H   UNL     1       3.425   5.393  17.043  0.00  0.00    +0.000 HD
BRANCH  23  26
ATOM     26  C   UNL     1       5.699   4.362  16.850  0.00  0.00    +0.000 C 
ATOM     27  C   UNL     1       5.161   4.171  15.636  0.00  0.00    +0.000 C 
BRANCH  27  28
ATOM     28  C   UNL     1       5.931   4.257  14.387  0.00  0.00    +0.000 A 
ATOM     29  C   UNL     1       7.040   5.104  14.243  0.00  0.00    +0.000 A 
ATOM     30  C   UNL     1       7.726   5.184  13.029  0.00  0.00    +0.000 A 
ATOM     31  C   UNL     1       7.323   4.402  11.949  0.00  0.00    +0.000 A 
ATOM     32  C   UNL     1       6.249   3.527  12.089  0.00  0.00    +0.000 A 
ATOM     33  C   UNL     1       5.561   3.449  13.304  0.00  0.00    +0.000 A 
ENDBRANCH  27  28
ENDBRANCH  23  26
ENDBRANCH  21  22
ENDBRANCH   4  21
TORSDOF 7
ENDMDL
MODEL 8
REMARK VINA RESULT:      -8.0      1.252      1.730
REMARK  Name = 
REMARK  7 active torsions:
REMARK  status: ('A' for Active; 'I' for Inactive)
REMARK    1  A    between atoms: N_1  and  C_2
REMARK    2  A    between atoms: C_8  and  N_9
REMARK    3  A    between atoms: C_10  and  C_12
REMARK    4  A    between atoms: C_15  and  C_16
REMARK    5  A    between atoms: C_16  and  N_17
REMARK    6  A    between atoms: C_18  and  C_20
REMARK    7  A    between atoms: C_21  and  C_22
REMARK                            x       y       z     vdW  Elec       q    Type
REMARK                         _______ _______ _______ _____ _____    ______ ____
ROOT
ATOM      1  C   UNL     1       1.353   9.340  19.209  0.00  0.00    +0.000 A 
ATOM      2  C   UNL     1       1.264   8.550  20.357  0.00  0.00    +0.000 A 
ATOM      3  C   UNL     1       1.875   7.285  20.377  0.00  0.00    +0.000 A 
ATOM      4  C   UNL     1       2.587   6.801  19.265  0.00  0.00    +0.000 A 
ATOM      5  C   UNL     1       2.632   7.580  18.105  0.00  0.00    +0.000 A 
ATOM      6  C   UNL     1       2.024   8.835  18.083  0.00  0.00    +0.000 A 
ENDROOT
BRANCH   1   8
ATOM      7  N   UNL     1       1.314  11.790  19.589  0.00  0.00    +0.000 N 
ATOM      8  C   UNL     1       0.691  10.668  19.049  0.00  0.00    +0.000 C 
ATOM      9  O   UNL     1      -0.350  10.672  18.397  0.00  0.00    +0.000 OA
ATOM     10  H   UNL     1       2.265  11.697  19.912  0.00  0.00    +0.000 HD
BRANCH   7  17
ATOM     11  C   UNL     1       1.501  14.111  18.763  0.00  0.00    +0.000 A 
ATOM     12  C   UNL     1       0.914  15.386  18.603  0.00  0.00    +0.000 A 
ATOM     13  C   UNL     1      -0.284  15.724  19.238  0.00  0.00    +0.000 A 
ATOM     14  C   UNL     1      -0.920  14.769  20.010  0.00  0.00    +0.000 A 
ATOM     15  F   UNL     1      -2.071  15.078  20.621  0.00  0.00    +0.000 F 
ATOM     16  C   UNL     1      -0.389  13.492  20.149  0.00  0.00    +0.000 A 
ATOM     17  C   UNL     1       0.800  13.125  19.504  0.00  0.00    +0.000 A 
BRANCH  11  18
ATOM     18  N   UNL     1       2.636  13.817  17.982  0.00  0.00    +0.000 N 
ATOM     19  H   UNL     1       3.013  12.882  18.160  0.00  0.00    +0.000 HD
ATOM     20  H   UNL     1       2.522  13.977  16.990  0.00  0.00    +0.000 HD
ENDBRANCH  11  18
ENDBRANCH   7  17
ENDBRANCH   1   8
BRANCH   4  21
ATOM     21  C   UNL     1       3.308   5.470  19.315  0.00  0.00    +0.000 C 
BRANCH  21  22
ATOM     22  N   UNL     1       3.823   5.065  18.035  0.00  0.00    +0.000 N 
ATOM     23  C   UNL     1       4.210   3.770  17.792  0.00  0.00    +0.000 C 
ATOM     24  O   UNL     1       4.118   2.855  18.603  0.00  0.00    +0.000 OA
ATOM     25  H   UNL     1       3.902   5.764  17.312  0.00  0.00    +0.000 HD
BRANCH  23  26
ATOM     26  C   UNL     1       4.783   3.589  16.436  0.00  0.00    +0.000 C 
ATOM     27  C   UNL     1       5.454   4.587  15.841  0.00  0.00    +0.000 C 
BRANCH  27  28
ATOM     28  C   UNL     1       6.075   4.465  14.514  0.00  0.00    +0.000 A 
ATOM     29  C   UNL     1       7.234   5.170  14.158  0.00  0.00    +0.000 A 
ATOM     30  C   UNL     1       7.774   5.055  12.875  0.00  0.00    +0.000 A 
ATOM     31  C   UNL     1       7.172   4.217  11.939  0.00  0.00    +0.000 A 
ATOM     32  C   UNL     1       6.045   3.481  12.291  0.00  0.00    +0.000 A 
ATOM     33  C   UNL     1       5.503   3.599  13.574  0.00  0.00    +0.000 A 
ENDBRANCH  27  28
ENDBRANCH  23  26
ENDBRANCH  21  22
ENDBRANCH   4  21
TORSDOF 7
ENDMDL
MODEL 9
REMARK VINA RESULT:      -8.0      1.294      1.495
REMARK  Name = 
REMARK  7 active torsions:
REMARK  status: ('A' for Active; 'I' for Inactive)
REMARK    1  A    between atoms: N_1  and  C_2
REMARK    2  A    between atoms: C_8  and  N_9
REMARK    3  A    between atoms: C_10  and  C_12
REMARK    4  A    between atoms: C_15  and  C_16
REMARK    5  A    between atoms: C_16  and  N_17
REMARK    6  A    between atoms: C_18  and  C_20
REMARK    7  A    between atoms: C_21  and  C_22
REMARK                            x       y       z     vdW  Elec       q    Type
REMARK                         _______ _______ _______ _____ _____    ______ ____
ROOT
ATOM      1  C   UNL     1       1.611   7.527  20.433  0.00  0.00    +0.000 A 
ATOM      2  C   UNL     1       1.425   6.346  21.156  0.00  0.00    +0.000 A 
ATOM      3  C   UNL     1       1.965   5.143  20.670  0.00  0.00    +0.000 A 
ATOM      4  C   UNL     1       2.701   5.105  19.472  0.00  0.00    +0.000 A 
ATOM      5  C   UNL     1       2.842   6.283  18.733  0.00  0.00    +0.000 A 
ATOM      6  C   UNL     1       2.305   7.477  19.212  0.00  0.00    +0.000 A 
ENDROOT
BRANCH   1   8
ATOM      7  N   UNL     1       0.801   9.787  19.814  0.00  0.00    +0.000 N 
ATOM      8  C   UNL     1       1.031   8.847  20.815  0.00  0.00    +0.000 C 
ATOM      9  O   UNL     1       0.750   8.984  22.003  0.00  0.00    +0.000 OA
ATOM     10  H   UNL     1       0.869   9.485  18.854  0.00  0.00    +0.000 HD
BRANCH   7  17
ATOM     11  C   UNL     1      -0.946  11.473  19.361  0.00  0.00    +0.000 A 
ATOM     12  C   UNL     1      -1.535  12.717  19.682  0.00  0.00    +0.000 A 
ATOM     13  C   UNL     1      -0.922  13.610  20.564  0.00  0.00    +0.000 A 
ATOM     14  C   UNL     1       0.271  13.244  21.159  0.00  0.00    +0.000 A 
ATOM     15  F   UNL     1       0.868  14.089  22.010  0.00  0.00    +0.000 F 
ATOM     16  C   UNL     1       0.851  12.009  20.898  0.00  0.00    +0.000 A 
ATOM     17  C   UNL     1       0.242  11.088  20.032  0.00  0.00    +0.000 A 
BRANCH  11  18
ATOM     18  N   UNL     1      -1.698  10.585  18.569  0.00  0.00    +0.000 N 
ATOM     19  H   UNL     1      -2.408  10.075  19.102  0.00  0.00    +0.000 HD
ATOM     20  H   UNL     1      -2.098  10.993  17.734  0.00  0.00    +0.000 HD
ENDBRANCH  11  18
ENDBRANCH   7  17
ENDBRANCH   1   8
BRANCH   4  21
ATOM     21  C   UNL     1       3.345   3.822  18.989  0.00  0.00    +0.000 C 
BRANCH  21  22
ATOM     22  N   UNL     1       4.172   4.015  17.828  0.00  0.00    +0.000 N 
ATOM     23  C   UNL     1       5.524   4.229  17.935  0.00  0.00    +0.000 C 
ATOM     24  O   UNL     1       6.143   4.235  18.994  0.00  0.00    +0.000 OA
ATOM     25  H   UNL     1       3.730   3.996  16.922  0.00  0.00    +0.000 HD
BRANCH  23  26
ATOM     26  C   UNL     1       6.169   4.480  16.624  0.00  0.00    +0.000 C 
ATOM     27  C   UNL     1       5.739   3.849  15.521  0.00  0.00    +0.000 C 
BRANCH  27  28
ATOM     28  C   UNL     1       6.310   4.075  14.185  0.00  0.00    +0.000 A 
ATOM     29  C   UNL     1       5.876   3.371  13.053  0.00  0.00    +0.000 A 
ATOM     30  C   UNL     1       6.468   3.589  11.806  0.00  0.00    +0.000 A 
ATOM     31  C   UNL     1       7.487   4.530  11.674  0.00  0.00    +0.000 A 
ATOM     32  C   UNL     1       7.899   5.266  12.782  0.00  0.00    +0.000 A 
ATOM     33  C   UNL     1       7.309   5.044  14.030  0.00  0.00    +0.000 A 
ENDBRANCH  27  28
ENDBRANCH  23  26
ENDBRANCH  21  22
ENDBRANCH   4  21
TORSDOF 7
ENDMDL
