MODEL 1
REMARK VINA RESULT:      -7.4      0.000      0.000
REMARK  Name = 
REMARK  14 active torsions:
REMARK  status: ('A' for Active; 'I' for Inactive)
REMARK    1  A    between atoms: C_1  and  C_2
REMARK    2  A    between atoms: C_2  and  C_3
REMARK    3  A    between atoms: C_3  and  C_4
REMARK    4  A    between atoms: C_4  and  N_5
REMARK    5  A    between atoms: N_8  and  C_9
REMARK    6  A    between atoms: C_9  and  C_10
REMARK    7  A    between atoms: C_10  and  O_11
REMARK    8  A    between atoms: C_10  and  C_12
REMARK    9  A    between atoms: C_10  and  C_22
REMARK   10  A    between atoms: C_12  and  N_13
REMARK   11  A    between atoms: N_15  and  C_16
REMARK   12  A    between atoms: C_16  and  C_17
REMARK   13  A    between atoms: C_17  and  C_18
REMARK   14  A    between atoms: C_18  and  C_19
REMARK                            x       y       z     vdW  Elec       q    Type
REMARK                         _______ _______ _______ _____ _____    ______ ____
ROOT
ATOM      1  C   UNL     1       3.554   4.237  18.109  0.00  0.00    +0.000 C 
ENDROOT
BRANCH   1   2
ATOM      2  C   UNL     1       2.806   3.637  19.325  0.00  0.00    +0.000 A 
ATOM      3  C   UNL     1       1.395   3.747  19.413  0.00  0.00    +0.000 A 
ATOM      4  C   UNL     1       0.695   3.280  20.531  0.00  0.00    +0.000 A 
ATOM      5  C   UNL     1       1.382   2.661  21.564  0.00  0.00    +0.000 A 
ATOM      6  F   UNL     1       0.708   2.225  22.635  0.00  0.00    +0.000 F 
ATOM      7  C   UNL     1       2.752   2.482  21.488  0.00  0.00    +0.000 A 
ATOM      8  C   UNL     1       3.444   2.956  20.373  0.00  0.00    +0.000 A 
ATOM      9  F   UNL     1       4.755   2.735  20.326  0.00  0.00    +0.000 F 
ENDBRANCH   1   2
BRANCH   1  10
ATOM     10  O   UNL     1       2.491   4.449  17.131  0.00  0.00    +0.000 OA
ATOM     11  H   UNL     1       1.647   4.067  17.435  0.00  0.00    +0.000 HD
ENDBRANCH   1  10
BRANCH   1  12
ATOM     12  C   UNL     1       4.048   5.659  18.496  0.00  0.00    +0.000 C 
BRANCH  12  16
ATOM     13  N   UNL     1       1.892   8.451  19.031  0.00  0.00    +0.000 N 
ATOM     14  C   UNL     1       2.375   8.577  17.750  0.00  0.00    +0.000 A 
ATOM     15  N   UNL     1       3.073   7.569  17.366  0.00  0.00    +0.000 NA
ATOM     16  N   UNL     1       3.039   6.728  18.445  0.00  0.00    +0.000 N 
ATOM     17  C   UNL     1       2.291   7.235  19.441  0.00  0.00    +0.000 A 
BRANCH  13  18
ATOM     18  C   UNL     1       1.096   9.449  19.748  0.00  0.00    +0.000 C 
BRANCH  18  19
ATOM     19  C   UNL     1       0.485   8.958  21.057  0.00  0.00    +0.000 C 
BRANCH  19  21
ATOM     20  C   UNL     1      -0.623   9.788  23.174  0.00  0.00    +0.000 C 
ATOM     21  C   UNL     1       0.485  10.023  22.157  0.00  0.00    +0.000 C 
ENDBRANCH  19  21
ENDBRANCH  18  19
ENDBRANCH  13  18
ENDBRANCH  12  16
ENDBRANCH   1  12
BRANCH   1  22
ATOM     22  C   UNL     1       4.701   3.370  17.443  0.00  0.00    +0.000 C 
BRANCH  22  23
ATOM     23  N   UNL     1       5.615   3.977  16.443  0.00  0.00    +0.000 N 
ATOM     24  C   UNL     1       5.354   4.464  15.207  0.00  0.00    +0.000 A 
ATOM     25  N   UNL     1       6.525   4.908  14.708  0.00  0.00    +0.000 N 
ATOM     26  C   UNL     1       7.364   4.945  15.797  0.00  0.00    +0.000 A 
ATOM     27  N   UNL     1       6.863   4.394  16.847  0.00  0.00    +0.000 NA
BRANCH  25  28
ATOM     28  C   UNL     1       6.908   4.987  13.288  0.00  0.00    +0.000 C 
BRANCH  28  29
ATOM     29  C   UNL     1       6.932   3.708  12.449  0.00  0.00    +0.000 C 
BRANCH  29  30
ATOM     30  C   UNL     1       5.610   3.088  11.983  0.00  0.00    +0.000 C 
ATOM     31  C   UNL     1       5.706   1.721  11.316  0.00  0.00    +0.000 C 
ENDBRANCH  29  30
ENDBRANCH  28  29
ENDBRANCH  25  28
ENDBRANCH  22  23
ENDBRANCH   1  22
TORSDOF 12
ENDMDL
MODEL 2
REMARK VINA RESULT:      -7.1      1.439      7.764
REMARK  Name = 
REMARK  14 active torsions:
REMARK  status: ('A' for Active; 'I' for Inactive)
REMARK    1  A    between atoms: C_1  and  C_2
REMARK    2  A    between atoms: C_2  and  C_3
REMARK    3  A    between atoms: C_3  and  C_4
REMARK    4  A    between atoms: C_4  and  N_5
REMARK    5  A    between atoms: N_8  and  C_9
REMARK    6  A    between atoms: C_9  and  C_10
REMARK    7  A    between atoms: C_10  and  O_11
REMARK    8  A    between atoms: C_10  and  C_12
REMARK    9  A    between atoms: C_10  and  C_22
REMARK   10  A    between atoms: C_12  and  N_13
REMARK   11  A    between atoms: N_15  and  C_16
REMARK   12  A    between atoms: C_16  and  C_17
REMARK   13  A    between atoms: C_17  and  C_18
REMARK   14  A    between atoms: C_18  and  C_19
REMARK                            x       y       z     vdW  Elec       q    Type
REMARK                         _______ _______ _______ _____ _____    ______ ____
ROOT
ATOM      1  C   UNL     1       3.359   5.158  18.167  0.00  0.00    +0.000 C 
ENDROOT
BRANCH   1   2
ATOM      2  C   UNL     1       2.589   4.419  19.290  0.00  0.00    +0.000 A 
ATOM      3  C   UNL     1       3.052   4.487  20.628  0.00  0.00    +0.000 A 
ATOM      4  C   UNL     1       2.422   3.774  21.654  0.00  0.00    +0.000 A 
ATOM      5  C   UNL     1       1.298   3.014  21.375  0.00  0.00    +0.000 A 
ATOM      6  F   UNL     1       0.705   2.328  22.359  0.00  0.00    +0.000 F 
ATOM      7  C   UNL     1       0.780   2.971  20.092  0.00  0.00    +0.000 A 
ATOM      8  C   UNL     1       1.418   3.678  19.073  0.00  0.00    +0.000 A 
ATOM      9  F   UNL     1       0.869   3.635  17.862  0.00  0.00    +0.000 F 
ENDBRANCH   1   2
BRANCH   1  10
ATOM     10  O   UNL     1       4.527   5.696  18.857  0.00  0.00    +0.000 OA
ATOM     11  H   UNL     1       5.247   5.041  18.900  0.00  0.00    +0.000 HD
ENDBRANCH   1  10
BRANCH   1  12
ATOM     12  C   UNL     1       3.917   4.093  17.180  0.00  0.00    +0.000 C 
BRANCH  12  16
ATOM     13  N   UNL     1       6.402   4.622  14.676  0.00  0.00    +0.000 N 
ATOM     14  C   UNL     1       5.949   5.869  15.039  0.00  0.00    +0.000 A 
ATOM     15  N   UNL     1       5.132   5.847  16.030  0.00  0.00    +0.000 NA
ATOM     16  N   UNL     1       5.052   4.518  16.348  0.00  0.00    +0.000 N 
ATOM     17  C   UNL     1       5.850   3.775  15.561  0.00  0.00    +0.000 A 
BRANCH  13  18
ATOM     18  C   UNL     1       7.312   4.331  13.566  0.00  0.00    +0.000 C 
BRANCH  18  19
ATOM     19  C   UNL     1       6.638   4.209  12.203  0.00  0.00    +0.000 C 
BRANCH  19  21
ATOM     20  C   UNL     1       4.405   3.238  11.519  0.00  0.00    +0.000 C 
ATOM     21  C   UNL     1       5.796   2.938  12.061  0.00  0.00    +0.000 C 
ENDBRANCH  19  21
ENDBRANCH  18  19
ENDBRANCH  13  18
ENDBRANCH  12  16
ENDBRANCH   1  12
BRANCH   1  22
ATOM     22  C   UNL     1       2.617   6.337  17.411  0.00  0.00    +0.000 C 
BRANCH  22  23
ATOM     23  N   UNL     1       2.157   7.534  18.160  0.00  0.00    +0.000 N 
ATOM     24  C   UNL     1       1.986   7.717  19.491  0.00  0.00    +0.000 A 
ATOM     25  N   UNL     1       1.556   8.983  19.658  0.00  0.00    +0.000 N 
ATOM     26  C   UNL     1       1.790   9.583  18.443  0.00  0.00    +0.000 A 
ATOM     27  N   UNL     1       2.142   8.754  17.523  0.00  0.00    +0.000 NA
BRANCH  25  28
ATOM     28  C   UNL     1       0.712   9.493  20.752  0.00  0.00    +0.000 C 
BRANCH  28  29
ATOM     29  C   UNL     1       1.032   9.090  22.192  0.00  0.00    +0.000 C 
BRANCH  29  30
ATOM     30  C   UNL     1       0.064   9.475  23.316  0.00  0.00    +0.000 C 
ATOM     31  C   UNL     1      -0.931  10.584  22.997  0.00  0.00    +0.000 C 
ENDBRANCH  29  30
ENDBRANCH  28  29
ENDBRANCH  25  28
ENDBRANCH  22  23
ENDBRANCH   1  22
TORSDOF 12
ENDMDL
MODEL 3
REMARK VINA RESULT:      -6.9      1.170      1.320
REMARK  Name = 
REMARK  14 active torsions:
REMARK  status: ('A' for Active; 'I' for Inactive)
REMARK    1  A    between atoms: C_1  and  C_2
REMARK    2  A    between atoms: C_2  and  C_3
REMARK    3  A    between atoms: C_3  and  C_4
REMARK    4  A    between atoms: C_4  and  N_5
REMARK    5  A    between atoms: N_8  and  C_9
REMARK    6  A    between atoms: C_9  and  C_10
REMARK    7  A    between atoms: C_10  and  O_11
REMARK    8  A    between atoms: C_10  and  C_12
REMARK    9  A    between atoms: C_10  and  C_22
REMARK   10  A    between atoms: C_12  and  N_13
REMARK   11  A    between atoms: N_15  and  C_16
REMARK   12  A    between atoms: C_16  and  C_17
REMARK   13  A    between atoms: C_17  and  C_18
REMARK   14  A    between atoms: C_18  and  C_19
REMARK                            x       y       z     vdW  Elec       q    Type
REMARK                         _______ _______ _______ _____ _____    ______ ____
ROOT
ATOM      1  C   UNL     1       3.788   5.001  18.562  0.00  0.00    +0.000 C 
ENDROOT
BRANCH   1   2
ATOM      2  C   UNL     1       3.045   4.077  19.558  0.00  0.00    +0.000 A 
ATOM      3  C   UNL     1       2.638   4.578  20.820  0.00  0.00    +0.000 A 
ATOM      4  C   UNL     1       2.029   3.752  21.772  0.00  0.00    +0.000 A 
ATOM      5  C   UNL     1       1.779   2.423  21.469  0.00  0.00    +0.000 A 
ATOM      6  F   UNL     1       1.204   1.636  22.387  0.00  0.00    +0.000 F 
ATOM      7  C   UNL     1       2.107   1.911  20.226  0.00  0.00    +0.000 A 
ATOM      8  C   UNL     1       2.720   2.739  19.286  0.00  0.00    +0.000 A 
ATOM      9  F   UNL     1       2.990   2.217  18.092  0.00  0.00    +0.000 F 
ENDBRANCH   1   2
BRANCH   1  10
ATOM     10  O   UNL     1       2.845   5.130  17.455  0.00  0.00    +0.000 OA
ATOM     11  H   UNL     1       2.246   4.362  17.408  0.00  0.00    +0.000 HD
ENDBRANCH   1  10
BRANCH   1  12
ATOM     12  C   UNL     1       3.880   6.419  19.193  0.00  0.00    +0.000 C 
BRANCH  12  16
ATOM     13  N   UNL     1       1.345   8.929  19.152  0.00  0.00    +0.000 N 
ATOM     14  C   UNL     1       1.953   8.976  17.920  0.00  0.00    +0.000 A 
ATOM     15  N   UNL     1       2.811   8.037  17.738  0.00  0.00    +0.000 NA
ATOM     16  N   UNL     1       2.758   7.326  18.906  0.00  0.00    +0.000 N 
ATOM     17  C   UNL     1       1.842   7.834  19.750  0.00  0.00    +0.000 A 
BRANCH  13  18
ATOM     18  C   UNL     1       0.352   9.882  19.654  0.00  0.00    +0.000 C 
BRANCH  18  19
ATOM     19  C   UNL     1       0.624  10.406  21.061  0.00  0.00    +0.000 C 
BRANCH  19  21
ATOM     20  C   UNL     1      -0.923  10.792  23.025  0.00  0.00    +0.000 C 
ATOM     21  C   UNL     1      -0.263   9.755  22.126  0.00  0.00    +0.000 C 
ENDBRANCH  19  21
ENDBRANCH  18  19
ENDBRANCH  13  18
ENDBRANCH  12  16
ENDBRANCH   1  12
BRANCH   1  22
ATOM     22  C   UNL     1       5.184   4.511  17.995  0.00  0.00    +0.000 C 
BRANCH  22  23
ATOM     23  N   UNL     1       5.497   4.647  16.551  0.00  0.00    +0.000 N 
ATOM     24  C   UNL     1       5.681   3.696  15.605  0.00  0.00    +0.000 A 
ATOM     25  N   UNL     1       5.935   4.340  14.449  0.00  0.00    +0.000 N 
ATOM     26  C   UNL     1       5.583   5.644  14.703  0.00  0.00    +0.000 A 
ATOM     27  N   UNL     1       5.322   5.871  15.944  0.00  0.00    +0.000 NA
BRANCH  25  28
ATOM     28  C   UNL     1       6.733   3.840  13.316  0.00  0.00    +0.000 C 
BRANCH  28  29
ATOM     29  C   UNL     1       6.041   3.041  12.210  0.00  0.00    +0.000 C 
BRANCH  29  30
ATOM     30  C   UNL     1       6.862   2.068  11.356  0.00  0.00    +0.000 C 
ATOM     31  C   UNL     1       6.139   0.813  10.882  0.00  0.00    +0.000 C 
ENDBRANCH  29  30
ENDBRANCH  28  29
ENDBRANCH  25  28
ENDBRANCH  22  23
ENDBRANCH   1  22
TORSDOF 12
ENDMDL
MODEL 4
REMARK VINA RESULT:      -6.8      3.425      4.637
REMARK  Name = 
REMARK  14 active torsions:
REMARK  status: ('A' for Active; 'I' for Inactive)
REMARK    1  A    between atoms: C_1  and  C_2
REMARK    2  A    between atoms: C_2  and  C_3
REMARK    3  A    between atoms: C_3  and  C_4
REMARK    4  A    between atoms: C_4  and  N_5
REMARK    5  A    between atoms: N_8  and  C_9
REMARK    6  A    between atoms: C_9  and  C_10
REMARK    7  A    between atoms: C_10  and  O_11
REMARK    8  A    between atoms: C_10  and  C_12
REMARK    9  A    between atoms: C_10  and  C_22
REMARK   10  A    between atoms: C_12  and  N_13
REMARK   11  A    between atoms: N_15  and  C_16
REMARK   12  A    between atoms: C_16  and  C_17
REMARK   13  A    between atoms: C_17  and  C_18
REMARK   14  A    between atoms: C_18  and  C_19
REMARK                            x       y       z     vdW  Elec       q    Type
REMARK                         _______ _______ _______ _____ _____    ______ ____
ROOT
ATOM      1  C   UNL     1       4.947   4.868  17.257  0.00  0.00    +0.000 C 
ENDROOT
BRANCH   1   2
ATOM      2  C   UNL     1       3.671   4.097  17.679  0.00  0.00    +0.000 A 
ATOM      3  C   UNL     1       3.713   2.689  17.832  0.00  0.00    +0.000 A 
ATOM      4  C   UNL     1       2.564   1.953  18.142  0.00  0.00    +0.000 A 
ATOM      5  C   UNL     1       1.360   2.610  18.343  0.00  0.00    +0.000 A 
ATOM      6  F   UNL     1       0.262   1.901  18.630  0.00  0.00    +0.000 F 
ATOM      7  C   UNL     1       1.291   3.990  18.260  0.00  0.00    +0.000 A 
ATOM      8  C   UNL     1       2.440   4.715  17.944  0.00  0.00    +0.000 A 
ATOM      9  F   UNL     1       2.336   6.041  17.906  0.00  0.00    +0.000 F 
ENDBRANCH   1   2
BRANCH   1  10
ATOM     10  O   UNL     1       4.457   5.805  16.251  0.00  0.00    +0.000 OA
ATOM     11  H   UNL     1       5.187   6.164  15.714  0.00  0.00    +0.000 HD
ENDBRANCH   1  10
BRANCH   1  12
ATOM     12  C   UNL     1       5.399   5.749  18.456  0.00  0.00    +0.000 C 
BRANCH  12  16
ATOM     13  N   UNL     1       8.151   8.002  18.179  0.00  0.00    +0.000 N 
ATOM     14  C   UNL     1       8.529   7.041  19.088  0.00  0.00    +0.000 A 
ATOM     15  N   UNL     1       7.682   6.082  19.200  0.00  0.00    +0.000 NA
ATOM     16  N   UNL     1       6.699   6.419  18.308  0.00  0.00    +0.000 N 
ATOM     17  C   UNL     1       6.996   7.557  17.656  0.00  0.00    +0.000 A 
BRANCH  13  18
ATOM     18  C   UNL     1       8.896   9.223  17.864  0.00  0.00    +0.000 C 
BRANCH  18  19
ATOM     19  C   UNL     1       8.088  10.512  17.982  0.00  0.00    +0.000 C 
BRANCH  19  21
ATOM     20  C   UNL     1       8.157  13.015  17.625  0.00  0.00    +0.000 C 
ATOM     21  C   UNL     1       8.960  11.770  17.977  0.00  0.00    +0.000 C 
ENDBRANCH  19  21
ENDBRANCH  18  19
ENDBRANCH  13  18
ENDBRANCH  12  16
ENDBRANCH   1  12
BRANCH   1  22
ATOM     22  C   UNL     1       6.148   4.035  16.646  0.00  0.00    +0.000 C 
BRANCH  22  23
ATOM     23  N   UNL     1       6.490   4.159  15.206  0.00  0.00    +0.000 N 
ATOM     24  C   UNL     1       5.878   3.637  14.117  0.00  0.00    +0.000 A 
ATOM     25  N   UNL     1       6.577   4.051  13.042  0.00  0.00    +0.000 N 
ATOM     26  C   UNL     1       7.386   5.050  13.528  0.00  0.00    +0.000 A 
ATOM     27  N   UNL     1       7.369   5.142  14.812  0.00  0.00    +0.000 NA
BRANCH  25  28
ATOM     28  C   UNL     1       6.702   3.357  11.748  0.00  0.00    +0.000 C 
BRANCH  28  29
ATOM     29  C   UNL     1       5.919   2.064  11.515  0.00  0.00    +0.000 C 
BRANCH  29  30
ATOM     30  C   UNL     1       6.643   0.833  10.961  0.00  0.00    +0.000 C 
ATOM     31  C   UNL     1       6.061  -0.522  11.348  0.00  0.00    +0.000 C 
ENDBRANCH  29  30
ENDBRANCH  28  29
ENDBRANCH  25  28
ENDBRANCH  22  23
ENDBRANCH   1  22
TORSDOF 12
ENDMDL
MODEL 5
REMARK VINA RESULT:      -6.7      3.141      7.384
REMARK  Name = 
REMARK  14 active torsions:
REMARK  status: ('A' for Active; 'I' for Inactive)
REMARK    1  A    between atoms: C_1  and  C_2
REMARK    2  A    between atoms: C_2  and  C_3
REMARK    3  A    between atoms: C_3  and  C_4
REMARK    4  A    between atoms: C_4  and  N_5
REMARK    5  A    between atoms: N_8  and  C_9
REMARK    6  A    between atoms: C_9  and  C_10
REMARK    7  A    between atoms: C_10  and  O_11
REMARK    8  A    between atoms: C_10  and  C_12
REMARK    9  A    between atoms: C_10  and  C_22
REMARK   10  A    between atoms: C_12  and  N_13
REMARK   11  A    between atoms: N_15  and  C_16
REMARK   12  A    between atoms: C_16  and  C_17
REMARK   13  A    between atoms: C_17  and  C_18
REMARK   14  A    between atoms: C_18  and  C_19
REMARK                            x       y       z     vdW  Elec       q    Type
REMARK                         _______ _______ _______ _____ _____    ______ ____
ROOT
ATOM      1  C   UNL     1       3.975   5.867  18.224  0.00  0.00    +0.000 C 
ENDROOT
BRANCH   1   2
ATOM      2  C   UNL     1       3.196   4.538  18.388  0.00  0.00    +0.000 A 
ATOM      3  C   UNL     1       1.842   4.456  17.978  0.00  0.00    +0.000 A 
ATOM      4  C   UNL     1       1.089   3.293  18.176  0.00  0.00    +0.000 A 
ATOM      5  C   UNL     1       1.681   2.179  18.750  0.00  0.00    +0.000 A 
ATOM      6  F   UNL     1       0.953   1.073  18.946  0.00  0.00    +0.000 F 
ATOM      7  C   UNL     1       3.017   2.200  19.109  0.00  0.00    +0.000 A 
ATOM      8  C   UNL     1       3.759   3.366  18.915  0.00  0.00    +0.000 A 
ATOM      9  F   UNL     1       5.048   3.333  19.244  0.00  0.00    +0.000 F 
ENDBRANCH   1   2
BRANCH   1  10
ATOM     10  O   UNL     1       4.695   5.993  19.488  0.00  0.00    +0.000 OA
ATOM     11  H   UNL     1       4.597   5.191  20.034  0.00  0.00    +0.000 HD
ENDBRANCH   1  10
BRANCH   1  12
ATOM     12  C   UNL     1       5.071   5.657  17.143  0.00  0.00    +0.000 C 
BRANCH  12  16
ATOM     13  N   UNL     1       7.640   8.045  17.796  0.00  0.00    +0.000 N 
ATOM     14  C   UNL     1       7.995   6.902  18.474  0.00  0.00    +0.000 A 
ATOM     15  N   UNL     1       7.223   5.904  18.231  0.00  0.00    +0.000 NA
ATOM     16  N   UNL     1       6.320   6.410  17.336  0.00  0.00    +0.000 N 
ATOM     17  C   UNL     1       6.591   7.692  17.035  0.00  0.00    +0.000 A 
BRANCH  13  18
ATOM     18  C   UNL     1       8.310   9.343  17.896  0.00  0.00    +0.000 C 
BRANCH  18  19
ATOM     19  C   UNL     1       9.143   9.536  19.160  0.00  0.00    +0.000 C 
BRANCH  19  21
ATOM     20  C   UNL     1       9.417  11.537  20.682  0.00  0.00    +0.000 C 
ATOM     21  C   UNL     1       9.697  10.956  19.303  0.00  0.00    +0.000 C 
ENDBRANCH  19  21
ENDBRANCH  18  19
ENDBRANCH  13  18
ENDBRANCH  12  16
ENDBRANCH   1  12
BRANCH   1  22
ATOM     22  C   UNL     1       3.138   7.190  17.974  0.00  0.00    +0.000 C 
BRANCH  22  23
ATOM     23  N   UNL     1       2.366   7.808  19.080  0.00  0.00    +0.000 N 
ATOM     24  C   UNL     1       1.581   8.912  19.084  0.00  0.00    +0.000 A 
ATOM     25  N   UNL     1       1.101   9.045  20.336  0.00  0.00    +0.000 N 
ATOM     26  C   UNL     1       1.379   7.838  20.935  0.00  0.00    +0.000 A 
ATOM     27  N   UNL     1       2.135   7.077  20.223  0.00  0.00    +0.000 NA
BRANCH  25  28
ATOM     28  C   UNL     1       0.707  10.298  21.004  0.00  0.00    +0.000 C 
BRANCH  28  29
ATOM     29  C   UNL     1      -0.288  10.245  22.164  0.00  0.00    +0.000 C 
BRANCH  29  30
ATOM     30  C   UNL     1      -0.900  11.547  22.692  0.00  0.00    +0.000 C 
ATOM     31  C   UNL     1      -0.399  12.835  22.051  0.00  0.00    +0.000 C 
ENDBRANCH  29  30
ENDBRANCH  28  29
ENDBRANCH  25  28
ENDBRANCH  22  23
ENDBRANCH   1  22
TORSDOF 12
ENDMDL
MODEL 6
REMARK VINA RESULT:      -6.7      1.172      1.475
REMARK  Name = 
REMARK  14 active torsions:
REMARK  status: ('A' for Active; 'I' for Inactive)
REMARK    1  A    between atoms: C_1  and  C_2
REMARK    2  A    between atoms: C_2  and  C_3
REMARK    3  A    between atoms: C_3  and  C_4
REMARK    4  A    between atoms: C_4  and  N_5
REMARK    5  A    between atoms: N_8  and  C_9
REMARK    6  A    between atoms: C_9  and  C_10
REMARK    7  A    between atoms: C_10  and  O_11
REMARK    8  A    between atoms: C_10  and  C_12
REMARK    9  A    between atoms: C_10  and  C_22
REMARK   10  A    between atoms: C_12  and  N_13
REMARK   11  A    between atoms: N_15  and  C_16
REMARK   12  A    between atoms: C_16  and  C_17
REMARK   13  A    between atoms: C_17  and  C_18
REMARK   14  A    between atoms: C_18  and  C_19
REMARK                            x       y       z     vdW  Elec       q    Type
REMARK                         _______ _______ _______ _____ _____    ______ ____
ROOT
ATOM      1  C   UNL     1       3.044   4.592  17.898  0.00  0.00    +0.000 C 
ENDROOT
BRANCH   1   2
ATOM      2  C   UNL     1       2.572   3.850  19.173  0.00  0.00    +0.000 A 
ATOM      3  C   UNL     1       1.191   3.791  19.487  0.00  0.00    +0.000 A 
ATOM      4  C   UNL     1       0.736   3.191  20.667  0.00  0.00    +0.000 A 
ATOM      5  C   UNL     1       1.644   2.606  21.535  0.00  0.00    +0.000 A 
ATOM      6  F   UNL     1       1.203   2.042  22.667  0.00  0.00    +0.000 F 
ATOM      7  C   UNL     1       2.995   2.591  21.235  0.00  0.00    +0.000 A 
ATOM      8  C   UNL     1       3.441   3.197  20.060  0.00  0.00    +0.000 A 
ATOM      9  F   UNL     1       4.743   3.132  19.794  0.00  0.00    +0.000 F 
ENDBRANCH   1   2
BRANCH   1  10
ATOM     10  O   UNL     1       1.821   5.210  17.396  0.00  0.00    +0.000 OA
ATOM     11  H   UNL     1       1.104   4.556  17.305  0.00  0.00    +0.000 HD
ENDBRANCH   1  10
BRANCH   1  12
ATOM     12  C   UNL     1       3.955   5.774  18.334  0.00  0.00    +0.000 C 
BRANCH  12  16
ATOM     13  N   UNL     1       1.987   8.749  18.405  0.00  0.00    +0.000 N 
ATOM     14  C   UNL     1       1.751   8.102  19.594  0.00  0.00    +0.000 A 
ATOM     15  N   UNL     1       2.492   7.067  19.770  0.00  0.00    +0.000 NA
ATOM     16  N   UNL     1       3.269   7.037  18.643  0.00  0.00    +0.000 N 
ATOM     17  C   UNL     1       2.999   8.075  17.831  0.00  0.00    +0.000 A 
BRANCH  13  18
ATOM     18  C   UNL     1       1.277   9.933  17.918  0.00  0.00    +0.000 C 
BRANCH  18  19
ATOM     19  C   UNL     1      -0.214   9.962  18.241  0.00  0.00    +0.000 C 
BRANCH  19  21
ATOM     20  C   UNL     1      -0.980  11.310  20.239  0.00  0.00    +0.000 C 
ATOM     21  C   UNL     1      -0.693  11.326  18.744  0.00  0.00    +0.000 C 
ENDBRANCH  19  21
ENDBRANCH  18  19
ENDBRANCH  13  18
ENDBRANCH  12  16
ENDBRANCH   1  12
BRANCH   1  22
ATOM     22  C   UNL     1       3.700   3.731  16.740  0.00  0.00    +0.000 C 
BRANCH  22  23
ATOM     23  N   UNL     1       5.005   4.130  16.157  0.00  0.00    +0.000 N 
ATOM     24  C   UNL     1       5.280   4.922  15.093  0.00  0.00    +0.000 A 
ATOM     25  N   UNL     1       6.622   4.973  14.982  0.00  0.00    +0.000 N 
ATOM     26  C   UNL     1       7.081   4.459  16.172  0.00  0.00    +0.000 A 
ATOM     27  N   UNL     1       6.151   3.941  16.897  0.00  0.00    +0.000 NA
BRANCH  25  28
ATOM     28  C   UNL     1       7.399   5.187  13.748  0.00  0.00    +0.000 C 
BRANCH  28  29
ATOM     29  C   UNL     1       7.023   4.411  12.485  0.00  0.00    +0.000 C 
BRANCH  29  30
ATOM     30  C   UNL     1       6.055   3.227  12.587  0.00  0.00    +0.000 C 
ATOM     31  C   UNL     1       4.794   3.313  11.736  0.00  0.00    +0.000 C 
ENDBRANCH  29  30
ENDBRANCH  28  29
ENDBRANCH  25  28
ENDBRANCH  22  23
ENDBRANCH   1  22
TORSDOF 12
ENDMDL
MODEL 7
REMARK VINA RESULT:      -6.7      2.417      3.713
REMARK  Name = 
REMARK  14 active torsions:
REMARK  status: ('A' for Active; 'I' for Inactive)
REMARK    1  A    between atoms: C_1  and  C_2
REMARK    2  A    between atoms: C_2  and  C_3
REMARK    3  A    between atoms: C_3  and  C_4
REMARK    4  A    between atoms: C_4  and  N_5
REMARK    5  A    between atoms: N_8  and  C_9
REMARK    6  A    between atoms: C_9  and  C_10
REMARK    7  A    between atoms: C_10  and  O_11
REMARK    8  A    between atoms: C_10  and  C_12
REMARK    9  A    between atoms: C_10  and  C_22
REMARK   10  A    between atoms: C_12  and  N_13
REMARK   11  A    between atoms: N_15  and  C_16
REMARK   12  A    between atoms: C_16  and  C_17
REMARK   13  A    between atoms: C_17  and  C_18
REMARK   14  A    between atoms: C_18  and  C_19
REMARK                            x       y       z     vdW  Elec       q    Type
REMARK                         _______ _______ _______ _____ _____    ______ ____
ROOT
ATOM      1  C   UNL     1       2.566   5.323  18.156  0.00  0.00    +0.000 C 
ENDROOT
BRANCH   1   2
ATOM      2  C   UNL     1       2.190   4.367  19.315  0.00  0.00    +0.000 A 
ATOM      3  C   UNL     1       2.419   4.758  20.658  0.00  0.00    +0.000 A 
ATOM      4  C   UNL     1       2.156   3.892  21.725  0.00  0.00    +0.000 A 
ATOM      5  C   UNL     1       1.625   2.636  21.477  0.00  0.00    +0.000 A 
ATOM      6  F   UNL     1       1.386   1.808  22.502  0.00  0.00    +0.000 F 
ATOM      7  C   UNL     1       1.332   2.239  20.184  0.00  0.00    +0.000 A 
ATOM      8  C   UNL     1       1.603   3.106  19.125  0.00  0.00    +0.000 A 
ATOM      9  F   UNL     1       1.277   2.699  17.901  0.00  0.00    +0.000 F 
ENDBRANCH   1   2
BRANCH   1  10
ATOM     10  O   UNL     1       1.276   5.645  17.553  0.00  0.00    +0.000 OA
ATOM     11  H   UNL     1       0.541   5.447  18.161  0.00  0.00    +0.000 HD
ENDBRANCH   1  10
BRANCH   1  12
ATOM     12  C   UNL     1       3.079   6.654  18.773  0.00  0.00    +0.000 C 
BRANCH  12  16
ATOM     13  N   UNL     1       1.175   9.643  19.186  0.00  0.00    +0.000 N 
ATOM     14  C   UNL     1       1.660   9.670  17.900  0.00  0.00    +0.000 A 
ATOM     15  N   UNL     1       2.267   8.590  17.560  0.00  0.00    +0.000 NA
ATOM     16  N   UNL     1       2.166   7.803  18.675  0.00  0.00    +0.000 N 
ATOM     17  C   UNL     1       1.469   8.416  19.649  0.00  0.00    +0.000 A 
BRANCH  13  18
ATOM     18  C   UNL     1       0.471  10.737  19.859  0.00  0.00    +0.000 C 
BRANCH  18  19
ATOM     19  C   UNL     1       1.372  11.856  20.373  0.00  0.00    +0.000 C 
BRANCH  19  21
ATOM     20  C   UNL     1       2.466  13.179  18.515  0.00  0.00    +0.000 C 
ATOM     21  C   UNL     1       1.313  13.118  19.509  0.00  0.00    +0.000 C 
ENDBRANCH  19  21
ENDBRANCH  18  19
ENDBRANCH  13  18
ENDBRANCH  12  16
ENDBRANCH   1  12
BRANCH   1  22
ATOM     22  C   UNL     1       3.539   4.776  17.030  0.00  0.00    +0.000 C 
BRANCH  22  23
ATOM     23  N   UNL     1       5.007   4.770  17.247  0.00  0.00    +0.000 N 
ATOM     24  C   UNL     1       5.721   4.936  18.386  0.00  0.00    +0.000 A 
ATOM     25  N   UNL     1       7.022   4.839  18.048  0.00  0.00    +0.000 N 
ATOM     26  C   UNL     1       7.004   4.312  16.778  0.00  0.00    +0.000 A 
ATOM     27  N   UNL     1       5.825   4.262  16.263  0.00  0.00    +0.000 NA
BRANCH  25  28
ATOM     28  C   UNL     1       8.162   5.477  18.729  0.00  0.00    +0.000 C 
BRANCH  28  29
ATOM     29  C   UNL     1       8.137   6.987  18.971  0.00  0.00    +0.000 C 
BRANCH  29  30
ATOM     30  C   UNL     1       7.932   7.937  17.787  0.00  0.00    +0.000 C 
ATOM     31  C   UNL     1       8.366   9.382  18.000  0.00  0.00    +0.000 C 
ENDBRANCH  29  30
ENDBRANCH  28  29
ENDBRANCH  25  28
ENDBRANCH  22  23
ENDBRANCH   1  22
TORSDOF 12
ENDMDL
MODEL 8
REMARK VINA RESULT:      -6.7      2.142      3.009
REMARK  Name = 
REMARK  14 active torsions:
REMARK  status: ('A' for Active; 'I' for Inactive)
REMARK    1  A    between atoms: C_1  and  C_2
REMARK    2  A    between atoms: C_2  and  C_3
REMARK    3  A    between atoms: C_3  and  C_4
REMARK    4  A    between atoms: C_4  and  N_5
REMARK    5  A    between atoms: N_8  and  C_9
REMARK    6  A    between atoms: C_9  and  C_10
REMARK    7  A    between atoms: C_10  and  O_11
REMARK    8  A    between atoms: C_10  and  C_12
REMARK    9  A    between atoms: C_10  and  C_22
REMARK   10  A    between atoms: C_12  and  N_13
REMARK   11  A    between atoms: N_15  and  C_16
REMARK   12  A    between atoms: C_16  and  C_17
REMARK   13  A    between atoms: C_17  and  C_18
REMARK   14  A    between atoms: C_18  and  C_19
REMARK                            x       y       z     vdW  Elec       q    Type
REMARK                         _______ _______ _______ _____ _____    ______ ____
ROOT
ATOM      1  C   UNL     1       2.841   6.215  18.364  0.00  0.00    +0.000 C 
ENDROOT
BRANCH   1   2
ATOM      2  C   UNL     1       3.122   4.692  18.406  0.00  0.00    +0.000 A 
ATOM      3  C   UNL     1       2.322   3.804  17.645  0.00  0.00    +0.000 A 
ATOM      4  C   UNL     1       2.502   2.418  17.714  0.00  0.00    +0.000 A 
ATOM      5  C   UNL     1       3.506   1.894  18.512  0.00  0.00    +0.000 A 
ATOM      6  F   UNL     1       3.668   0.567  18.582  0.00  0.00    +0.000 F 
ATOM      7  C   UNL     1       4.347   2.731  19.225  0.00  0.00    +0.000 A 
ATOM      8  C   UNL     1       4.156   4.112  19.155  0.00  0.00    +0.000 A 
ATOM      9  F   UNL     1       5.006   4.882  19.830  0.00  0.00    +0.000 F 
ENDBRANCH   1   2
BRANCH   1  10
ATOM     10  O   UNL     1       1.614   6.309  17.579  0.00  0.00    +0.000 OA
ATOM     11  H   UNL     1       1.737   6.874  16.794  0.00  0.00    +0.000 HD
ENDBRANCH   1  10
BRANCH   1  12
ATOM     12  C   UNL     1       2.451   6.676  19.797  0.00  0.00    +0.000 C 
BRANCH  12  16
ATOM     13  N   UNL     1       0.620   9.720  19.467  0.00  0.00    +0.000 N 
ATOM     14  C   UNL     1       0.551   9.370  20.795  0.00  0.00    +0.000 A 
ATOM     15  N   UNL     1       1.275   8.352  21.094  0.00  0.00    +0.000 NA
ATOM     16  N   UNL     1       1.864   8.020  19.904  0.00  0.00    +0.000 N 
ATOM     17  C   UNL     1       1.506   8.868  18.924  0.00  0.00    +0.000 A 
BRANCH  13  18
ATOM     18  C   UNL     1      -0.117  10.813  18.829  0.00  0.00    +0.000 C 
BRANCH  18  19
ATOM     19  C   UNL     1      -1.564  10.484  18.470  0.00  0.00    +0.000 C 
BRANCH  19  21
ATOM     20  C   UNL     1      -3.731  11.468  17.614  0.00  0.00    +0.000 C 
ATOM     21  C   UNL     1      -2.467  11.719  18.426  0.00  0.00    +0.000 C 
ENDBRANCH  19  21
ENDBRANCH  18  19
ENDBRANCH  13  18
ENDBRANCH  12  16
ENDBRANCH   1  12
BRANCH   1  22
ATOM     22  C   UNL     1       3.941   7.154  17.717  0.00  0.00    +0.000 C 
BRANCH  22  23
ATOM     23  N   UNL     1       5.121   6.566  17.034  0.00  0.00    +0.000 N 
ATOM     24  C   UNL     1       5.259   6.118  15.764  0.00  0.00    +0.000 A 
ATOM     25  N   UNL     1       6.530   5.685  15.640  0.00  0.00    +0.000 N 
ATOM     26  C   UNL     1       7.168   6.185  16.751  0.00  0.00    +0.000 A 
ATOM     27  N   UNL     1       6.364   6.710  17.609  0.00  0.00    +0.000 NA
BRANCH  25  28
ATOM     28  C   UNL     1       7.022   4.636  14.730  0.00  0.00    +0.000 C 
BRANCH  28  29
ATOM     29  C   UNL     1       6.015   3.817  13.921  0.00  0.00    +0.000 C 
BRANCH  29  30
ATOM     30  C   UNL     1       6.307   3.502  12.450  0.00  0.00    +0.000 C 
ATOM     31  C   UNL     1       7.287   4.431  11.744  0.00  0.00    +0.000 C 
ENDBRANCH  29  30
ENDBRANCH  28  29
ENDBRANCH  25  28
ENDBRANCH  22  23
ENDBRANCH   1  22
TORSDOF 12
ENDMDL
MODEL 9
REMARK VINA RESULT:      -6.6      2.458      3.635
REMARK  Name = 
REMARK  14 active torsions:
REMARK  status: ('A' for Active; 'I' for Inactive)
REMARK    1  A    between atoms: C_1  and  C_2
REMARK    2  A    between atoms: C_2  and  C_3
REMARK    3  A    between atoms: C_3  and  C_4
REMARK    4  A    between atoms: C_4  and  N_5
REMARK    5  A    between atoms: N_8  and  C_9
REMARK    6  A    between atoms: C_9  and  C_10
REMARK    7  A    between atoms: C_10  and  O_11
REMARK    8  A    between atoms: C_10  and  C_12
REMARK    9  A    between atoms: C_10  and  C_22
REMARK   10  A    between atoms: C_12  and  N_13
REMARK   11  A    between atoms: N_15  and  C_16
REMARK   12  A    between atoms: C_16  and  C_17
REMARK   13  A    between atoms: C_17  and  C_18
REMARK   14  A    between atoms: C_18  and  C_19
REMARK                            x       y       z     vdW  Elec       q    Type
REMARK                         _______ _______ _______ _____ _____    ______ ____
ROOT
ATOM      1  C   UNL     1       2.762   5.286  18.295  0.00  0.00    +0.000 C 
ENDROOT
BRANCH   1   2
ATOM      2  C   UNL     1       2.299   4.329  19.421  0.00  0.00    +0.000 A 
ATOM      3  C   UNL     1       2.478   4.694  20.779  0.00  0.00    +0.000 A 
ATOM      4  C   UNL     1       2.136   3.823  21.820  0.00  0.00    +0.000 A 
ATOM      5  C   UNL     1       1.575   2.590  21.529  0.00  0.00    +0.000 A 
ATOM      6  F   UNL     1       1.259   1.758  22.529  0.00  0.00    +0.000 F 
ATOM      7  C   UNL     1       1.329   2.221  20.218  0.00  0.00    +0.000 A 
ATOM      8  C   UNL     1       1.679   3.092  19.185  0.00  0.00    +0.000 A 
ATOM      9  F   UNL     1       1.397   2.713  17.942  0.00  0.00    +0.000 F 
ENDBRANCH   1   2
BRANCH   1  10
ATOM     10  O   UNL     1       1.532   5.560  17.559  0.00  0.00    +0.000 OA
ATOM     11  H   UNL     1       1.097   6.370  17.883  0.00  0.00    +0.000 HD
ENDBRANCH   1  10
BRANCH   1  12
ATOM     12  C   UNL     1       3.165   6.640  18.945  0.00  0.00    +0.000 C 
BRANCH  12  16
ATOM     13  N   UNL     1       1.205   9.621  18.996  0.00  0.00    +0.000 N 
ATOM     14  C   UNL     1       1.837   9.595  17.774  0.00  0.00    +0.000 A 
ATOM     15  N   UNL     1       2.486   8.508  17.557  0.00  0.00    +0.000 NA
ATOM     16  N   UNL     1       2.261   7.771  18.689  0.00  0.00    +0.000 N 
ATOM     17  C   UNL     1       1.452   8.420  19.546  0.00  0.00    +0.000 A 
BRANCH  13  18
ATOM     18  C   UNL     1       0.420  10.735  19.531  0.00  0.00    +0.000 C 
BRANCH  18  19
ATOM     19  C   UNL     1      -0.481  10.374  20.708  0.00  0.00    +0.000 C 
BRANCH  19  21
ATOM     20  C   UNL     1      -0.633   9.845  23.177  0.00  0.00    +0.000 C 
ATOM     21  C   UNL     1       0.267  10.315  22.042  0.00  0.00    +0.000 C 
ENDBRANCH  19  21
ENDBRANCH  18  19
ENDBRANCH  13  18
ENDBRANCH  12  16
ENDBRANCH   1  12
BRANCH   1  22
ATOM     22  C   UNL     1       3.863   4.762  17.282  0.00  0.00    +0.000 C 
BRANCH  22  23
ATOM     23  N   UNL     1       5.288   5.136  17.465  0.00  0.00    +0.000 N 
ATOM     24  C   UNL     1       5.869   5.926  18.399  0.00  0.00    +0.000 A 
ATOM     25  N   UNL     1       7.189   5.940  18.130  0.00  0.00    +0.000 N 
ATOM     26  C   UNL     1       7.364   4.911  17.236  0.00  0.00    +0.000 A 
ATOM     27  N   UNL     1       6.257   4.410  16.809  0.00  0.00    +0.000 NA
BRANCH  25  28
ATOM     28  C   UNL     1       8.142   7.021  18.438  0.00  0.00    +0.000 C 
BRANCH  28  29
ATOM     29  C   UNL     1       8.119   8.298  17.597  0.00  0.00    +0.000 C 
BRANCH  29  30
ATOM     30  C   UNL     1       8.155   9.662  18.296  0.00  0.00    +0.000 C 
ATOM     31  C   UNL     1       9.490  10.395  18.276  0.00  0.00    +0.000 C 
ENDBRANCH  29  30
ENDBRANCH  28  29
ENDBRANCH  25  28
ENDBRANCH  22  23
ENDBRANCH   1  22
TORSDOF 12
ENDMDL
