MODEL 1
REMARK VINA RESULT:      -8.2      0.000      0.000
REMARK  Name = 
REMARK  5 active torsions:
REMARK  status: ('A' for Active; 'I' for Inactive)
REMARK    1  A    between atoms: C_1  and  O_2
REMARK    2  A    between atoms: O_2  and  C_3
REMARK    3  A    between atoms: C_7  and  C_8
REMARK    4  A    between atoms: C_13  and  C_14
REMARK    5  A    between atoms: C_18  and  C_19
REMARK                            x       y       z     vdW  Elec       q    Type
REMARK                         _______ _______ _______ _____ _____    ______ ____
ROOT
ATOM      1  C   UNL     1       2.658   6.971  18.591  0.00  0.00    +0.000 A 
ATOM      2  C   UNL     1       2.322   6.742  19.996  0.00  0.00    +0.000 A 
ATOM      3  C   UNL     1       1.624   7.639  20.715  0.00  0.00    +0.000 A 
ATOM      4  C   UNL     1       1.211   8.855  20.106  0.00  0.00    +0.000 A 
ATOM      5  N   UNL     1       0.610   9.920  20.581  0.00  0.00    +0.000 NA
ATOM      6  C   UNL     1       0.564  10.758  19.499  0.00  0.00    +0.000 A 
ATOM      7  N   UNL     1       1.061  10.254  18.366  0.00  0.00    +0.000 NA
ATOM      8  N   UNL     1       1.515   9.040  18.756  0.00  0.00    +0.000 N 
ATOM      9  C   UNL     1       2.228   8.106  18.010  0.00  0.00    +0.000 A 
ENDROOT
BRANCH   6  10
ATOM     10  C   UNL     1       0.128  12.187  19.594  0.00  0.00    +0.000 C 
ATOM     11  C   UNL     1      -0.237  12.561  21.038  0.00  0.00    +0.000 C 
ATOM     12  C   UNL     1      -1.613  12.046  21.456  0.00  0.00    +0.000 C 
ATOM     13  N   UNL     1      -2.638  12.442  20.491  0.00  0.00    +0.000 N 
ATOM     14  C   UNL     1      -3.898  12.937  20.788  0.00  0.00    +0.000 C 
ATOM     15  C   UNL     1      -4.289  13.209  22.219  0.00  0.00    +0.000 C 
ATOM     16  O   UNL     1      -4.726  13.189  19.906  0.00  0.00    +0.000 OA
ATOM     17  C   UNL     1      -2.368  12.036  19.110  0.00  0.00    +0.000 C 
ATOM     18  C   UNL     1      -1.010  12.544  18.635  0.00  0.00    +0.000 C 
ENDBRANCH   6  10
BRANCH   1  23
ATOM     19  C   UNL     1       5.228   5.624  16.199  0.00  0.00    +0.000 A 
ATOM     20  C   UNL     1       4.923   4.260  16.225  0.00  0.00    +0.000 A 
ATOM     21  C   UNL     1       3.884   3.777  17.022  0.00  0.00    +0.000 A 
ATOM     22  C   UNL     1       3.138   4.661  17.798  0.00  0.00    +0.000 A 
ATOM     23  C   UNL     1       3.438   6.027  17.782  0.00  0.00    +0.000 A 
ATOM     24  C   UNL     1       4.486   6.505  16.984  0.00  0.00    +0.000 A 
BRANCH  19  26
ATOM     25  C   UNL     1       6.992   4.898  14.784  0.00  0.00    +0.000 C 
ATOM     26  O   UNL     1       6.260   5.968  15.368  0.00  0.00    +0.000 OA
ENDBRANCH  19  26
ENDBRANCH   1  23
TORSDOF 3
ENDMDL
MODEL 2
REMARK VINA RESULT:      -8.1      2.336      9.570
REMARK  Name = 
REMARK  5 active torsions:
REMARK  status: ('A' for Active; 'I' for Inactive)
REMARK    1  A    between atoms: C_1  and  O_2
REMARK    2  A    between atoms: O_2  and  C_3
REMARK    3  A    between atoms: C_7  and  C_8
REMARK    4  A    between atoms: C_13  and  C_14
REMARK    5  A    between atoms: C_18  and  C_19
REMARK                            x       y       z     vdW  Elec       q    Type
REMARK                         _______ _______ _______ _____ _____    ______ ____
ROOT
ATOM      1  C   UNL     1       1.115   8.999  20.029  0.00  0.00    +0.000 A 
ATOM      2  C   UNL     1       1.285   9.505  18.667  0.00  0.00    +0.000 A 
ATOM      3  C   UNL     1       2.049   8.867  17.763  0.00  0.00    +0.000 A 
ATOM      4  C   UNL     1       2.728   7.676  18.136  0.00  0.00    +0.000 A 
ATOM      5  N   UNL     1       3.588   6.914  17.502  0.00  0.00    +0.000 NA
ATOM      6  C   UNL     1       3.912   5.968  18.437  0.00  0.00    +0.000 A 
ATOM      7  N   UNL     1       3.266   6.072  19.602  0.00  0.00    +0.000 NA
ATOM      8  N   UNL     1       2.527   7.194  19.431  0.00  0.00    +0.000 N 
ATOM      9  C   UNL     1       1.727   7.848  20.363  0.00  0.00    +0.000 A 
ENDROOT
BRANCH   6  10
ATOM     10  C   UNL     1       5.012   4.972  18.239  0.00  0.00    +0.000 C 
ATOM     11  C   UNL     1       6.300   5.656  17.756  0.00  0.00    +0.000 C 
ATOM     12  C   UNL     1       6.265   6.008  16.271  0.00  0.00    +0.000 C 
ATOM     13  N   UNL     1       5.904   4.844  15.462  0.00  0.00    +0.000 N 
ATOM     14  C   UNL     1       6.501   4.450  14.276  0.00  0.00    +0.000 C 
ATOM     15  C   UNL     1       7.708   5.188  13.752  0.00  0.00    +0.000 C 
ATOM     16  O   UNL     1       6.089   3.484  13.625  0.00  0.00    +0.000 OA
ATOM     17  C   UNL     1       4.640   4.207  15.839  0.00  0.00    +0.000 C 
ATOM     18  C   UNL     1       4.631   3.815  17.313  0.00  0.00    +0.000 C 
ENDBRANCH   6  10
BRANCH   1  23
ATOM     19  C   UNL     1      -1.161  11.504  21.668  0.00  0.00    +0.000 A 
ATOM     20  C   UNL     1      -1.214  11.000  22.971  0.00  0.00    +0.000 A 
ATOM     21  C   UNL     1      -0.513   9.844  23.317  0.00  0.00    +0.000 A 
ATOM     22  C   UNL     1       0.253   9.185  22.357  0.00  0.00    +0.000 A 
ATOM     23  C   UNL     1       0.309   9.680  21.050  0.00  0.00    +0.000 A 
ATOM     24  C   UNL     1      -0.402  10.838  20.707  0.00  0.00    +0.000 A 
BRANCH  19  26
ATOM     25  C   UNL     1      -2.680  12.699  20.286  0.00  0.00    +0.000 C 
ATOM     26  O   UNL     1      -1.883  12.649  21.463  0.00  0.00    +0.000 OA
ENDBRANCH  19  26
ENDBRANCH   1  23
TORSDOF 3
ENDMDL
MODEL 3
REMARK VINA RESULT:      -8.0      2.560      3.598
REMARK  Name = 
REMARK  5 active torsions:
REMARK  status: ('A' for Active; 'I' for Inactive)
REMARK    1  A    between atoms: C_1  and  O_2
REMARK    2  A    between atoms: O_2  and  C_3
REMARK    3  A    between atoms: C_7  and  C_8
REMARK    4  A    between atoms: C_13  and  C_14
REMARK    5  A    between atoms: C_18  and  C_19
REMARK                            x       y       z     vdW  Elec       q    Type
REMARK                         _______ _______ _______ _____ _____    ______ ____
ROOT
ATOM      1  C   UNL     1       2.592   7.053  18.690  0.00  0.00    +0.000 A 
ATOM      2  C   UNL     1       2.195   6.821  20.079  0.00  0.00    +0.000 A 
ATOM      3  C   UNL     1       1.520   7.742  20.789  0.00  0.00    +0.000 A 
ATOM      4  C   UNL     1       1.194   8.988  20.187  0.00  0.00    +0.000 A 
ATOM      5  N   UNL     1       0.633  10.076  20.659  0.00  0.00    +0.000 NA
ATOM      6  C   UNL     1       0.669  10.932  19.591  0.00  0.00    +0.000 A 
ATOM      7  N   UNL     1       1.178  10.419  18.467  0.00  0.00    +0.000 NA
ATOM      8  N   UNL     1       1.554   9.177  18.851  0.00  0.00    +0.000 N 
ATOM      9  C   UNL     1       2.242   8.218  18.114  0.00  0.00    +0.000 A 
ENDROOT
BRANCH   6  10
ATOM     10  C   UNL     1       0.305  12.380  19.696  0.00  0.00    +0.000 C 
ATOM     11  C   UNL     1       0.591  13.121  18.381  0.00  0.00    +0.000 C 
ATOM     12  C   UNL     1       2.071  13.442  18.188  0.00  0.00    +0.000 C 
ATOM     13  N   UNL     1       2.617  14.130  19.358  0.00  0.00    +0.000 N 
ATOM     14  C   UNL     1       3.459  15.231  19.345  0.00  0.00    +0.000 C 
ATOM     15  C   UNL     1       3.818  15.896  18.039  0.00  0.00    +0.000 C 
ATOM     16  O   UNL     1       3.923  15.712  20.384  0.00  0.00    +0.000 OA
ATOM     17  C   UNL     1       2.436  13.420  20.626  0.00  0.00    +0.000 C 
ATOM     18  C   UNL     1       0.967  13.093  20.878  0.00  0.00    +0.000 C 
ENDBRANCH   6  10
BRANCH   1  23
ATOM     19  C   UNL     1       5.188   5.603  16.389  0.00  0.00    +0.000 A 
ATOM     20  C   UNL     1       4.793   4.262  16.357  0.00  0.00    +0.000 A 
ATOM     21  C   UNL     1       3.685   3.828  17.086  0.00  0.00    +0.000 A 
ATOM     22  C   UNL     1       2.960   4.739  17.851  0.00  0.00    +0.000 A 
ATOM     23  C   UNL     1       3.349   6.082  17.892  0.00  0.00    +0.000 A 
ATOM     24  C   UNL     1       4.466   6.510  17.163  0.00  0.00    +0.000 A 
BRANCH  19  26
ATOM     25  C   UNL     1       6.661   4.933  14.649  0.00  0.00    +0.000 C 
ATOM     26  O   UNL     1       6.282   5.901  15.621  0.00  0.00    +0.000 OA
ENDBRANCH  19  26
ENDBRANCH   1  23
TORSDOF 3
ENDMDL
MODEL 4
REMARK VINA RESULT:      -7.9      1.040      1.767
REMARK  Name = 
REMARK  5 active torsions:
REMARK  status: ('A' for Active; 'I' for Inactive)
REMARK    1  A    between atoms: C_1  and  O_2
REMARK    2  A    between atoms: O_2  and  C_3
REMARK    3  A    between atoms: C_7  and  C_8
REMARK    4  A    between atoms: C_13  and  C_14
REMARK    5  A    between atoms: C_18  and  C_19
REMARK                            x       y       z     vdW  Elec       q    Type
REMARK                         _______ _______ _______ _____ _____    ______ ____
ROOT
ATOM      1  C   UNL     1       2.621   7.124  18.701  0.00  0.00    +0.000 A 
ATOM      2  C   UNL     1       2.235   6.858  20.087  0.00  0.00    +0.000 A 
ATOM      3  C   UNL     1       1.502   7.730  20.801  0.00  0.00    +0.000 A 
ATOM      4  C   UNL     1       1.101   8.957  20.207  0.00  0.00    +0.000 A 
ATOM      5  N   UNL     1       0.472  10.006  20.684  0.00  0.00    +0.000 NA
ATOM      6  C   UNL     1       0.459  10.869  19.622  0.00  0.00    +0.000 A 
ATOM      7  N   UNL     1       1.002  10.397  18.496  0.00  0.00    +0.000 NA
ATOM      8  N   UNL     1       1.453   9.179  18.873  0.00  0.00    +0.000 N 
ATOM      9  C   UNL     1       2.201   8.269  18.132  0.00  0.00    +0.000 A 
ENDROOT
BRANCH   6  10
ATOM     10  C   UNL     1       0.005  12.291  19.736  0.00  0.00    +0.000 C 
ATOM     11  C   UNL     1      -0.392  12.634  21.179  0.00  0.00    +0.000 C 
ATOM     12  C   UNL     1      -1.769  12.097  21.561  0.00  0.00    +0.000 C 
ATOM     13  N   UNL     1      -2.781  12.501  20.583  0.00  0.00    +0.000 N 
ATOM     14  C   UNL     1      -4.051  12.977  20.865  0.00  0.00    +0.000 C 
ATOM     15  C   UNL     1      -4.472  13.218  22.293  0.00  0.00    +0.000 C 
ATOM     16  O   UNL     1      -4.865  13.237  19.972  0.00  0.00    +0.000 OA
ATOM     17  C   UNL     1      -2.479  12.124  19.201  0.00  0.00    +0.000 C 
ATOM     18  C   UNL     1      -1.118  12.655  18.761  0.00  0.00    +0.000 C 
ENDBRANCH   6  10
BRANCH   1  23
ATOM     19  C   UNL     1       4.047   3.939  17.300  0.00  0.00    +0.000 A 
ATOM     20  C   UNL     1       4.991   4.446  16.401  0.00  0.00    +0.000 A 
ATOM     21  C   UNL     1       5.162   5.823  16.247  0.00  0.00    +0.000 A 
ATOM     22  C   UNL     1       4.388   6.705  16.999  0.00  0.00    +0.000 A 
ATOM     23  C   UNL     1       3.440   6.207  17.899  0.00  0.00    +0.000 A 
ATOM     24  C   UNL     1       3.269   4.825  18.044  0.00  0.00    +0.000 A 
BRANCH  19  26
ATOM     25  C   UNL     1       2.942   2.017  18.152  0.00  0.00    +0.000 C 
ATOM     26  O   UNL     1       3.988   2.574  17.365  0.00  0.00    +0.000 OA
ENDBRANCH  19  26
ENDBRANCH   1  23
TORSDOF 3
ENDMDL
MODEL 5
REMARK VINA RESULT:      -7.9      2.519      4.042
REMARK  Name = 
REMARK  5 active torsions:
REMARK  status: ('A' for Active; 'I' for Inactive)
REMARK    1  A    between atoms: C_1  and  O_2
REMARK    2  A    between atoms: O_2  and  C_3
REMARK    3  A    between atoms: C_7  and  C_8
REMARK    4  A    between atoms: C_13  and  C_14
REMARK    5  A    between atoms: C_18  and  C_19
REMARK                            x       y       z     vdW  Elec       q    Type
REMARK                         _______ _______ _______ _____ _____    ______ ____
ROOT
ATOM      1  C   UNL     1       0.747   9.152  20.881  0.00  0.00    +0.000 A 
ATOM      2  C   UNL     1       0.768   8.859  22.315  0.00  0.00    +0.000 A 
ATOM      3  C   UNL     1       0.049   9.576  23.196  0.00  0.00    +0.000 A 
ATOM      4  C   UNL     1      -0.743  10.662  22.735  0.00  0.00    +0.000 A 
ATOM      5  N   UNL     1      -1.457  11.564  23.366  0.00  0.00    +0.000 NA
ATOM      6  C   UNL     1      -1.912  12.364  22.352  0.00  0.00    +0.000 A 
ATOM      7  N   UNL     1      -1.559  11.981  21.121  0.00  0.00    +0.000 NA
ATOM      8  N   UNL     1      -0.773  10.905  21.360  0.00  0.00    +0.000 N 
ATOM      9  C   UNL     1      -0.038  10.155  20.447  0.00  0.00    +0.000 A 
ENDROOT
BRANCH   6  10
ATOM     10  C   UNL     1      -2.629  13.655  22.593  0.00  0.00    +0.000 C 
ATOM     11  C   UNL     1      -3.349  13.645  23.950  0.00  0.00    +0.000 C 
ATOM     12  C   UNL     1      -4.653  12.852  23.925  0.00  0.00    +0.000 C 
ATOM     13  N   UNL     1      -5.516  13.292  22.828  0.00  0.00    +0.000 N 
ATOM     14  C   UNL     1      -6.882  13.516  22.896  0.00  0.00    +0.000 C 
ATOM     15  C   UNL     1      -7.604  13.406  24.216  0.00  0.00    +0.000 C 
ATOM     16  O   UNL     1      -7.544  13.828  21.900  0.00  0.00    +0.000 OA
ATOM     17  C   UNL     1      -4.893  13.243  21.504  0.00  0.00    +0.000 C 
ATOM     18  C   UNL     1      -3.593  14.040  21.468  0.00  0.00    +0.000 C 
ENDBRANCH   6  10
BRANCH   1  23
ATOM     19  C   UNL     1       2.852   6.455  19.320  0.00  0.00    +0.000 A 
ATOM     20  C   UNL     1       3.048   6.981  18.040  0.00  0.00    +0.000 A 
ATOM     21  C   UNL     1       2.494   8.211  17.682  0.00  0.00    +0.000 A 
ATOM     22  C   UNL     1       1.740   8.927  18.610  0.00  0.00    +0.000 A 
ATOM     23  C   UNL     1       1.535   8.407  19.892  0.00  0.00    +0.000 A 
ATOM     24  C   UNL     1       2.089   7.169  20.243  0.00  0.00    +0.000 A 
BRANCH  19  26
ATOM     25  C   UNL     1       4.784   5.099  19.051  0.00  0.00    +0.000 C 
ATOM     26  O   UNL     1       3.459   5.249  19.548  0.00  0.00    +0.000 OA
ENDBRANCH  19  26
ENDBRANCH   1  23
TORSDOF 3
ENDMDL
MODEL 6
REMARK VINA RESULT:      -7.8      2.743      3.981
REMARK  Name = 
REMARK  5 active torsions:
REMARK  status: ('A' for Active; 'I' for Inactive)
REMARK    1  A    between atoms: C_1  and  O_2
REMARK    2  A    between atoms: O_2  and  C_3
REMARK    3  A    between atoms: C_7  and  C_8
REMARK    4  A    between atoms: C_13  and  C_14
REMARK    5  A    between atoms: C_18  and  C_19
REMARK                            x       y       z     vdW  Elec       q    Type
REMARK                         _______ _______ _______ _____ _____    ______ ____
ROOT
ATOM      1  C   UNL     1       2.600   7.132  18.747  0.00  0.00    +0.000 A 
ATOM      2  C   UNL     1       2.175   6.876  20.124  0.00  0.00    +0.000 A 
ATOM      3  C   UNL     1       1.474   7.780  20.830  0.00  0.00    +0.000 A 
ATOM      4  C   UNL     1       1.146   9.030  20.237  0.00  0.00    +0.000 A 
ATOM      5  N   UNL     1       0.562  10.105  20.711  0.00  0.00    +0.000 NA
ATOM      6  C   UNL     1       0.612  10.975  19.654  0.00  0.00    +0.000 A 
ATOM      7  N   UNL     1       1.152  10.484  18.536  0.00  0.00    +0.000 NA
ATOM      8  N   UNL     1       1.534   9.241  18.912  0.00  0.00    +0.000 N 
ATOM      9  C   UNL     1       2.249   8.300  18.178  0.00  0.00    +0.000 A 
ENDROOT
BRANCH   6  10
ATOM     10  C   UNL     1       0.228  12.418  19.770  0.00  0.00    +0.000 C 
ATOM     11  C   UNL     1       0.451  13.160  18.444  0.00  0.00    +0.000 C 
ATOM     12  C   UNL     1       1.918  13.504  18.194  0.00  0.00    +0.000 C 
ATOM     13  N   UNL     1       2.497  14.205  19.341  0.00  0.00    +0.000 N 
ATOM     14  C   UNL     1       3.319  15.318  19.293  0.00  0.00    +0.000 C 
ATOM     15  C   UNL     1       3.617  15.986  17.973  0.00  0.00    +0.000 C 
ATOM     16  O   UNL     1       3.815  15.810  20.313  0.00  0.00    +0.000 OA
ATOM     17  C   UNL     1       2.375  13.495  20.616  0.00  0.00    +0.000 C 
ATOM     18  C   UNL     1       0.923  13.145  20.924  0.00  0.00    +0.000 C 
ENDBRANCH   6  10
BRANCH   1  23
ATOM     19  C   UNL     1       3.939   3.886  17.399  0.00  0.00    +0.000 A 
ATOM     20  C   UNL     1       4.876   4.353  16.473  0.00  0.00    +0.000 A 
ATOM     21  C   UNL     1       5.072   5.721  16.283  0.00  0.00    +0.000 A 
ATOM     22  C   UNL     1       4.330   6.636  17.027  0.00  0.00    +0.000 A 
ATOM     23  C   UNL     1       3.387   6.180  17.953  0.00  0.00    +0.000 A 
ATOM     24  C   UNL     1       3.191   4.804  18.135  0.00  0.00    +0.000 A 
BRANCH  19  26
ATOM     25  C   UNL     1       2.593   1.990  17.884  0.00  0.00    +0.000 C 
ATOM     26  O   UNL     1       3.853   2.524  17.497  0.00  0.00    +0.000 OA
ENDBRANCH  19  26
ENDBRANCH   1  23
TORSDOF 3
ENDMDL
MODEL 7
REMARK VINA RESULT:      -7.7      2.472      3.249
REMARK  Name = 
REMARK  5 active torsions:
REMARK  status: ('A' for Active; 'I' for Inactive)
REMARK    1  A    between atoms: C_1  and  O_2
REMARK    2  A    between atoms: O_2  and  C_3
REMARK    3  A    between atoms: C_7  and  C_8
REMARK    4  A    between atoms: C_13  and  C_14
REMARK    5  A    between atoms: C_18  and  C_19
REMARK                            x       y       z     vdW  Elec       q    Type
REMARK                         _______ _______ _______ _____ _____    ______ ____
ROOT
ATOM      1  C   UNL     1       2.401   6.945  19.191  0.00  0.00    +0.000 A 
ATOM      2  C   UNL     1       1.844   6.999  20.543  0.00  0.00    +0.000 A 
ATOM      3  C   UNL     1       1.190   8.081  20.999  0.00  0.00    +0.000 A 
ATOM      4  C   UNL     1       1.044   9.217  20.158  0.00  0.00    +0.000 A 
ATOM      5  N   UNL     1       0.542  10.411  20.366  0.00  0.00    +0.000 NA
ATOM      6  C   UNL     1       0.766  11.053  19.178  0.00  0.00    +0.000 A 
ATOM      7  N   UNL     1       1.337  10.309  18.226  0.00  0.00    +0.000 NA
ATOM      8  N   UNL     1       1.554   9.133  18.861  0.00  0.00    +0.000 N 
ATOM      9  C   UNL     1       2.221   8.008  18.386  0.00  0.00    +0.000 A 
ENDROOT
BRANCH   6  10
ATOM     10  C   UNL     1       0.530  12.519  18.988  0.00  0.00    +0.000 C 
ATOM     11  C   UNL     1       1.852  13.273  18.784  0.00  0.00    +0.000 C 
ATOM     12  C   UNL     1       2.615  13.500  20.086  0.00  0.00    +0.000 C 
ATOM     13  N   UNL     1       1.759  14.121  21.097  0.00  0.00    +0.000 N 
ATOM     14  C   UNL     1       2.107  15.163  21.941  0.00  0.00    +0.000 C 
ATOM     15  C   UNL     1       3.449  15.837  21.802  0.00  0.00    +0.000 C 
ATOM     16  O   UNL     1       1.337  15.586  22.810  0.00  0.00    +0.000 OA
ATOM     17  C   UNL     1       0.520  13.392  21.380  0.00  0.00    +0.000 C 
ATOM     18  C   UNL     1      -0.292  13.157  20.111  0.00  0.00    +0.000 C 
ENDBRANCH   6  10
BRANCH   1  23
ATOM     19  C   UNL     1       5.218   4.556  18.488  0.00  0.00    +0.000 A 
ATOM     20  C   UNL     1       4.573   3.621  17.672  0.00  0.00    +0.000 A 
ATOM     21  C   UNL     1       3.223   3.765  17.352  0.00  0.00    +0.000 A 
ATOM     22  C   UNL     1       2.506   4.853  17.846  0.00  0.00    +0.000 A 
ATOM     23  C   UNL     1       3.141   5.791  18.666  0.00  0.00    +0.000 A 
ATOM     24  C   UNL     1       4.496   5.638  18.988  0.00  0.00    +0.000 A 
BRANCH  19  26
ATOM     25  C   UNL     1       7.450   4.689  17.686  0.00  0.00    +0.000 C 
ATOM     26  O   UNL     1       6.544   4.306  18.714  0.00  0.00    +0.000 OA
ENDBRANCH  19  26
ENDBRANCH   1  23
TORSDOF 3
ENDMDL
MODEL 8
REMARK VINA RESULT:      -7.7      2.988      4.063
REMARK  Name = 
REMARK  5 active torsions:
REMARK  status: ('A' for Active; 'I' for Inactive)
REMARK    1  A    between atoms: C_1  and  O_2
REMARK    2  A    between atoms: O_2  and  C_3
REMARK    3  A    between atoms: C_7  and  C_8
REMARK    4  A    between atoms: C_13  and  C_14
REMARK    5  A    between atoms: C_18  and  C_19
REMARK                            x       y       z     vdW  Elec       q    Type
REMARK                         _______ _______ _______ _____ _____    ______ ____
ROOT
ATOM      1  C   UNL     1       2.318   6.993  19.309  0.00  0.00    +0.000 A 
ATOM      2  C   UNL     1       1.754   6.996  20.659  0.00  0.00    +0.000 A 
ATOM      3  C   UNL     1       1.134   8.075  21.167  0.00  0.00    +0.000 A 
ATOM      4  C   UNL     1       1.032   9.257  20.386  0.00  0.00    +0.000 A 
ATOM      5  N   UNL     1       0.570  10.456  20.653  0.00  0.00    +0.000 NA
ATOM      6  C   UNL     1       0.825  11.151  19.501  0.00  0.00    +0.000 A 
ATOM      7  N   UNL     1       1.377  10.438  18.516  0.00  0.00    +0.000 NA
ATOM      8  N   UNL     1       1.550   9.224  19.089  0.00  0.00    +0.000 N 
ATOM      9  C   UNL     1       2.181   8.103  18.559  0.00  0.00    +0.000 A 
ENDROOT
BRANCH   6  10
ATOM     10  C   UNL     1       0.640  12.632  19.387  0.00  0.00    +0.000 C 
ATOM     11  C   UNL     1       1.372  13.190  18.157  0.00  0.00    +0.000 C 
ATOM     12  C   UNL     1       2.877  13.330  18.373  0.00  0.00    +0.000 C 
ATOM     13  N   UNL     1       3.166  14.082  19.594  0.00  0.00    +0.000 N 
ATOM     14  C   UNL     1       4.116  15.080  19.739  0.00  0.00    +0.000 C 
ATOM     15  C   UNL     1       4.905  15.556  18.544  0.00  0.00    +0.000 C 
ATOM     16  O   UNL     1       4.335  15.621  20.828  0.00  0.00    +0.000 OA
ATOM     17  C   UNL     1       2.550  13.538  20.807  0.00  0.00    +0.000 C 
ATOM     18  C   UNL     1       1.039  13.398  20.651  0.00  0.00    +0.000 C 
ENDBRANCH   6  10
BRANCH   1  23
ATOM     19  C   UNL     1       5.078   4.595  18.430  0.00  0.00    +0.000 A 
ATOM     20  C   UNL     1       4.387   3.681  17.628  0.00  0.00    +0.000 A 
ATOM     21  C   UNL     1       3.024   3.842  17.375  0.00  0.00    +0.000 A 
ATOM     22  C   UNL     1       2.342   4.926  17.923  0.00  0.00    +0.000 A 
ATOM     23  C   UNL     1       3.023   5.844  18.729  0.00  0.00    +0.000 A 
ATOM     24  C   UNL     1       4.390   5.674  18.984  0.00  0.00    +0.000 A 
BRANCH  19  26
ATOM     25  C   UNL     1       7.277   5.454  18.689  0.00  0.00    +0.000 C 
ATOM     26  O   UNL     1       6.411   4.330  18.589  0.00  0.00    +0.000 OA
ENDBRANCH  19  26
ENDBRANCH   1  23
TORSDOF 3
ENDMDL
MODEL 9
REMARK VINA RESULT:      -7.6      2.348      3.231
REMARK  Name = 
REMARK  5 active torsions:
REMARK  status: ('A' for Active; 'I' for Inactive)
REMARK    1  A    between atoms: C_1  and  O_2
REMARK    2  A    between atoms: O_2  and  C_3
REMARK    3  A    between atoms: C_7  and  C_8
REMARK    4  A    between atoms: C_13  and  C_14
REMARK    5  A    between atoms: C_18  and  C_19
REMARK                            x       y       z     vdW  Elec       q    Type
REMARK                         _______ _______ _______ _____ _____    ______ ____
ROOT
ATOM      1  C   UNL     1       2.199   7.407  19.303  0.00  0.00    +0.000 A 
ATOM      2  C   UNL     1       2.546   8.145  18.088  0.00  0.00    +0.000 A 
ATOM      3  C   UNL     1       2.059   9.373  17.840  0.00  0.00    +0.000 A 
ATOM      4  C   UNL     1       1.167   9.974  18.770  0.00  0.00    +0.000 A 
ATOM      5  N   UNL     1       0.488  11.096  18.743  0.00  0.00    +0.000 NA
ATOM      6  C   UNL     1      -0.230  11.051  19.909  0.00  0.00    +0.000 A 
ATOM      7  N   UNL     1       0.002   9.986  20.681  0.00  0.00    +0.000 NA
ATOM      8  N   UNL     1       0.874   9.266  19.938  0.00  0.00    +0.000 N 
ATOM      9  C   UNL     1       1.388   7.999  20.199  0.00  0.00    +0.000 A 
ENDROOT
BRANCH   6  10
ATOM     10  C   UNL     1      -1.305  12.039  20.240  0.00  0.00    +0.000 C 
ATOM     11  C   UNL     1      -0.906  13.459  19.813  0.00  0.00    +0.000 C 
ATOM     12  C   UNL     1       0.081  14.114  20.776  0.00  0.00    +0.000 C 
ATOM     13  N   UNL     1      -0.408  14.053  22.153  0.00  0.00    +0.000 N 
ATOM     14  C   UNL     1      -0.374  15.079  23.083  0.00  0.00    +0.000 C 
ATOM     15  C   UNL     1       0.114  16.450  22.685  0.00  0.00    +0.000 C 
ATOM     16  O   UNL     1      -0.755  14.919  24.248  0.00  0.00    +0.000 OA
ATOM     17  C   UNL     1      -0.727  12.705  22.629  0.00  0.00    +0.000 C 
ATOM     18  C   UNL     1      -1.729  12.012  21.711  0.00  0.00    +0.000 C 
ENDBRANCH   6  10
BRANCH   1  23
ATOM     19  C   UNL     1       4.449   4.396  19.424  0.00  0.00    +0.000 A 
ATOM     20  C   UNL     1       3.644   3.494  20.127  0.00  0.00    +0.000 A 
ATOM     21  C   UNL     1       2.372   3.864  20.564  0.00  0.00    +0.000 A 
ATOM     22  C   UNL     1       1.893   5.145  20.296  0.00  0.00    +0.000 A 
ATOM     23  C   UNL     1       2.692   6.056  19.597  0.00  0.00    +0.000 A 
ATOM     24  C   UNL     1       3.971   5.680  19.166  0.00  0.00    +0.000 A 
BRANCH  19  26
ATOM     25  C   UNL     1       6.389   4.666  18.081  0.00  0.00    +0.000 C 
ATOM     26  O   UNL     1       5.667   3.904  19.041  0.00  0.00    +0.000 OA
ENDBRANCH  19  26
ENDBRANCH   1  23
TORSDOF 3
ENDMDL
