MODEL 1
REMARK VINA RESULT:      -6.9      0.000      0.000
REMARK  Name = 
REMARK  9 active torsions:
REMARK  status: ('A' for Active; 'I' for Inactive)
REMARK    1  A    between atoms: C_1  and  C_2
REMARK    2  A    between atoms: C_2  and  O_3
REMARK    3  A    between atoms: O_3  and  C_4
REMARK    4  A    between atoms: C_9  and  N_10
REMARK    5  A    between atoms: N_10  and  C_11
REMARK    6  A    between atoms: C_11  and  C_12
REMARK    7  A    between atoms: C_16  and  N_17
REMARK    8  A    between atoms: N_23  and  C_24
REMARK    9  A    between atoms: N_23  and  C_25
REMARK                            x       y       z     vdW  Elec       q    Type
REMARK                         _______ _______ _______ _____ _____    ______ ____
ROOT
ATOM      1  N   UNL     1       3.684   4.075  18.937  0.00  0.00    +0.000 N 
ATOM      2  C   UNL     1       2.626   3.282  18.528  0.00  0.00    +0.000 C 
ATOM      3  O   UNL     1       2.743   2.615  17.492  0.00  0.00    +0.000 OA
ATOM      4  N   UNL     1       1.446   3.141  19.227  0.00  0.00    +0.000 N 
ATOM      5  C   UNL     1       0.853   3.920  20.302  0.00  0.00    +0.000 C 
ATOM      6  C   UNL     1       0.506   2.152  18.690  0.00  0.00    +0.000 C 
ENDROOT
BRANCH   1  12
ATOM      7  C   UNL     1       7.097   7.591  17.419  0.00  0.00    +0.000 C 
ATOM      8  O   UNL     1       6.798   8.234  16.424  0.00  0.00    +0.000 OA
ATOM      9  N   UNL     1       6.472   6.397  17.773  0.00  0.00    +0.000 N 
ATOM     10  C   UNL     1       6.566   5.804  19.108  0.00  0.00    +0.000 C 
ATOM     11  C   UNL     1       6.366   4.281  19.066  0.00  0.00    +0.000 C 
ATOM     12  C   UNL     1       5.063   3.837  18.321  0.00  0.00    +0.000 C 
ATOM     13  C   UNL     1       5.227   4.456  16.907  0.00  0.00    +0.000 C 
ATOM     14  C   UNL     1       5.333   5.975  16.974  0.00  0.00    +0.000 C 
BRANCH   7  15
ATOM     15  O   UNL     1       8.080   7.972  18.287  0.00  0.00    +0.000 OA
BRANCH  15  17
ATOM     16  C   UNL     1       9.169   9.841  19.448  0.00  0.00    +0.000 C 
ATOM     17  C   UNL     1       8.502   9.343  18.174  0.00  0.00    +0.000 C 
ENDBRANCH  15  17
ENDBRANCH   7  15
ENDBRANCH   1  12
BRANCH   1  18
ATOM     18  C   UNL     1       3.602   5.232  19.860  0.00  0.00    +0.000 C 
BRANCH  18  19
ATOM     19  C   UNL     1       2.771   6.461  19.495  0.00  0.00    +0.000 A 
ATOM     20  C   UNL     1       2.824   7.075  18.241  0.00  0.00    +0.000 A 
ATOM     21  C   UNL     1       2.156   8.285  17.995  0.00  0.00    +0.000 A 
ATOM     22  C   UNL     1       1.451   8.928  19.012  0.00  0.00    +0.000 A 
ATOM     23  C   UNL     1       1.401   8.343  20.277  0.00  0.00    +0.000 A 
ATOM     24  C   UNL     1       2.029   7.107  20.515  0.00  0.00    +0.000 A 
BRANCH  23  25
ATOM     25  N   UNL     1       0.743   9.069  21.376  0.00  0.00    +0.000 N 
ATOM     26  O   UNL     1      -0.434   8.781  21.632  0.00  0.00    +0.000 OA
ATOM     27  O   UNL     1       1.404   9.935  21.966  0.00  0.00    +0.000 OA
ENDBRANCH  23  25
ENDBRANCH  18  19
ENDBRANCH   1  18
TORSDOF 6
ENDMDL
MODEL 2
REMARK VINA RESULT:      -6.8      5.121      8.548
REMARK  Name = 
REMARK  9 active torsions:
REMARK  status: ('A' for Active; 'I' for Inactive)
REMARK    1  A    between atoms: C_1  and  C_2
REMARK    2  A    between atoms: C_2  and  O_3
REMARK    3  A    between atoms: O_3  and  C_4
REMARK    4  A    between atoms: C_9  and  N_10
REMARK    5  A    between atoms: N_10  and  C_11
REMARK    6  A    between atoms: C_11  and  C_12
REMARK    7  A    between atoms: C_16  and  N_17
REMARK    8  A    between atoms: N_23  and  C_24
REMARK    9  A    between atoms: N_23  and  C_25
REMARK                            x       y       z     vdW  Elec       q    Type
REMARK                         _______ _______ _______ _____ _____    ______ ____
ROOT
ATOM      1  N   UNL     1      -0.244  11.797  19.115  0.00  0.00    +0.000 N 
ATOM      2  C   UNL     1      -1.624  11.729  19.032  0.00  0.00    +0.000 C 
ATOM      3  O   UNL     1      -2.304  12.230  19.936  0.00  0.00    +0.000 OA
ATOM      4  N   UNL     1      -2.311  11.175  17.972  0.00  0.00    +0.000 N 
ATOM      5  C   UNL     1      -1.891  10.297  16.892  0.00  0.00    +0.000 C 
ATOM      6  C   UNL     1      -3.770  11.322  18.017  0.00  0.00    +0.000 C 
ENDROOT
BRANCH   1  12
ATOM      7  C   UNL     1       2.238  16.161  18.068  0.00  0.00    +0.000 C 
ATOM      8  O   UNL     1       3.333  16.043  17.538  0.00  0.00    +0.000 OA
ATOM      9  N   UNL     1       1.586  15.116  18.715  0.00  0.00    +0.000 N 
ATOM     10  C   UNL     1       0.159  15.137  19.044  0.00  0.00    +0.000 C 
ATOM     11  C   UNL     1      -0.158  14.238  20.248  0.00  0.00    +0.000 C 
ATOM     12  C   UNL     1       0.386  12.777  20.106  0.00  0.00    +0.000 C 
ATOM     13  C   UNL     1       1.910  12.979  19.896  0.00  0.00    +0.000 C 
ATOM     14  C   UNL     1       2.197  13.798  18.644  0.00  0.00    +0.000 C 
BRANCH   7  15
ATOM     15  O   UNL     1       1.542  17.336  18.085  0.00  0.00    +0.000 OA
BRANCH  15  17
ATOM     16  C   UNL     1       0.086  18.623  16.585  0.00  0.00    +0.000 C 
ATOM     17  C   UNL     1       1.464  18.024  16.824  0.00  0.00    +0.000 C 
ENDBRANCH  15  17
ENDBRANCH   7  15
ENDBRANCH   1  12
BRANCH   1  18
ATOM     18  C   UNL     1       0.718  10.924  18.401  0.00  0.00    +0.000 C 
BRANCH  18  19
ATOM     19  C   UNL     1       1.105   9.561  18.972  0.00  0.00    +0.000 A 
ATOM     20  C   UNL     1       0.889   9.202  20.305  0.00  0.00    +0.000 A 
ATOM     21  C   UNL     1       1.390   7.996  20.824  0.00  0.00    +0.000 A 
ATOM     22  C   UNL     1       2.152   7.142  20.027  0.00  0.00    +0.000 A 
ATOM     23  C   UNL     1       2.397   7.490  18.699  0.00  0.00    +0.000 A 
ATOM     24  C   UNL     1       1.856   8.673  18.163  0.00  0.00    +0.000 A 
BRANCH  23  25
ATOM     25  N   UNL     1       3.283   6.641  17.888  0.00  0.00    +0.000 N 
ATOM     26  O   UNL     1       4.169   7.199  17.227  0.00  0.00    +0.000 OA
ATOM     27  O   UNL     1       3.078   5.419  17.904  0.00  0.00    +0.000 OA
ENDBRANCH  23  25
ENDBRANCH  18  19
ENDBRANCH   1  18
TORSDOF 6
ENDMDL
MODEL 3
REMARK VINA RESULT:      -6.6      2.111      3.118
REMARK  Name = 
REMARK  9 active torsions:
REMARK  status: ('A' for Active; 'I' for Inactive)
REMARK    1  A    between atoms: C_1  and  C_2
REMARK    2  A    between atoms: C_2  and  O_3
REMARK    3  A    between atoms: O_3  and  C_4
REMARK    4  A    between atoms: C_9  and  N_10
REMARK    5  A    between atoms: N_10  and  C_11
REMARK    6  A    between atoms: C_11  and  C_12
REMARK    7  A    between atoms: C_16  and  N_17
REMARK    8  A    between atoms: N_23  and  C_24
REMARK    9  A    between atoms: N_23  and  C_25
REMARK                            x       y       z     vdW  Elec       q    Type
REMARK                         _______ _______ _______ _____ _____    ______ ____
ROOT
ATOM      1  N   UNL     1       2.459   5.585  19.095  0.00  0.00    +0.000 N 
ATOM      2  C   UNL     1       1.944   4.348  19.442  0.00  0.00    +0.000 C 
ATOM      3  O   UNL     1       1.409   3.655  18.568  0.00  0.00    +0.000 OA
ATOM      4  N   UNL     1       2.024   3.801  20.706  0.00  0.00    +0.000 N 
ATOM      5  C   UNL     1       2.332   4.386  22.001  0.00  0.00    +0.000 C 
ATOM      6  C   UNL     1       1.532   2.426  20.833  0.00  0.00    +0.000 C 
ENDROOT
BRANCH   1  12
ATOM      7  C   UNL     1       6.902   5.732  16.535  0.00  0.00    +0.000 C 
ATOM      8  O   UNL     1       7.650   6.658  16.811  0.00  0.00    +0.000 OA
ATOM      9  N   UNL     1       5.550   5.716  16.869  0.00  0.00    +0.000 N 
ATOM     10  C   UNL     1       4.733   4.500  16.863  0.00  0.00    +0.000 C 
ATOM     11  C   UNL     1       3.247   4.819  16.636  0.00  0.00    +0.000 C 
ATOM     12  C   UNL     1       2.678   5.900  17.614  0.00  0.00    +0.000 C 
ATOM     13  C   UNL     1       3.595   7.128  17.369  0.00  0.00    +0.000 C 
ATOM     14  C   UNL     1       5.050   6.808  17.689  0.00  0.00    +0.000 C 
BRANCH   7  15
ATOM     15  O   UNL     1       7.313   4.615  15.864  0.00  0.00    +0.000 OA
BRANCH  15  17
ATOM     16  C   UNL     1       6.262   3.832  13.789  0.00  0.00    +0.000 C 
ATOM     17  C   UNL     1       7.315   4.725  14.430  0.00  0.00    +0.000 C 
ENDBRANCH  15  17
ENDBRANCH   7  15
ENDBRANCH   1  12
BRANCH   1  18
ATOM     18  C   UNL     1       2.736   6.708  20.022  0.00  0.00    +0.000 C 
BRANCH  18  19
ATOM     19  C   UNL     1       1.742   7.859  20.167  0.00  0.00    +0.000 A 
ATOM     20  C   UNL     1       1.437   8.741  19.127  0.00  0.00    +0.000 A 
ATOM     21  C   UNL     1       0.630   9.871  19.345  0.00  0.00    +0.000 A 
ATOM     22  C   UNL     1       0.144  10.162  20.618  0.00  0.00    +0.000 A 
ATOM     23  C   UNL     1       0.452   9.306  21.675  0.00  0.00    +0.000 A 
ATOM     24  C   UNL     1       1.220   8.148  21.452  0.00  0.00    +0.000 A 
BRANCH  23  25
ATOM     25  N   UNL     1       0.024   9.666  23.037  0.00  0.00    +0.000 N 
ATOM     26  O   UNL     1       0.815   9.449  23.965  0.00  0.00    +0.000 OA
ATOM     27  O   UNL     1      -1.109  10.148  23.172  0.00  0.00    +0.000 OA
ENDBRANCH  23  25
ENDBRANCH  18  19
ENDBRANCH   1  18
TORSDOF 6
ENDMDL
MODEL 4
REMARK VINA RESULT:      -6.5      2.649      6.823
REMARK  Name = 
REMARK  9 active torsions:
REMARK  status: ('A' for Active; 'I' for Inactive)
REMARK    1  A    between atoms: C_1  and  C_2
REMARK    2  A    between atoms: C_2  and  O_3
REMARK    3  A    between atoms: O_3  and  C_4
REMARK    4  A    between atoms: C_9  and  N_10
REMARK    5  A    between atoms: N_10  and  C_11
REMARK    6  A    between atoms: C_11  and  C_12
REMARK    7  A    between atoms: C_16  and  N_17
REMARK    8  A    between atoms: N_23  and  C_24
REMARK    9  A    between atoms: N_23  and  C_25
REMARK                            x       y       z     vdW  Elec       q    Type
REMARK                         _______ _______ _______ _____ _____    ______ ____
ROOT
ATOM      1  N   UNL     1       2.561   6.190  18.973  0.00  0.00    +0.000 N 
ATOM      2  C   UNL     1       1.989   5.277  19.843  0.00  0.00    +0.000 C 
ATOM      3  O   UNL     1       1.929   5.554  21.047  0.00  0.00    +0.000 OA
ATOM      4  N   UNL     1       1.429   4.079  19.453  0.00  0.00    +0.000 N 
ATOM      5  C   UNL     1       1.529   3.314  18.221  0.00  0.00    +0.000 C 
ATOM      6  C   UNL     1       0.760   3.317  20.512  0.00  0.00    +0.000 C 
ENDROOT
BRANCH   1  12
ATOM      7  C   UNL     1      -0.671  10.146  18.513  0.00  0.00    +0.000 C 
ATOM      8  O   UNL     1      -0.834  10.577  17.381  0.00  0.00    +0.000 OA
ATOM      9  N   UNL     1       0.393   9.323  18.870  0.00  0.00    +0.000 N 
ATOM     10  C   UNL     1       0.419   8.529  20.101  0.00  0.00    +0.000 C 
ATOM     11  C   UNL     1       1.857   8.247  20.562  0.00  0.00    +0.000 C 
ATOM     12  C   UNL     1       2.767   7.629  19.449  0.00  0.00    +0.000 C 
ATOM     13  C   UNL     1       2.702   8.676  18.305  0.00  0.00    +0.000 C 
ATOM     14  C   UNL     1       1.275   8.867  17.807  0.00  0.00    +0.000 C 
BRANCH   7  15
ATOM     15  O   UNL     1      -1.514  10.433  19.549  0.00  0.00    +0.000 OA
BRANCH  15  17
ATOM     16  C   UNL     1      -0.456  12.208  20.874  0.00  0.00    +0.000 C 
ATOM     17  C   UNL     1      -1.579  11.820  19.923  0.00  0.00    +0.000 C 
ENDBRANCH  15  17
ENDBRANCH   7  15
ENDBRANCH   1  12
BRANCH   1  18
ATOM     18  C   UNL     1       3.104   5.891  17.627  0.00  0.00    +0.000 C 
BRANCH  18  19
ATOM     19  C   UNL     1       4.532   5.376  17.460  0.00  0.00    +0.000 A 
ATOM     20  C   UNL     1       5.436   5.273  18.521  0.00  0.00    +0.000 A 
ATOM     21  C   UNL     1       6.781   4.934  18.300  0.00  0.00    +0.000 A 
ATOM     22  C   UNL     1       7.258   4.727  17.007  0.00  0.00    +0.000 A 
ATOM     23  C   UNL     1       6.379   4.844  15.931  0.00  0.00    +0.000 A 
ATOM     24  C   UNL     1       5.020   5.137  16.152  0.00  0.00    +0.000 A 
BRANCH  23  25
ATOM     25  N   UNL     1       6.902   4.726  14.561  0.00  0.00    +0.000 N 
ATOM     26  O   UNL     1       7.836   5.471  14.235  0.00  0.00    +0.000 OA
ATOM     27  O   UNL     1       6.364   3.898  13.812  0.00  0.00    +0.000 OA
ENDBRANCH  23  25
ENDBRANCH  18  19
ENDBRANCH   1  18
TORSDOF 6
ENDMDL
MODEL 5
REMARK VINA RESULT:      -6.5      2.270      6.335
REMARK  Name = 
REMARK  9 active torsions:
REMARK  status: ('A' for Active; 'I' for Inactive)
REMARK    1  A    between atoms: C_1  and  C_2
REMARK    2  A    between atoms: C_2  and  O_3
REMARK    3  A    between atoms: O_3  and  C_4
REMARK    4  A    between atoms: C_9  and  N_10
REMARK    5  A    between atoms: N_10  and  C_11
REMARK    6  A    between atoms: C_11  and  C_12
REMARK    7  A    between atoms: C_16  and  N_17
REMARK    8  A    between atoms: N_23  and  C_24
REMARK    9  A    between atoms: N_23  and  C_25
REMARK                            x       y       z     vdW  Elec       q    Type
REMARK                         _______ _______ _______ _____ _____    ______ ____
ROOT
ATOM      1  N   UNL     1       2.502   6.081  18.992  0.00  0.00    +0.000 N 
ATOM      2  C   UNL     1       2.028   5.154  19.905  0.00  0.00    +0.000 C 
ATOM      3  O   UNL     1       2.107   5.408  21.113  0.00  0.00    +0.000 OA
ATOM      4  N   UNL     1       1.422   3.965  19.559  0.00  0.00    +0.000 N 
ATOM      5  C   UNL     1       1.377   3.223  18.310  0.00  0.00    +0.000 C 
ATOM      6  C   UNL     1       0.874   3.186  20.674  0.00  0.00    +0.000 C 
ENDROOT
BRANCH   1  12
ATOM      7  C   UNL     1      -0.606  10.145  18.626  0.00  0.00    +0.000 C 
ATOM      8  O   UNL     1      -0.784  10.586  17.500  0.00  0.00    +0.000 OA
ATOM      9  N   UNL     1       0.438   9.285  18.954  0.00  0.00    +0.000 N 
ATOM     10  C   UNL     1       0.468   8.485  20.181  0.00  0.00    +0.000 C 
ATOM     11  C   UNL     1       1.907   8.154  20.605  0.00  0.00    +0.000 C 
ATOM     12  C   UNL     1       2.768   7.510  19.467  0.00  0.00    +0.000 C 
ATOM     13  C   UNL     1       2.709   8.564  18.330  0.00  0.00    +0.000 C 
ATOM     14  C   UNL     1       1.277   8.805  17.867  0.00  0.00    +0.000 C 
BRANCH   7  15
ATOM     15  O   UNL     1      -1.413  10.455  19.684  0.00  0.00    +0.000 OA
BRANCH  15  17
ATOM     16  C   UNL     1      -0.256  12.293  20.828  0.00  0.00    +0.000 C 
ATOM     17  C   UNL     1      -1.471  11.852  20.024  0.00  0.00    +0.000 C 
ENDBRANCH  15  17
ENDBRANCH   7  15
ENDBRANCH   1  12
BRANCH   1  18
ATOM     18  C   UNL     1       2.886   5.806  17.588  0.00  0.00    +0.000 C 
BRANCH  18  19
ATOM     19  C   UNL     1       4.327   5.440  17.232  0.00  0.00    +0.000 A 
ATOM     20  C   UNL     1       4.657   4.476  16.277  0.00  0.00    +0.000 A 
ATOM     21  C   UNL     1       5.987   4.068  16.085  0.00  0.00    +0.000 A 
ATOM     22  C   UNL     1       7.012   4.591  16.873  0.00  0.00    +0.000 A 
ATOM     23  C   UNL     1       6.702   5.541  17.847  0.00  0.00    +0.000 A 
ATOM     24  C   UNL     1       5.378   5.987  18.009  0.00  0.00    +0.000 A 
BRANCH  23  25
ATOM     25  N   UNL     1       7.766   6.018  18.745  0.00  0.00    +0.000 N 
ATOM     26  O   UNL     1       8.212   7.157  18.556  0.00  0.00    +0.000 OA
ATOM     27  O   UNL     1       8.160   5.242  19.627  0.00  0.00    +0.000 OA
ENDBRANCH  23  25
ENDBRANCH  18  19
ENDBRANCH   1  18
TORSDOF 6
ENDMDL
MODEL 6
REMARK VINA RESULT:      -6.4      3.341      7.957
REMARK  Name = 
REMARK  9 active torsions:
REMARK  status: ('A' for Active; 'I' for Inactive)
REMARK    1  A    between atoms: C_1  and  C_2
REMARK    2  A    between atoms: C_2  and  O_3
REMARK    3  A    between atoms: O_3  and  C_4
REMARK    4  A    between atoms: C_9  and  N_10
REMARK    5  A    between atoms: N_10  and  C_11
REMARK    6  A    between atoms: C_11  and  C_12
REMARK    7  A    between atoms: C_16  and  N_17
REMARK    8  A    between atoms: N_23  and  C_24
REMARK    9  A    between atoms: N_23  and  C_25
REMARK                            x       y       z     vdW  Elec       q    Type
REMARK                         _______ _______ _______ _____ _____    ______ ____
ROOT
ATOM      1  N   UNL     1       5.375   5.183  17.094  0.00  0.00    +0.000 N 
ATOM      2  C   UNL     1       6.240   6.024  17.774  0.00  0.00    +0.000 C 
ATOM      3  O   UNL     1       5.890   7.189  17.998  0.00  0.00    +0.000 OA
ATOM      4  N   UNL     1       7.467   5.638  18.270  0.00  0.00    +0.000 N 
ATOM      5  C   UNL     1       8.305   4.481  18.000  0.00  0.00    +0.000 C 
ATOM      6  C   UNL     1       8.171   6.644  19.072  0.00  0.00    +0.000 C 
ENDROOT
BRANCH   1  12
ATOM      7  C   UNL     1       1.298   3.022  19.335  0.00  0.00    +0.000 C 
ATOM      8  O   UNL     1       0.993   1.908  18.934  0.00  0.00    +0.000 OA
ATOM      9  N   UNL     1       2.142   3.881  18.635  0.00  0.00    +0.000 N 
ATOM     10  C   UNL     1       2.787   5.047  19.241  0.00  0.00    +0.000 C 
ATOM     11  C   UNL     1       3.105   6.126  18.195  0.00  0.00    +0.000 C 
ATOM     12  C   UNL     1       3.906   5.591  16.961  0.00  0.00    +0.000 C 
ATOM     13  C   UNL     1       2.998   4.465  16.400  0.00  0.00    +0.000 C 
ATOM     14  C   UNL     1       2.774   3.365  17.431  0.00  0.00    +0.000 C 
BRANCH   7  15
ATOM     15  O   UNL     1       0.839   3.543  20.511  0.00  0.00    +0.000 OA
BRANCH  15  17
ATOM     16  C   UNL     1       2.693   2.492  21.729  0.00  0.00    +0.000 C 
ATOM     17  C   UNL     1       1.205   2.810  21.693  0.00  0.00    +0.000 C 
ENDBRANCH  15  17
ENDBRANCH   7  15
ENDBRANCH   1  12
BRANCH   1  18
ATOM     18  C   UNL     1       5.749   3.944  16.373  0.00  0.00    +0.000 C 
BRANCH  18  19
ATOM     19  C   UNL     1       6.264   4.005  14.936  0.00  0.00    +0.000 A 
ATOM     20  C   UNL     1       7.221   4.927  14.506  0.00  0.00    +0.000 A 
ATOM     21  C   UNL     1       7.560   5.044  13.148  0.00  0.00    +0.000 A 
ATOM     22  C   UNL     1       6.918   4.266  12.185  0.00  0.00    +0.000 A 
ATOM     23  C   UNL     1       5.944   3.352  12.590  0.00  0.00    +0.000 A 
ATOM     24  C   UNL     1       5.637   3.198  13.954  0.00  0.00    +0.000 A 
BRANCH  23  25
ATOM     25  N   UNL     1       5.196   2.603  11.568  0.00  0.00    +0.000 N 
ATOM     26  O   UNL     1       5.668   1.526  11.182  0.00  0.00    +0.000 OA
ATOM     27  O   UNL     1       4.146   3.107  11.144  0.00  0.00    +0.000 OA
ENDBRANCH  23  25
ENDBRANCH  18  19
ENDBRANCH   1  18
TORSDOF 6
ENDMDL
MODEL 7
REMARK VINA RESULT:      -6.3      2.244      3.125
REMARK  Name = 
REMARK  9 active torsions:
REMARK  status: ('A' for Active; 'I' for Inactive)
REMARK    1  A    between atoms: C_1  and  C_2
REMARK    2  A    between atoms: C_2  and  O_3
REMARK    3  A    between atoms: O_3  and  C_4
REMARK    4  A    between atoms: C_9  and  N_10
REMARK    5  A    between atoms: N_10  and  C_11
REMARK    6  A    between atoms: C_11  and  C_12
REMARK    7  A    between atoms: C_16  and  N_17
REMARK    8  A    between atoms: N_23  and  C_24
REMARK    9  A    between atoms: N_23  and  C_25
REMARK                            x       y       z     vdW  Elec       q    Type
REMARK                         _______ _______ _______ _____ _____    ______ ____
ROOT
ATOM      1  N   UNL     1       3.570   5.268  19.042  0.00  0.00    +0.000 N 
ATOM      2  C   UNL     1       3.388   4.207  19.911  0.00  0.00    +0.000 C 
ATOM      3  O   UNL     1       4.361   3.506  20.213  0.00  0.00    +0.000 OA
ATOM      4  N   UNL     1       2.187   3.894  20.513  0.00  0.00    +0.000 N 
ATOM      5  C   UNL     1       0.821   4.301  20.227  0.00  0.00    +0.000 C 
ATOM      6  C   UNL     1       2.236   2.812  21.501  0.00  0.00    +0.000 C 
ENDROOT
BRANCH   1  12
ATOM      7  C   UNL     1       6.398   4.531  14.826  0.00  0.00    +0.000 C 
ATOM      8  O   UNL     1       6.790   3.390  14.636  0.00  0.00    +0.000 OA
ATOM      9  N   UNL     1       5.919   4.979  16.054  0.00  0.00    +0.000 N 
ATOM     10  C   UNL     1       5.137   6.207  16.215  0.00  0.00    +0.000 C 
ATOM     11  C   UNL     1       5.284   6.791  17.628  0.00  0.00    +0.000 C 
ATOM     12  C   UNL     1       4.993   5.760  18.770  0.00  0.00    +0.000 C 
ATOM     13  C   UNL     1       6.003   4.615  18.489  0.00  0.00    +0.000 C 
ATOM     14  C   UNL     1       5.774   3.996  17.116  0.00  0.00    +0.000 C 
BRANCH   7  15
ATOM     15  O   UNL     1       6.394   5.491  13.854  0.00  0.00    +0.000 OA
BRANCH  15  17
ATOM     16  C   UNL     1       8.549   5.874  12.741  0.00  0.00    +0.000 C 
ATOM     17  C   UNL     1       7.189   5.192  12.692  0.00  0.00    +0.000 C 
ENDBRANCH  15  17
ENDBRANCH   7  15
ENDBRANCH   1  12
BRANCH   1  18
ATOM     18  C   UNL     1       2.514   5.935  18.243  0.00  0.00    +0.000 C 
BRANCH  18  19
ATOM     19  C   UNL     1       1.986   7.311  18.645  0.00  0.00    +0.000 A 
ATOM     20  C   UNL     1       2.018   8.420  17.795  0.00  0.00    +0.000 A 
ATOM     21  C   UNL     1       1.657   9.698  18.253  0.00  0.00    +0.000 A 
ATOM     22  C   UNL     1       1.293   9.899  19.583  0.00  0.00    +0.000 A 
ATOM     23  C   UNL     1       1.273   8.810  20.455  0.00  0.00    +0.000 A 
ATOM     24  C   UNL     1       1.587   7.521  19.988  0.00  0.00    +0.000 A 
BRANCH  23  25
ATOM     25  N   UNL     1       0.986   9.038  21.880  0.00  0.00    +0.000 N 
ATOM     26  O   UNL     1      -0.180   8.883  22.265  0.00  0.00    +0.000 OA
ATOM     27  O   UNL     1       1.929   9.388  22.604  0.00  0.00    +0.000 OA
ENDBRANCH  23  25
ENDBRANCH  18  19
ENDBRANCH   1  18
TORSDOF 6
ENDMDL
MODEL 8
REMARK VINA RESULT:      -6.3      7.384     11.262
REMARK  Name = 
REMARK  9 active torsions:
REMARK  status: ('A' for Active; 'I' for Inactive)
REMARK    1  A    between atoms: C_1  and  C_2
REMARK    2  A    between atoms: C_2  and  O_3
REMARK    3  A    between atoms: O_3  and  C_4
REMARK    4  A    between atoms: C_9  and  N_10
REMARK    5  A    between atoms: N_10  and  C_11
REMARK    6  A    between atoms: C_11  and  C_12
REMARK    7  A    between atoms: C_16  and  N_17
REMARK    8  A    between atoms: N_23  and  C_24
REMARK    9  A    between atoms: N_23  and  C_25
REMARK                            x       y       z     vdW  Elec       q    Type
REMARK                         _______ _______ _______ _____ _____    ______ ____
ROOT
ATOM      1  N   UNL     1      -0.135  13.526  21.261  0.00  0.00    +0.000 N 
ATOM      2  C   UNL     1       1.110  14.119  21.155  0.00  0.00    +0.000 C 
ATOM      3  O   UNL     1       1.695  14.474  22.186  0.00  0.00    +0.000 OA
ATOM      4  N   UNL     1       1.783  14.305  19.965  0.00  0.00    +0.000 N 
ATOM      5  C   UNL     1       1.341  14.260  18.580  0.00  0.00    +0.000 C 
ATOM      6  C   UNL     1       3.146  14.833  20.083  0.00  0.00    +0.000 C 
ENDROOT
BRANCH   1  12
ATOM      7  C   UNL     1      -4.843  13.707  23.289  0.00  0.00    +0.000 C 
ATOM      8  O   UNL     1      -5.246  14.815  23.612  0.00  0.00    +0.000 OA
ATOM      9  N   UNL     1      -3.502  13.424  23.043  0.00  0.00    +0.000 N 
ATOM     10  C   UNL     1      -3.049  12.226  22.333  0.00  0.00    +0.000 C 
ATOM     11  C   UNL     1      -1.620  11.834  22.739  0.00  0.00    +0.000 C 
ATOM     12  C   UNL     1      -0.588  13.005  22.626  0.00  0.00    +0.000 C 
ATOM     13  C   UNL     1      -1.188  14.105  23.542  0.00  0.00    +0.000 C 
ATOM     14  C   UNL     1      -2.568  14.538  23.061  0.00  0.00    +0.000 C 
BRANCH   7  15
ATOM     15  O   UNL     1      -5.667  12.628  23.140  0.00  0.00    +0.000 OA
BRANCH  15  17
ATOM     16  C   UNL     1      -7.911  11.867  22.496  0.00  0.00    +0.000 C 
ATOM     17  C   UNL     1      -6.747  12.804  22.205  0.00  0.00    +0.000 C 
ENDBRANCH  15  17
ENDBRANCH   7  15
ENDBRANCH   1  12
BRANCH   1  18
ATOM     18  C   UNL     1      -1.150  13.428  20.185  0.00  0.00    +0.000 C 
BRANCH  18  19
ATOM     19  C   UNL     1      -1.249  12.173  19.319  0.00  0.00    +0.000 A 
ATOM     20  C   UNL     1      -0.297  11.151  19.344  0.00  0.00    +0.000 A 
ATOM     21  C   UNL     1      -0.349  10.086  18.430  0.00  0.00    +0.000 A 
ATOM     22  C   UNL     1      -1.336  10.042  17.446  0.00  0.00    +0.000 A 
ATOM     23  C   UNL     1      -2.285  11.062  17.390  0.00  0.00    +0.000 A 
ATOM     24  C   UNL     1      -2.265  12.105  18.334  0.00  0.00    +0.000 A 
BRANCH  23  25
ATOM     25  N   UNL     1      -3.264  11.070  16.291  0.00  0.00    +0.000 N 
ATOM     26  O   UNL     1      -4.435  11.363  16.566  0.00  0.00    +0.000 OA
ATOM     27  O   UNL     1      -2.858  10.765  15.161  0.00  0.00    +0.000 OA
ENDBRANCH  23  25
ENDBRANCH  18  19
ENDBRANCH   1  18
TORSDOF 6
ENDMDL
MODEL 9
REMARK VINA RESULT:      -6.2      2.329      3.312
REMARK  Name = 
REMARK  9 active torsions:
REMARK  status: ('A' for Active; 'I' for Inactive)
REMARK    1  A    between atoms: C_1  and  C_2
REMARK    2  A    between atoms: C_2  and  O_3
REMARK    3  A    between atoms: O_3  and  C_4
REMARK    4  A    between atoms: C_9  and  N_10
REMARK    5  A    between atoms: N_10  and  C_11
REMARK    6  A    between atoms: C_11  and  C_12
REMARK    7  A    between atoms: C_16  and  N_17
REMARK    8  A    between atoms: N_23  and  C_24
REMARK    9  A    between atoms: N_23  and  C_25
REMARK                            x       y       z     vdW  Elec       q    Type
REMARK                         _______ _______ _______ _____ _____    ______ ____
ROOT
ATOM      1  N   UNL     1       2.501   5.324  19.049  0.00  0.00    +0.000 N 
ATOM      2  C   UNL     1       1.912   4.126  19.414  0.00  0.00    +0.000 C 
ATOM      3  O   UNL     1       1.297   3.475  18.561  0.00  0.00    +0.000 OA
ATOM      4  N   UNL     1       2.003   3.569  20.673  0.00  0.00    +0.000 N 
ATOM      5  C   UNL     1       2.401   4.125  21.956  0.00  0.00    +0.000 C 
ATOM      6  C   UNL     1       1.419   2.232  20.818  0.00  0.00    +0.000 C 
ENDROOT
BRANCH   1  12
ATOM      7  C   UNL     1       6.899   5.718  16.440  0.00  0.00    +0.000 C 
ATOM      8  O   UNL     1       7.588   6.695  16.693  0.00  0.00    +0.000 OA
ATOM      9  N   UNL     1       5.555   5.620  16.789  0.00  0.00    +0.000 N 
ATOM     10  C   UNL     1       4.818   4.354  16.809  0.00  0.00    +0.000 C 
ATOM     11  C   UNL     1       3.313   4.572  16.594  0.00  0.00    +0.000 C 
ATOM     12  C   UNL     1       2.684   5.629  17.561  0.00  0.00    +0.000 C 
ATOM     13  C   UNL     1       3.517   6.910  17.287  0.00  0.00    +0.000 C 
ATOM     14  C   UNL     1       4.993   6.690  17.597  0.00  0.00    +0.000 C 
BRANCH   7  15
ATOM     15  O   UNL     1       7.376   4.620  15.782  0.00  0.00    +0.000 OA
BRANCH  15  17
ATOM     16  C   UNL     1       6.254   3.888  13.724  0.00  0.00    +0.000 C 
ATOM     17  C   UNL     1       7.372   4.713  14.346  0.00  0.00    +0.000 C 
ENDBRANCH  15  17
ENDBRANCH   7  15
ENDBRANCH   1  12
BRANCH   1  18
ATOM     18  C   UNL     1       2.891   6.421  19.965  0.00  0.00    +0.000 C 
BRANCH  18  19
ATOM     19  C   UNL     1       1.894   7.517  20.338  0.00  0.00    +0.000 A 
ATOM     20  C   UNL     1       0.873   7.334  21.274  0.00  0.00    +0.000 A 
ATOM     21  C   UNL     1      -0.109   8.317  21.480  0.00  0.00    +0.000 A 
ATOM     22  C   UNL     1      -0.110   9.490  20.725  0.00  0.00    +0.000 A 
ATOM     23  C   UNL     1       0.890   9.685  19.772  0.00  0.00    +0.000 A 
ATOM     24  C   UNL     1       1.902   8.724  19.596  0.00  0.00    +0.000 A 
BRANCH  23  25
ATOM     25  N   UNL     1       0.832  10.874  18.906  0.00  0.00    +0.000 N 
ATOM     26  O   UNL     1      -0.195  11.564  18.944  0.00  0.00    +0.000 OA
ATOM     27  O   UNL     1       1.810  11.100  18.180  0.00  0.00    +0.000 OA
ENDBRANCH  23  25
ENDBRANCH  18  19
ENDBRANCH   1  18
TORSDOF 6
ENDMDL
