MODEL 1
REMARK VINA RESULT:      -8.0      0.000      0.000
REMARK  Name = 
REMARK  9 active torsions:
REMARK  status: ('A' for Active; 'I' for Inactive)
REMARK    1  A    between atoms: C_1  and  C_2
REMARK    2  A    between atoms: C_2  and  O_3
REMARK    3  A    between atoms: O_3  and  C_4
REMARK    4  A    between atoms: C_6  and  C_7
REMARK    5  A    between atoms: C_8  and  C_9
REMARK    6  A    between atoms: C_14  and  C_16
REMARK    7  A    between atoms: C_17  and  C_18
REMARK    8  A    between atoms: C_21  and  N_22
REMARK    9  A    between atoms: C_31  and  C_32
REMARK                            x       y       z     vdW  Elec       q    Type
REMARK                         _______ _______ _______ _____ _____    ______ ____
ROOT
ATOM      1  C   UNL     1       3.966   4.654  19.137  0.00  0.00    +0.000 A 
ATOM      2  C   UNL     1       3.479   3.579  19.861  0.00  0.00    +0.000 A 
ATOM      3  S   UNL     1       2.455   4.128  21.135  0.00  0.00    +0.000 S 
ATOM      4  C   UNL     1       2.575   5.706  20.507  0.00  0.00    +0.000 A 
ATOM      5  N   UNL     1       1.760   6.636  21.093  0.00  0.00    +0.000 N 
ATOM      6  C   UNL     1       1.469   7.814  20.452  0.00  0.00    +0.000 C 
ATOM      7  O   UNL     1       1.803   8.127  19.308  0.00  0.00    +0.000 OA
ATOM      8  N   UNL     1       3.426   5.868  19.530  0.00  0.00    +0.000 NA
ATOM      9  H   UNL     1       1.293   6.368  21.944  0.00  0.00    +0.000 HD
ENDROOT
BRANCH   1  14
ATOM     10  C   UNL     1       6.649   4.394  15.743  0.00  0.00    +0.000 A 
ATOM     11  C   UNL     1       5.317   4.025  15.637  0.00  0.00    +0.000 A 
ATOM     12  C   UNL     1       4.442   4.107  16.741  0.00  0.00    +0.000 A 
ATOM     13  C   UNL     1       3.015   3.670  16.489  0.00  0.00    +0.000 C 
ATOM     14  C   UNL     1       4.907   4.583  18.002  0.00  0.00    +0.000 A 
ATOM     15  C   UNL     1       6.262   4.999  18.094  0.00  0.00    +0.000 A 
ATOM     16  C   UNL     1       6.924   5.596  19.308  0.00  0.00    +0.000 C 
ATOM     17  C   UNL     1       7.106   4.882  16.964  0.00  0.00    +0.000 A 
BRANCH  10  18
ATOM     18  O   UNL     1       7.579   4.338  14.741  0.00  0.00    +0.000 OA
BRANCH  18  20
ATOM     19  C   UNL     1       6.892   3.948  12.475  0.00  0.00    +0.000 C 
ATOM     20  C   UNL     1       7.231   4.996  13.520  0.00  0.00    +0.000 C 
ENDBRANCH  18  20
ENDBRANCH  10  18
ENDBRANCH   1  14
BRANCH   6  21
ATOM     21  C   UNL     1       0.638   8.735  21.272  0.00  0.00    +0.000 C 
ATOM     22  C   UNL     1       0.005   9.742  20.647  0.00  0.00    +0.000 C 
BRANCH  22  23
ATOM     23  C   UNL     1      -0.763  10.813  21.293  0.00  0.00    +0.000 A 
ATOM     24  C   UNL     1      -0.957  10.739  22.675  0.00  0.00    +0.000 A 
ATOM     25  C   UNL     1      -1.677  11.728  23.358  0.00  0.00    +0.000 A 
ATOM     26  C   UNL     1      -2.226  12.827  22.692  0.00  0.00    +0.000 A 
ATOM     27  C   UNL     1      -2.005  12.897  21.307  0.00  0.00    +0.000 A 
ATOM     28  C   UNL     1      -1.279  11.915  20.615  0.00  0.00    +0.000 A 
BRANCH  26  29
ATOM     29  N   UNL     1      -2.929  13.815  23.349  0.00  0.00    +0.000 N 
ATOM     30  C   UNL     1      -4.079  13.541  24.224  0.00  0.00    +0.000 C 
ATOM     31  C   UNL     1      -5.357  14.178  23.662  0.00  0.00    +0.000 C 
ATOM     32  O   UNL     1      -5.179  15.580  23.402  0.00  0.00    +0.000 OA
ATOM     33  C   UNL     1      -4.119  15.778  22.453  0.00  0.00    +0.000 C 
ATOM     34  C   UNL     1      -2.778  15.230  22.973  0.00  0.00    +0.000 C 
ENDBRANCH  26  29
ENDBRANCH  22  23
ENDBRANCH   6  21
TORSDOF 6
ENDMDL
MODEL 2
REMARK VINA RESULT:      -8.0      0.812      1.982
REMARK  Name = 
REMARK  9 active torsions:
REMARK  status: ('A' for Active; 'I' for Inactive)
REMARK    1  A    between atoms: C_1  and  C_2
REMARK    2  A    between atoms: C_2  and  O_3
REMARK    3  A    between atoms: O_3  and  C_4
REMARK    4  A    between atoms: C_6  and  C_7
REMARK    5  A    between atoms: C_8  and  C_9
REMARK    6  A    between atoms: C_14  and  C_16
REMARK    7  A    between atoms: C_17  and  C_18
REMARK    8  A    between atoms: C_21  and  N_22
REMARK    9  A    between atoms: C_31  and  C_32
REMARK                            x       y       z     vdW  Elec       q    Type
REMARK                         _______ _______ _______ _____ _____    ______ ____
ROOT
ATOM      1  C   UNL     1       3.720   4.730  19.167  0.00  0.00    +0.000 A 
ATOM      2  C   UNL     1       3.231   3.731  19.993  0.00  0.00    +0.000 A 
ATOM      3  S   UNL     1       2.334   4.416  21.297  0.00  0.00    +0.000 S 
ATOM      4  C   UNL     1       2.493   5.943  20.560  0.00  0.00    +0.000 A 
ATOM      5  N   UNL     1       1.775   6.953  21.141  0.00  0.00    +0.000 N 
ATOM      6  C   UNL     1       1.501   8.105  20.446  0.00  0.00    +0.000 C 
ATOM      7  O   UNL     1       1.766   8.328  19.263  0.00  0.00    +0.000 OA
ATOM      8  N   UNL     1       3.277   5.995  19.518  0.00  0.00    +0.000 NA
ATOM      9  H   UNL     1       1.358   6.766  22.037  0.00  0.00    +0.000 HD
ENDROOT
BRANCH   1  14
ATOM     10  C   UNL     1       6.301   4.211  15.725  0.00  0.00    +0.000 A 
ATOM     11  C   UNL     1       6.787   4.728  16.917  0.00  0.00    +0.000 A 
ATOM     12  C   UNL     1       5.948   4.900  18.038  0.00  0.00    +0.000 A 
ATOM     13  C   UNL     1       6.604   5.475  19.274  0.00  0.00    +0.000 C 
ATOM     14  C   UNL     1       4.570   4.535  17.977  0.00  0.00    +0.000 A 
ATOM     15  C   UNL     1       4.089   3.968  16.767  0.00  0.00    +0.000 A 
ATOM     16  C   UNL     1       2.693   3.455  16.524  0.00  0.00    +0.000 C 
ATOM     17  C   UNL     1       4.964   3.831  15.664  0.00  0.00    +0.000 A 
BRANCH  10  18
ATOM     18  O   UNL     1       7.026   4.020  14.580  0.00  0.00    +0.000 OA
BRANCH  18  20
ATOM     19  C   UNL     1       7.163   4.052  12.185  0.00  0.00    +0.000 C 
ATOM     20  C   UNL     1       6.272   3.794  13.387  0.00  0.00    +0.000 C 
ENDBRANCH  18  20
ENDBRANCH  10  18
ENDBRANCH   1  14
BRANCH   6  21
ATOM     21  C   UNL     1       0.783   9.121  21.260  0.00  0.00    +0.000 C 
ATOM     22  C   UNL     1      -0.151   9.872  20.654  0.00  0.00    +0.000 C 
BRANCH  22  23
ATOM     23  C   UNL     1      -0.881  10.995  21.255  0.00  0.00    +0.000 A 
ATOM     24  C   UNL     1      -1.089  10.976  22.637  0.00  0.00    +0.000 A 
ATOM     25  C   UNL     1      -1.774  12.016  23.279  0.00  0.00    +0.000 A 
ATOM     26  C   UNL     1      -2.274  13.113  22.570  0.00  0.00    +0.000 A 
ATOM     27  C   UNL     1      -2.038  13.126  21.186  0.00  0.00    +0.000 A 
ATOM     28  C   UNL     1      -1.347  12.093  20.535  0.00  0.00    +0.000 A 
BRANCH  26  29
ATOM     29  N   UNL     1      -2.942  14.150  23.187  0.00  0.00    +0.000 N 
ATOM     30  C   UNL     1      -2.944  15.528  22.672  0.00  0.00    +0.000 C 
ATOM     31  C   UNL     1      -2.273  16.484  23.667  0.00  0.00    +0.000 C 
ATOM     32  O   UNL     1      -2.857  16.381  24.976  0.00  0.00    +0.000 OA
ATOM     33  C   UNL     1      -2.722  15.040  25.474  0.00  0.00    +0.000 C 
ATOM     34  C   UNL     1      -3.434  14.019  24.568  0.00  0.00    +0.000 C 
ENDBRANCH  26  29
ENDBRANCH  22  23
ENDBRANCH   6  21
TORSDOF 6
ENDMDL
MODEL 3
REMARK VINA RESULT:      -7.7      0.490      1.605
REMARK  Name = 
REMARK  9 active torsions:
REMARK  status: ('A' for Active; 'I' for Inactive)
REMARK    1  A    between atoms: C_1  and  C_2
REMARK    2  A    between atoms: C_2  and  O_3
REMARK    3  A    between atoms: O_3  and  C_4
REMARK    4  A    between atoms: C_6  and  C_7
REMARK    5  A    between atoms: C_8  and  C_9
REMARK    6  A    between atoms: C_14  and  C_16
REMARK    7  A    between atoms: C_17  and  C_18
REMARK    8  A    between atoms: C_21  and  N_22
REMARK    9  A    between atoms: C_31  and  C_32
REMARK                            x       y       z     vdW  Elec       q    Type
REMARK                         _______ _______ _______ _____ _____    ______ ____
ROOT
ATOM      1  C   UNL     1       3.701   4.702  19.208  0.00  0.00    +0.000 A 
ATOM      2  C   UNL     1       3.214   3.702  20.034  0.00  0.00    +0.000 A 
ATOM      3  S   UNL     1       2.334   4.386  21.350  0.00  0.00    +0.000 S 
ATOM      4  C   UNL     1       2.494   5.915  20.619  0.00  0.00    +0.000 A 
ATOM      5  N   UNL     1       1.787   6.927  21.210  0.00  0.00    +0.000 N 
ATOM      6  C   UNL     1       1.513   8.083  20.524  0.00  0.00    +0.000 C 
ATOM      7  O   UNL     1       1.767   8.310  19.340  0.00  0.00    +0.000 OA
ATOM      8  N   UNL     1       3.268   5.968  19.569  0.00  0.00    +0.000 NA
ATOM      9  H   UNL     1       1.378   6.737  22.110  0.00  0.00    +0.000 HD
ENDROOT
BRANCH   1  14
ATOM     10  C   UNL     1       6.247   4.185  15.740  0.00  0.00    +0.000 A 
ATOM     11  C   UNL     1       6.748   4.685  16.932  0.00  0.00    +0.000 A 
ATOM     12  C   UNL     1       5.921   4.856  18.061  0.00  0.00    +0.000 A 
ATOM     13  C   UNL     1       6.594   5.413  19.297  0.00  0.00    +0.000 C 
ATOM     14  C   UNL     1       4.538   4.508  18.008  0.00  0.00    +0.000 A 
ATOM     15  C   UNL     1       4.041   3.958  16.798  0.00  0.00    +0.000 A 
ATOM     16  C   UNL     1       2.637   3.463  16.562  0.00  0.00    +0.000 C 
ATOM     17  C   UNL     1       4.905   3.821  15.686  0.00  0.00    +0.000 A 
BRANCH  10  18
ATOM     18  O   UNL     1       6.960   3.996  14.586  0.00  0.00    +0.000 OA
BRANCH  18  20
ATOM     19  C   UNL     1       7.148   3.770  12.205  0.00  0.00    +0.000 C 
ATOM     20  C   UNL     1       6.197   3.922  13.379  0.00  0.00    +0.000 C 
ENDBRANCH  18  20
ENDBRANCH  10  18
ENDBRANCH   1  14
BRANCH   6  21
ATOM     21  C   UNL     1       0.809   9.099  21.350  0.00  0.00    +0.000 C 
ATOM     22  C   UNL     1      -0.198   9.786  20.785  0.00  0.00    +0.000 C 
BRANCH  22  23
ATOM     23  C   UNL     1      -0.934  10.901  21.395  0.00  0.00    +0.000 A 
ATOM     24  C   UNL     1      -1.100  10.893  22.783  0.00  0.00    +0.000 A 
ATOM     25  C   UNL     1      -1.789  11.926  23.433  0.00  0.00    +0.000 A 
ATOM     26  C   UNL     1      -2.333  13.003  22.728  0.00  0.00    +0.000 A 
ATOM     27  C   UNL     1      -2.139  13.005  21.337  0.00  0.00    +0.000 A 
ATOM     28  C   UNL     1      -1.445  11.979  20.677  0.00  0.00    +0.000 A 
BRANCH  26  29
ATOM     29  N   UNL     1      -3.005  14.033  23.353  0.00  0.00    +0.000 N 
ATOM     30  C   UNL     1      -4.375  13.905  23.871  0.00  0.00    +0.000 C 
ATOM     31  C   UNL     1      -5.328  14.855  23.132  0.00  0.00    +0.000 C 
ATOM     32  O   UNL     1      -4.850  16.210  23.158  0.00  0.00    +0.000 OA
ATOM     33  C   UNL     1      -3.558  16.291  22.535  0.00  0.00    +0.000 C 
ATOM     34  C   UNL     1      -2.518  15.419  23.262  0.00  0.00    +0.000 C 
ENDBRANCH  26  29
ENDBRANCH  22  23
ENDBRANCH   6  21
TORSDOF 6
ENDMDL
MODEL 4
REMARK VINA RESULT:      -7.7      0.709      1.960
REMARK  Name = 
REMARK  9 active torsions:
REMARK  status: ('A' for Active; 'I' for Inactive)
REMARK    1  A    between atoms: C_1  and  C_2
REMARK    2  A    between atoms: C_2  and  O_3
REMARK    3  A    between atoms: O_3  and  C_4
REMARK    4  A    between atoms: C_6  and  C_7
REMARK    5  A    between atoms: C_8  and  C_9
REMARK    6  A    between atoms: C_14  and  C_16
REMARK    7  A    between atoms: C_17  and  C_18
REMARK    8  A    between atoms: C_21  and  N_22
REMARK    9  A    between atoms: C_31  and  C_32
REMARK                            x       y       z     vdW  Elec       q    Type
REMARK                         _______ _______ _______ _____ _____    ______ ____
ROOT
ATOM      1  C   UNL     1       3.803   4.629  19.171  0.00  0.00    +0.000 A 
ATOM      2  C   UNL     1       3.293   3.591  19.933  0.00  0.00    +0.000 A 
ATOM      3  S   UNL     1       2.354   4.211  21.240  0.00  0.00    +0.000 S 
ATOM      4  C   UNL     1       2.527   5.771  20.580  0.00  0.00    +0.000 A 
ATOM      5  N   UNL     1       1.787   6.751  21.184  0.00  0.00    +0.000 N 
ATOM      6  C   UNL     1       1.529   7.932  20.536  0.00  0.00    +0.000 C 
ATOM      7  O   UNL     1       1.828   8.211  19.374  0.00  0.00    +0.000 OA
ATOM      8  N   UNL     1       3.343   5.874  19.566  0.00  0.00    +0.000 NA
ATOM      9  H   UNL     1       1.343   6.520  22.058  0.00  0.00    +0.000 HD
ENDROOT
BRANCH   1  14
ATOM     10  C   UNL     1       6.490   4.283  15.789  0.00  0.00    +0.000 A 
ATOM     11  C   UNL     1       6.931   4.766  17.012  0.00  0.00    +0.000 A 
ATOM     12  C   UNL     1       6.057   4.882  18.113  0.00  0.00    +0.000 A 
ATOM     13  C   UNL     1       6.667   5.425  19.387  0.00  0.00    +0.000 C 
ATOM     14  C   UNL     1       4.690   4.493  17.999  0.00  0.00    +0.000 A 
ATOM     15  C   UNL     1       4.255   3.961  16.757  0.00  0.00    +0.000 A 
ATOM     16  C   UNL     1       2.877   3.430  16.455  0.00  0.00    +0.000 C 
ATOM     17  C   UNL     1       5.163   3.880  15.675  0.00  0.00    +0.000 A 
BRANCH  10  18
ATOM     18  O   UNL     1       7.251   4.147  14.659  0.00  0.00    +0.000 OA
BRANCH  18  20
ATOM     19  C   UNL     1       6.602   3.584  12.419  0.00  0.00    +0.000 C 
ATOM     20  C   UNL     1       6.696   4.687  13.457  0.00  0.00    +0.000 C 
ENDBRANCH  18  20
ENDBRANCH  10  18
ENDBRANCH   1  14
BRANCH   6  21
ATOM     21  C   UNL     1       0.781   8.907  21.374  0.00  0.00    +0.000 C 
ATOM     22  C   UNL     1      -0.000   9.806  20.754  0.00  0.00    +0.000 C 
BRANCH  22  23
ATOM     23  C   UNL     1      -0.722  10.913  21.395  0.00  0.00    +0.000 A 
ATOM     24  C   UNL     1      -1.143  11.974  20.587  0.00  0.00    +0.000 A 
ATOM     25  C   UNL     1      -1.839  13.062  21.130  0.00  0.00    +0.000 A 
ATOM     26  C   UNL     1      -2.145  13.132  22.492  0.00  0.00    +0.000 A 
ATOM     27  C   UNL     1      -1.734  12.048  23.285  0.00  0.00    +0.000 A 
ATOM     28  C   UNL     1      -1.041  10.951  22.750  0.00  0.00    +0.000 A 
BRANCH  26  29
ATOM     29  N   UNL     1      -2.839  14.190  23.041  0.00  0.00    +0.000 N 
ATOM     30  C   UNL     1      -4.114  14.687  22.501  0.00  0.00    +0.000 C 
ATOM     31  C   UNL     1      -3.970  16.132  22.004  0.00  0.00    +0.000 C 
ATOM     32  O   UNL     1      -3.428  16.990  23.022  0.00  0.00    +0.000 OA
ATOM     33  C   UNL     1      -2.132  16.519  23.427  0.00  0.00    +0.000 C 
ATOM     34  C   UNL     1      -2.198  15.096  24.008  0.00  0.00    +0.000 C 
ENDBRANCH  26  29
ENDBRANCH  22  23
ENDBRANCH   6  21
TORSDOF 6
ENDMDL
MODEL 5
REMARK VINA RESULT:      -7.5      2.790     13.083
REMARK  Name = 
REMARK  9 active torsions:
REMARK  status: ('A' for Active; 'I' for Inactive)
REMARK    1  A    between atoms: C_1  and  C_2
REMARK    2  A    between atoms: C_2  and  O_3
REMARK    3  A    between atoms: O_3  and  C_4
REMARK    4  A    between atoms: C_6  and  C_7
REMARK    5  A    between atoms: C_8  and  C_9
REMARK    6  A    between atoms: C_14  and  C_16
REMARK    7  A    between atoms: C_17  and  C_18
REMARK    8  A    between atoms: C_21  and  N_22
REMARK    9  A    between atoms: C_31  and  C_32
REMARK                            x       y       z     vdW  Elec       q    Type
REMARK                         _______ _______ _______ _____ _____    ______ ____
ROOT
ATOM      1  C   UNL     1      -2.807  13.380  21.050  0.00  0.00    +0.000 A 
ATOM      2  C   UNL     1      -3.889  12.986  20.279  0.00  0.00    +0.000 A 
ATOM      3  S   UNL     1      -3.377  11.910  19.033  0.00  0.00    +0.000 S 
ATOM      4  C   UNL     1      -1.824  11.893  19.731  0.00  0.00    +0.000 A 
ATOM      5  N   UNL     1      -0.945  10.995  19.188  0.00  0.00    +0.000 N 
ATOM      6  C   UNL     1       0.173  10.605  19.882  0.00  0.00    +0.000 C 
ATOM      7  O   UNL     1       0.464  10.916  21.037  0.00  0.00    +0.000 OA
ATOM      8  N   UNL     1      -1.630  12.733  20.712  0.00  0.00    +0.000 NA
ATOM      9  H   UNL     1      -1.216  10.549  18.327  0.00  0.00    +0.000 HD
ENDROOT
BRANCH   1  14
ATOM     10  C   UNL     1      -2.947  16.087  24.432  0.00  0.00    +0.000 A 
ATOM     11  C   UNL     1      -3.123  14.721  24.595  0.00  0.00    +0.000 A 
ATOM     12  C   UNL     1      -3.080  13.838  23.495  0.00  0.00    +0.000 A 
ATOM     13  C   UNL     1      -3.291  12.374  23.813  0.00  0.00    +0.000 C 
ATOM     14  C   UNL     1      -2.844  14.331  22.178  0.00  0.00    +0.000 A 
ATOM     15  C   UNL     1      -2.622  15.725  22.023  0.00  0.00    +0.000 A 
ATOM     16  C   UNL     1      -2.287  16.430  20.733  0.00  0.00    +0.000 C 
ATOM     17  C   UNL     1      -2.692  16.573  23.153  0.00  0.00    +0.000 A 
BRANCH  10  18
ATOM     18  O   UNL     1      -2.986  17.025  25.427  0.00  0.00    +0.000 OA
BRANCH  18  20
ATOM     19  C   UNL     1      -5.195  17.957  25.503  0.00  0.00    +0.000 C 
ATOM     20  C   UNL     1      -3.740  18.207  25.150  0.00  0.00    +0.000 C 
ENDBRANCH  18  20
ENDBRANCH  10  18
ENDBRANCH   1  14
BRANCH   6  21
ATOM     21  C   UNL     1       1.051   9.690  19.105  0.00  0.00    +0.000 C 
ATOM     22  C   UNL     1       1.371   8.505  19.651  0.00  0.00    +0.000 C 
BRANCH  22  23
ATOM     23  C   UNL     1       2.309   7.522  19.096  0.00  0.00    +0.000 A 
ATOM     24  C   UNL     1       3.150   7.933  18.058  0.00  0.00    +0.000 A 
ATOM     25  C   UNL     1       4.072   7.049  17.482  0.00  0.00    +0.000 A 
ATOM     26  C   UNL     1       4.194   5.728  17.921  0.00  0.00    +0.000 A 
ATOM     27  C   UNL     1       3.357   5.337  18.979  0.00  0.00    +0.000 A 
ATOM     28  C   UNL     1       2.435   6.216  19.566  0.00  0.00    +0.000 A 
BRANCH  26  29
ATOM     29  N   UNL     1       5.104   4.847  17.373  0.00  0.00    +0.000 N 
ATOM     30  C   UNL     1       6.314   4.396  18.076  0.00  0.00    +0.000 C 
ATOM     31  C   UNL     1       7.578   4.850  17.332  0.00  0.00    +0.000 C 
ATOM     32  O   UNL     1       7.555   4.445  15.953  0.00  0.00    +0.000 OA
ATOM     33  C   UNL     1       6.412   5.011  15.291  0.00  0.00    +0.000 C 
ATOM     34  C   UNL     1       5.092   4.546  15.932  0.00  0.00    +0.000 C 
ENDBRANCH  26  29
ENDBRANCH  22  23
ENDBRANCH   6  21
TORSDOF 6
ENDMDL
MODEL 6
REMARK VINA RESULT:      -7.4      3.025     12.828
REMARK  Name = 
REMARK  9 active torsions:
REMARK  status: ('A' for Active; 'I' for Inactive)
REMARK    1  A    between atoms: C_1  and  C_2
REMARK    2  A    between atoms: C_2  and  O_3
REMARK    3  A    between atoms: O_3  and  C_4
REMARK    4  A    between atoms: C_6  and  C_7
REMARK    5  A    between atoms: C_8  and  C_9
REMARK    6  A    between atoms: C_14  and  C_16
REMARK    7  A    between atoms: C_17  and  C_18
REMARK    8  A    between atoms: C_21  and  N_22
REMARK    9  A    between atoms: C_31  and  C_32
REMARK                            x       y       z     vdW  Elec       q    Type
REMARK                         _______ _______ _______ _____ _____    ______ ____
ROOT
ATOM      1  C   UNL     1      -2.782  13.230  21.409  0.00  0.00    +0.000 A 
ATOM      2  C   UNL     1      -2.236  12.978  22.657  0.00  0.00    +0.000 A 
ATOM      3  S   UNL     1      -1.179  11.617  22.586  0.00  0.00    +0.000 S 
ATOM      4  C   UNL     1      -1.369  11.600  20.894  0.00  0.00    +0.000 A 
ATOM      5  N   UNL     1      -0.559  10.727  20.220  0.00  0.00    +0.000 N 
ATOM      6  C   UNL     1      -0.327  10.884  18.876  0.00  0.00    +0.000 C 
ATOM      7  O   UNL     1      -0.714  11.815  18.170  0.00  0.00    +0.000 OA
ATOM      8  N   UNL     1      -2.262  12.421  20.412  0.00  0.00    +0.000 NA
ATOM      9  H   UNL     1      -0.051  10.053  20.769  0.00  0.00    +0.000 HD
ENDROOT
BRANCH   1  14
ATOM     10  C   UNL     1      -5.750  16.242  20.459  0.00  0.00    +0.000 A 
ATOM     11  C   UNL     1      -6.115  14.931  20.729  0.00  0.00    +0.000 A 
ATOM     12  C   UNL     1      -5.151  13.949  21.036  0.00  0.00    +0.000 A 
ATOM     13  C   UNL     1      -5.685  12.559  21.307  0.00  0.00    +0.000 C 
ATOM     14  C   UNL     1      -3.765  14.283  21.086  0.00  0.00    +0.000 A 
ATOM     15  C   UNL     1      -3.401  15.635  20.850  0.00  0.00    +0.000 A 
ATOM     16  C   UNL     1      -2.007  16.202  20.927  0.00  0.00    +0.000 C 
ATOM     17  C   UNL     1      -4.402  16.581  20.529  0.00  0.00    +0.000 A 
BRANCH  10  18
ATOM     18  O   UNL     1      -6.604  17.262  20.136  0.00  0.00    +0.000 OA
BRANCH  18  20
ATOM     19  C   UNL     1      -6.828  17.194  17.749  0.00  0.00    +0.000 C 
ATOM     20  C   UNL     1      -7.530  16.998  19.080  0.00  0.00    +0.000 C 
ENDBRANCH  18  20
ENDBRANCH  10  18
ENDBRANCH   1  14
BRANCH   6  21
ATOM     21  C   UNL     1       0.509   9.798  18.298  0.00  0.00    +0.000 C 
ATOM     22  C   UNL     1       1.321   9.117  19.124  0.00  0.00    +0.000 C 
BRANCH  22  23
ATOM     23  C   UNL     1       2.299   8.096  18.728  0.00  0.00    +0.000 A 
ATOM     24  C   UNL     1       2.439   6.972  19.547  0.00  0.00    +0.000 A 
ATOM     25  C   UNL     1       3.350   5.956  19.229  0.00  0.00    +0.000 A 
ATOM     26  C   UNL     1       4.151   6.020  18.085  0.00  0.00    +0.000 A 
ATOM     27  C   UNL     1       3.982   7.146  17.262  0.00  0.00    +0.000 A 
ATOM     28  C   UNL     1       3.067   8.165  17.568  0.00  0.00    +0.000 A 
BRANCH  26  29
ATOM     29  N   UNL     1       5.045   5.025  17.751  0.00  0.00    +0.000 N 
ATOM     30  C   UNL     1       6.164   4.622  18.616  0.00  0.00    +0.000 C 
ATOM     31  C   UNL     1       7.510   4.899  17.932  0.00  0.00    +0.000 C 
ATOM     32  O   UNL     1       7.574   4.298  16.628  0.00  0.00    +0.000 OA
ATOM     33  C   UNL     1       6.527   4.816  15.792  0.00  0.00    +0.000 C 
ATOM     34  C   UNL     1       5.133   4.516  16.372  0.00  0.00    +0.000 C 
ENDBRANCH  26  29
ENDBRANCH  22  23
ENDBRANCH   6  21
TORSDOF 6
ENDMDL
MODEL 7
REMARK VINA RESULT:      -7.3      1.416      1.777
REMARK  Name = 
REMARK  9 active torsions:
REMARK  status: ('A' for Active; 'I' for Inactive)
REMARK    1  A    between atoms: C_1  and  C_2
REMARK    2  A    between atoms: C_2  and  O_3
REMARK    3  A    between atoms: O_3  and  C_4
REMARK    4  A    between atoms: C_6  and  C_7
REMARK    5  A    between atoms: C_8  and  C_9
REMARK    6  A    between atoms: C_14  and  C_16
REMARK    7  A    between atoms: C_17  and  C_18
REMARK    8  A    between atoms: C_21  and  N_22
REMARK    9  A    between atoms: C_31  and  C_32
REMARK                            x       y       z     vdW  Elec       q    Type
REMARK                         _______ _______ _______ _____ _____    ______ ____
ROOT
ATOM      1  C   UNL     1       3.567   5.891  18.466  0.00  0.00    +0.000 A 
ATOM      2  C   UNL     1       3.136   5.174  19.570  0.00  0.00    +0.000 A 
ATOM      3  S   UNL     1       2.212   6.185  20.618  0.00  0.00    +0.000 S 
ATOM      4  C   UNL     1       2.286   7.415  19.442  0.00  0.00    +0.000 A 
ATOM      5  N   UNL     1       1.519   8.519  19.698  0.00  0.00    +0.000 N 
ATOM      6  C   UNL     1       1.181   9.384  18.687  0.00  0.00    +0.000 C 
ATOM      7  O   UNL     1       1.426   9.243  17.488  0.00  0.00    +0.000 OA
ATOM      8  N   UNL     1       3.060   7.179  18.418  0.00  0.00    +0.000 NA
ATOM      9  H   UNL     1       1.118   8.599  20.617  0.00  0.00    +0.000 HD
ENDROOT
BRANCH   1  14
ATOM     10  C   UNL     1       6.002   4.291  15.257  0.00  0.00    +0.000 A 
ATOM     11  C   UNL     1       4.832   3.663  15.654  0.00  0.00    +0.000 A 
ATOM     12  C   UNL     1       4.039   4.180  16.700  0.00  0.00    +0.000 A 
ATOM     13  C   UNL     1       2.789   3.395  17.034  0.00  0.00    +0.000 C 
ATOM     14  C   UNL     1       4.419   5.378  17.375  0.00  0.00    +0.000 A 
ATOM     15  C   UNL     1       5.596   6.039  16.936  0.00  0.00    +0.000 A 
ATOM     16  C   UNL     1       6.127   7.346  17.467  0.00  0.00    +0.000 C 
ATOM     17  C   UNL     1       6.369   5.473  15.895  0.00  0.00    +0.000 A 
BRANCH  10  18
ATOM     18  O   UNL     1       6.847   3.863  14.269  0.00  0.00    +0.000 OA
BRANCH  18  20
ATOM     19  C   UNL     1       7.134   4.195  11.910  0.00  0.00    +0.000 C 
ATOM     20  C   UNL     1       6.249   3.608  12.996  0.00  0.00    +0.000 C 
ENDBRANCH  18  20
ENDBRANCH  10  18
ENDBRANCH   1  14
BRANCH   6  21
ATOM     21  C   UNL     1       0.415  10.567  19.163  0.00  0.00    +0.000 C 
ATOM     22  C   UNL     1      -0.036  10.561  20.428  0.00  0.00    +0.000 C 
BRANCH  22  23
ATOM     23  C   UNL     1      -0.901  11.576  21.043  0.00  0.00    +0.000 A 
ATOM     24  C   UNL     1      -1.079  11.531  22.429  0.00  0.00    +0.000 A 
ATOM     25  C   UNL     1      -1.888  12.469  23.084  0.00  0.00    +0.000 A 
ATOM     26  C   UNL     1      -2.544  13.487  22.385  0.00  0.00    +0.000 A 
ATOM     27  C   UNL     1      -2.338  13.530  20.997  0.00  0.00    +0.000 A 
ATOM     28  C   UNL     1      -1.524  12.599  20.332  0.00  0.00    +0.000 A 
BRANCH  26  29
ATOM     29  N   UNL     1      -3.336  14.425  23.015  0.00  0.00    +0.000 N 
ATOM     30  C   UNL     1      -3.664  15.731  22.424  0.00  0.00    +0.000 C 
ATOM     31  C   UNL     1      -3.094  16.874  23.275  0.00  0.00    +0.000 C 
ATOM     32  O   UNL     1      -3.507  16.767  24.648  0.00  0.00    +0.000 OA
ATOM     33  C   UNL     1      -3.058  15.521  25.204  0.00  0.00    +0.000 C 
ATOM     34  C   UNL     1      -3.645  14.314  24.450  0.00  0.00    +0.000 C 
ENDBRANCH  26  29
ENDBRANCH  22  23
ENDBRANCH   6  21
TORSDOF 6
ENDMDL
MODEL 8
REMARK VINA RESULT:      -7.2      1.293      1.443
REMARK  Name = 
REMARK  9 active torsions:
REMARK  status: ('A' for Active; 'I' for Inactive)
REMARK    1  A    between atoms: C_1  and  C_2
REMARK    2  A    between atoms: C_2  and  O_3
REMARK    3  A    between atoms: O_3  and  C_4
REMARK    4  A    between atoms: C_6  and  C_7
REMARK    5  A    between atoms: C_8  and  C_9
REMARK    6  A    between atoms: C_14  and  C_16
REMARK    7  A    between atoms: C_17  and  C_18
REMARK    8  A    between atoms: C_21  and  N_22
REMARK    9  A    between atoms: C_31  and  C_32
REMARK                            x       y       z     vdW  Elec       q    Type
REMARK                         _______ _______ _______ _____ _____    ______ ____
ROOT
ATOM      1  C   UNL     1       3.428   5.742  18.586  0.00  0.00    +0.000 A 
ATOM      2  C   UNL     1       2.925   5.021  19.656  0.00  0.00    +0.000 A 
ATOM      3  S   UNL     1       2.031   6.054  20.708  0.00  0.00    +0.000 S 
ATOM      4  C   UNL     1       2.208   7.309  19.571  0.00  0.00    +0.000 A 
ATOM      5  N   UNL     1       1.498   8.449  19.838  0.00  0.00    +0.000 N 
ATOM      6  C   UNL     1       1.239   9.359  18.845  0.00  0.00    +0.000 C 
ATOM      7  O   UNL     1       1.510   9.237  17.650  0.00  0.00    +0.000 OA
ATOM      8  N   UNL     1       2.997   7.058  18.562  0.00  0.00    +0.000 NA
ATOM      9  H   UNL     1       1.076   8.526  20.749  0.00  0.00    +0.000 HD
ENDROOT
BRANCH   1  14
ATOM     10  C   UNL     1       5.862   4.091  15.403  0.00  0.00    +0.000 A 
ATOM     11  C   UNL     1       4.678   3.484  15.792  0.00  0.00    +0.000 A 
ATOM     12  C   UNL     1       3.885   4.018  16.829  0.00  0.00    +0.000 A 
ATOM     13  C   UNL     1       2.619   3.255  17.154  0.00  0.00    +0.000 C 
ATOM     14  C   UNL     1       4.280   5.211  17.504  0.00  0.00    +0.000 A 
ATOM     15  C   UNL     1       5.472   5.850  17.073  0.00  0.00    +0.000 A 
ATOM     16  C   UNL     1       6.021   7.149  17.605  0.00  0.00    +0.000 C 
ATOM     17  C   UNL     1       6.244   5.267  16.041  0.00  0.00    +0.000 A 
BRANCH  10  18
ATOM     18  O   UNL     1       6.708   3.645  14.423  0.00  0.00    +0.000 OA
BRANCH  18  20
ATOM     19  C   UNL     1       5.886   3.256  12.204  0.00  0.00    +0.000 C 
ATOM     20  C   UNL     1       6.555   4.248  13.136  0.00  0.00    +0.000 C 
ENDBRANCH  18  20
ENDBRANCH  10  18
ENDBRANCH   1  14
BRANCH   6  21
ATOM     21  C   UNL     1       0.529  10.571  19.335  0.00  0.00    +0.000 C 
ATOM     22  C   UNL     1      -0.297  10.438  20.386  0.00  0.00    +0.000 C 
BRANCH  22  23
ATOM     23  C   UNL     1      -1.167  11.484  20.939  0.00  0.00    +0.000 A 
ATOM     24  C   UNL     1      -1.130  11.702  22.319  0.00  0.00    +0.000 A 
ATOM     25  C   UNL     1      -1.930  12.685  22.916  0.00  0.00    +0.000 A 
ATOM     26  C   UNL     1      -2.793  13.487  22.163  0.00  0.00    +0.000 A 
ATOM     27  C   UNL     1      -2.802  13.268  20.776  0.00  0.00    +0.000 A 
ATOM     28  C   UNL     1      -1.999  12.291  20.167  0.00  0.00    +0.000 A 
BRANCH  26  29
ATOM     29  N   UNL     1      -3.580  14.466  22.732  0.00  0.00    +0.000 N 
ATOM     30  C   UNL     1      -4.277  14.295  24.016  0.00  0.00    +0.000 C 
ATOM     31  C   UNL     1      -5.798  14.365  23.825  0.00  0.00    +0.000 C 
ATOM     32  O   UNL     1      -6.190  15.564  23.136  0.00  0.00    +0.000 OA
ATOM     33  C   UNL     1      -5.569  15.618  21.842  0.00  0.00    +0.000 C 
ATOM     34  C   UNL     1      -4.033  15.626  21.947  0.00  0.00    +0.000 C 
ENDBRANCH  26  29
ENDBRANCH  22  23
ENDBRANCH   6  21
TORSDOF 6
ENDMDL
MODEL 9
REMARK VINA RESULT:      -7.2      2.681     13.052
REMARK  Name = 
REMARK  9 active torsions:
REMARK  status: ('A' for Active; 'I' for Inactive)
REMARK    1  A    between atoms: C_1  and  C_2
REMARK    2  A    between atoms: C_2  and  O_3
REMARK    3  A    between atoms: O_3  and  C_4
REMARK    4  A    between atoms: C_6  and  C_7
REMARK    5  A    between atoms: C_8  and  C_9
REMARK    6  A    between atoms: C_14  and  C_16
REMARK    7  A    between atoms: C_17  and  C_18
REMARK    8  A    between atoms: C_21  and  N_22
REMARK    9  A    between atoms: C_31  and  C_32
REMARK                            x       y       z     vdW  Elec       q    Type
REMARK                         _______ _______ _______ _____ _____    ______ ____
ROOT
ATOM      1  C   UNL     1      -3.196  12.919  20.338  0.00  0.00    +0.000 A 
ATOM      2  C   UNL     1      -3.782  12.484  19.160  0.00  0.00    +0.000 A 
ATOM      3  S   UNL     1      -2.744  11.372  18.349  0.00  0.00    +0.000 S 
ATOM      4  C   UNL     1      -1.712  11.399  19.703  0.00  0.00    +0.000 A 
ATOM      5  N   UNL     1      -0.685  10.494  19.678  0.00  0.00    +0.000 N 
ATOM      6  C   UNL     1      -0.036  10.142  20.835  0.00  0.00    +0.000 C 
ATOM      7  O   UNL     1      -0.329  10.497  21.977  0.00  0.00    +0.000 OA
ATOM      8  N   UNL     1      -2.004  12.275  20.626  0.00  0.00    +0.000 NA
ATOM      9  H   UNL     1      -0.515  10.015  18.810  0.00  0.00    +0.000 HD
ENDROOT
BRANCH   1  14
ATOM     10  C   UNL     1      -4.764  15.890  23.076  0.00  0.00    +0.000 A 
ATOM     11  C   UNL     1      -3.630  16.138  22.317  0.00  0.00    +0.000 A 
ATOM     12  C   UNL     1      -3.117  15.171  21.427  0.00  0.00    +0.000 A 
ATOM     13  C   UNL     1      -1.873  15.570  20.662  0.00  0.00    +0.000 C 
ATOM     14  C   UNL     1      -3.761  13.908  21.277  0.00  0.00    +0.000 A 
ATOM     15  C   UNL     1      -4.945  13.676  22.026  0.00  0.00    +0.000 A 
ATOM     16  C   UNL     1      -5.808  12.442  21.956  0.00  0.00    +0.000 C 
ATOM     17  C   UNL     1      -5.412  14.669  22.919  0.00  0.00    +0.000 A 
BRANCH  10  18
ATOM     18  O   UNL     1      -5.331  16.752  23.976  0.00  0.00    +0.000 OA
BRANCH  18  20
ATOM     19  C   UNL     1      -3.767  18.024  25.277  0.00  0.00    +0.000 C 
ATOM     20  C   UNL     1      -4.716  18.037  24.092  0.00  0.00    +0.000 C 
ENDBRANCH  18  20
ENDBRANCH  10  18
ENDBRANCH   1  14
BRANCH   6  21
ATOM     21  C   UNL     1       1.102   9.212  20.605  0.00  0.00    +0.000 C 
ATOM     22  C   UNL     1       1.276   8.719  19.368  0.00  0.00    +0.000 C 
BRANCH  22  23
ATOM     23  C   UNL     1       2.263   7.707  18.971  0.00  0.00    +0.000 A 
ATOM     24  C   UNL     1       3.051   7.968  17.846  0.00  0.00    +0.000 A 
ATOM     25  C   UNL     1       4.015   7.049  17.411  0.00  0.00    +0.000 A 
ATOM     26  C   UNL     1       4.233   5.841  18.081  0.00  0.00    +0.000 A 
ATOM     27  C   UNL     1       3.448   5.605  19.220  0.00  0.00    +0.000 A 
ATOM     28  C   UNL     1       2.484   6.522  19.668  0.00  0.00    +0.000 A 
BRANCH  26  29
ATOM     29  N   UNL     1       5.185   4.930  17.673  0.00  0.00    +0.000 N 
ATOM     30  C   UNL     1       6.302   4.494  18.524  0.00  0.00    +0.000 C 
ATOM     31  C   UNL     1       7.648   4.905  17.911  0.00  0.00    +0.000 C 
ATOM     32  O   UNL     1       7.773   4.446  16.554  0.00  0.00    +0.000 OA
ATOM     33  C   UNL     1       6.721   4.997  15.746  0.00  0.00    +0.000 C 
ATOM     34  C   UNL     1       5.330   4.572  16.252  0.00  0.00    +0.000 C 
ENDBRANCH  26  29
ENDBRANCH  22  23
ENDBRANCH   6  21
TORSDOF 6
ENDMDL
