MODEL 1
REMARK VINA RESULT:      -8.5      0.000      0.000
REMARK  Name = 
REMARK  7 active torsions:
REMARK  status: ('A' for Active; 'I' for Inactive)
REMARK    1  A    between atoms: C_1  and  O_2
REMARK    2  A    between atoms: O_2  and  C_3
REMARK    3  A    between atoms: C_12  and  O_13
REMARK    4  A    between atoms: C_15  and  C_16
REMARK    5  A    between atoms: C_16  and  S_17
REMARK    6  A    between atoms: S_17  and  C_18
REMARK    7  A    between atoms: C_29  and  C_30
REMARK                            x       y       z     vdW  Elec       q    Type
REMARK                         _______ _______ _______ _____ _____    ______ ____
ROOT
ATOM      1  C   UNL     1       2.303   7.569  19.514  0.00  0.00    +0.000 A 
ATOM      2  C   UNL     1       2.179   8.183  18.273  0.00  0.00    +0.000 A 
ATOM      3  C   UNL     1       1.324   9.286  18.114  0.00  0.00    +0.000 A 
ATOM      4  C   UNL     1       0.594   9.813  19.177  0.00  0.00    +0.000 A 
ATOM      5  N   UNL     1      -0.225  10.863  18.989  0.00  0.00    +0.000 NA
ATOM      6  C   UNL     1      -0.902  11.331  20.050  0.00  0.00    +0.000 A 
ATOM      7  N   UNL     1      -1.800  12.364  19.835  0.00  0.00    +0.000 N 
ATOM      8  C   UNL     1      -2.889  12.682  20.633  0.00  0.00    +0.000 A 
ATOM      9  N   UNL     1      -2.908  12.350  21.932  0.00  0.00    +0.000 NA
ATOM     10  C   UNL     1      -4.018  12.619  22.607  0.00  0.00    +0.000 A 
ATOM     11  C   UNL     1      -5.130  13.208  22.089  0.00  0.00    +0.000 A 
ATOM     12  C   UNL     1      -5.046  13.538  20.751  0.00  0.00    +0.000 A 
ATOM     13  N   UNL     1      -3.919  13.297  20.026  0.00  0.00    +0.000 NA
ATOM     14  N   UNL     1      -0.778  10.814  21.280  0.00  0.00    +0.000 NA
ATOM     15  C   UNL     1       0.027   9.763  21.465  0.00  0.00    +0.000 A 
ATOM     16  C   UNL     1       0.061   9.227  22.867  0.00  0.00    +0.000 C 
ATOM     17  C   UNL     1       0.756   9.205  20.426  0.00  0.00    +0.000 A 
ATOM     18  C   UNL     1       1.610   8.099  20.593  0.00  0.00    +0.000 A 
ATOM     19  H   UNL     1      -1.949  12.566  18.863  0.00  0.00    +0.000 HD
ENDROOT
BRANCH   1  21
ATOM     20  C   UNL     1       2.482   5.229  19.705  0.00  0.00    +0.000 C 
ATOM     21  O   UNL     1       3.141   6.493  19.600  0.00  0.00    +0.000 OA
ENDBRANCH   1  21
BRANCH  10  22
ATOM     22  O   UNL     1      -3.965  12.234  23.908  0.00  0.00    +0.000 OA
ATOM     23  H   UNL     1      -4.579  11.474  23.879  0.00  0.00    +0.000 HD
ENDBRANCH  10  22
BRANCH  12  24
ATOM     24  C   UNL     1      -6.213  14.198  20.043  0.00  0.00    +0.000 C 
BRANCH  24  25
ATOM     25  S   UNL     1      -7.223  12.991  19.112  0.00  0.00    +0.000 S 
BRANCH  25  26
ATOM     26  C   UNL     1      -6.021  12.166  18.191  0.00  0.00    +0.000 A 
ATOM     27  N   UNL     1      -5.601  12.455  16.985  0.00  0.00    +0.000 NA
ATOM     28  C   UNL     1      -4.596  11.543  16.734  0.00  0.00    +0.000 A 
ATOM     29  C   UNL     1      -3.773  11.406  15.607  0.00  0.00    +0.000 A 
ATOM     30  C   UNL     1      -2.796  10.404  15.599  0.00  0.00    +0.000 A 
ATOM     31  C   UNL     1      -2.650   9.538  16.687  0.00  0.00    +0.000 A 
ATOM     32  C   UNL     1      -3.473   9.648  17.818  0.00  0.00    +0.000 A 
ATOM     33  C   UNL     1      -4.432  10.667  17.806  0.00  0.00    +0.000 A 
ATOM     34  N   UNL     1      -5.372  11.080  18.719  0.00  0.00    +0.000 N 
ATOM     35  H   UNL     1      -5.544  10.689  19.630  0.00  0.00    +0.000 HD
ENDBRANCH  25  26
ENDBRANCH  24  25
ENDBRANCH  12  24
TORSDOF 5
ENDMDL
MODEL 2
REMARK VINA RESULT:      -8.4      5.931     10.177
REMARK  Name = 
REMARK  7 active torsions:
REMARK  status: ('A' for Active; 'I' for Inactive)
REMARK    1  A    between atoms: C_1  and  O_2
REMARK    2  A    between atoms: O_2  and  C_3
REMARK    3  A    between atoms: C_12  and  O_13
REMARK    4  A    between atoms: C_15  and  C_16
REMARK    5  A    between atoms: C_16  and  S_17
REMARK    6  A    between atoms: S_17  and  C_18
REMARK    7  A    between atoms: C_29  and  C_30
REMARK                            x       y       z     vdW  Elec       q    Type
REMARK                         _______ _______ _______ _____ _____    ______ ____
ROOT
ATOM      1  C   UNL     1       0.638  13.795  19.556  0.00  0.00    +0.000 A 
ATOM      2  C   UNL     1       1.588  13.925  18.549  0.00  0.00    +0.000 A 
ATOM      3  C   UNL     1       2.204  12.784  18.010  0.00  0.00    +0.000 A 
ATOM      4  C   UNL     1       1.881  11.499  18.439  0.00  0.00    +0.000 A 
ATOM      5  N   UNL     1       2.499  10.427  17.911  0.00  0.00    +0.000 NA
ATOM      6  C   UNL     1       2.146   9.212  18.360  0.00  0.00    +0.000 A 
ATOM      7  N   UNL     1       2.838   8.118  17.866  0.00  0.00    +0.000 N 
ATOM      8  C   UNL     1       2.968   6.883  18.484  0.00  0.00    +0.000 A 
ATOM      9  N   UNL     1       2.051   6.458  19.367  0.00  0.00    +0.000 NA
ATOM     10  C   UNL     1       2.288   5.302  19.973  0.00  0.00    +0.000 A 
ATOM     11  C   UNL     1       3.379   4.515  19.766  0.00  0.00    +0.000 A 
ATOM     12  C   UNL     1       4.279   4.999  18.838  0.00  0.00    +0.000 A 
ATOM     13  N   UNL     1       4.065   6.170  18.179  0.00  0.00    +0.000 NA
ATOM     14  N   UNL     1       1.197   9.025  19.287  0.00  0.00    +0.000 NA
ATOM     15  C   UNL     1       0.591  10.090  19.822  0.00  0.00    +0.000 A 
ATOM     16  C   UNL     1      -0.422   9.779  20.884  0.00  0.00    +0.000 C 
ATOM     17  C   UNL     1       0.899  11.384  19.428  0.00  0.00    +0.000 A 
ATOM     18  C   UNL     1       0.278  12.522  19.973  0.00  0.00    +0.000 A 
ATOM     19  H   UNL     1       3.637   8.369  17.312  0.00  0.00    +0.000 HD
ENDROOT
BRANCH   1  21
ATOM     20  C   UNL     1       0.769  16.143  19.680  0.00  0.00    +0.000 C 
ATOM     21  O   UNL     1       0.083  14.944  20.047  0.00  0.00    +0.000 OA
ENDBRANCH   1  21
BRANCH  10  22
ATOM     22  O   UNL     1       1.325   4.954  20.865  0.00  0.00    +0.000 OA
ATOM     23  H   UNL     1       0.600   4.738  20.246  0.00  0.00    +0.000 HD
ENDBRANCH  10  22
BRANCH  12  24
ATOM     24  C   UNL     1       5.541   4.224  18.509  0.00  0.00    +0.000 C 
BRANCH  24  25
ATOM     25  S   UNL     1       6.836   5.295  17.788  0.00  0.00    +0.000 S 
BRANCH  25  26
ATOM     26  C   UNL     1       6.787   4.830  16.127  0.00  0.00    +0.000 A 
ATOM     27  N   UNL     1       6.011   3.935  15.571  0.00  0.00    +0.000 NA
ATOM     28  C   UNL     1       6.316   3.992  14.226  0.00  0.00    +0.000 A 
ATOM     29  C   UNL     1       5.766   3.275  13.153  0.00  0.00    +0.000 A 
ATOM     30  C   UNL     1       6.231   3.530  11.858  0.00  0.00    +0.000 A 
ATOM     31  C   UNL     1       7.242   4.471  11.634  0.00  0.00    +0.000 A 
ATOM     32  C   UNL     1       7.816   5.188  12.693  0.00  0.00    +0.000 A 
ATOM     33  C   UNL     1       7.322   4.924  13.976  0.00  0.00    +0.000 A 
ATOM     34  N   UNL     1       7.618   5.433  15.218  0.00  0.00    +0.000 N 
ATOM     35  H   UNL     1       8.294   6.145  15.434  0.00  0.00    +0.000 HD
ENDBRANCH  25  26
ENDBRANCH  24  25
ENDBRANCH  12  24
TORSDOF 5
ENDMDL
MODEL 3
REMARK VINA RESULT:      -8.1      4.682      9.612
REMARK  Name = 
REMARK  7 active torsions:
REMARK  status: ('A' for Active; 'I' for Inactive)
REMARK    1  A    between atoms: C_1  and  O_2
REMARK    2  A    between atoms: O_2  and  C_3
REMARK    3  A    between atoms: C_12  and  O_13
REMARK    4  A    between atoms: C_15  and  C_16
REMARK    5  A    between atoms: C_16  and  S_17
REMARK    6  A    between atoms: S_17  and  C_18
REMARK    7  A    between atoms: C_29  and  C_30
REMARK                            x       y       z     vdW  Elec       q    Type
REMARK                         _______ _______ _______ _____ _____    ______ ____
ROOT
ATOM      1  C   UNL     1      -1.973  13.364  22.068  0.00  0.00    +0.000 A 
ATOM      2  C   UNL     1      -2.221  12.542  23.161  0.00  0.00    +0.000 A 
ATOM      3  C   UNL     1      -1.600  11.285  23.254  0.00  0.00    +0.000 A 
ATOM      4  C   UNL     1      -0.712  10.828  22.284  0.00  0.00    +0.000 A 
ATOM      5  N   UNL     1      -0.144   9.614  22.396  0.00  0.00    +0.000 NA
ATOM      6  C   UNL     1       0.707   9.225  21.432  0.00  0.00    +0.000 A 
ATOM      7  N   UNL     1       1.231   7.946  21.515  0.00  0.00    +0.000 N 
ATOM      8  C   UNL     1       1.731   7.195  20.461  0.00  0.00    +0.000 A 
ATOM      9  N   UNL     1       2.210   7.793  19.359  0.00  0.00    +0.000 NA
ATOM     10  C   UNL     1       2.595   7.004  18.365  0.00  0.00    +0.000 A 
ATOM     11  C   UNL     1       2.551   5.644  18.378  0.00  0.00    +0.000 A 
ATOM     12  C   UNL     1       2.062   5.087  19.542  0.00  0.00    +0.000 A 
ATOM     13  N   UNL     1       1.673   5.859  20.594  0.00  0.00    +0.000 NA
ATOM     14  N   UNL     1       1.025   9.999  20.386  0.00  0.00    +0.000 NA
ATOM     15  C   UNL     1       0.451  11.201  20.266  0.00  0.00    +0.000 A 
ATOM     16  C   UNL     1       0.837  11.971  19.038  0.00  0.00    +0.000 C 
ATOM     17  C   UNL     1      -0.448  11.681  21.207  0.00  0.00    +0.000 A 
ATOM     18  C   UNL     1      -1.066  12.940  21.107  0.00  0.00    +0.000 A 
ATOM     19  H   UNL     1       0.805   7.386  22.232  0.00  0.00    +0.000 HD
ENDROOT
BRANCH   1  21
ATOM     20  C   UNL     1      -1.757  15.708  22.092  0.00  0.00    +0.000 C 
ATOM     21  O   UNL     1      -2.618  14.569  22.030  0.00  0.00    +0.000 OA
ENDBRANCH   1  21
BRANCH  10  22
ATOM     22  O   UNL     1       3.047   7.685  17.280  0.00  0.00    +0.000 OA
ATOM     23  H   UNL     1       3.647   7.013  16.903  0.00  0.00    +0.000 HD
ENDBRANCH  10  22
BRANCH  12  24
ATOM     24  C   UNL     1       1.955   3.583  19.693  0.00  0.00    +0.000 C 
BRANCH  24  25
ATOM     25  S   UNL     1       3.578   2.808  20.028  0.00  0.00    +0.000 S 
BRANCH  25  26
ATOM     26  C   UNL     1       4.497   3.321  18.661  0.00  0.00    +0.000 A 
ATOM     27  N   UNL     1       4.214   3.143  17.396  0.00  0.00    +0.000 NA
ATOM     28  C   UNL     1       5.221   3.794  16.714  0.00  0.00    +0.000 A 
ATOM     29  C   UNL     1       5.409   3.956  15.334  0.00  0.00    +0.000 A 
ATOM     30  C   UNL     1       6.511   4.690  14.880  0.00  0.00    +0.000 A 
ATOM     31  C   UNL     1       7.425   5.239  15.784  0.00  0.00    +0.000 A 
ATOM     32  C   UNL     1       7.266   5.077  17.168  0.00  0.00    +0.000 A 
ATOM     33  C   UNL     1       6.148   4.351  17.595  0.00  0.00    +0.000 A 
ATOM     34  N   UNL     1       5.666   4.016  18.838  0.00  0.00    +0.000 N 
ATOM     35  H   UNL     1       6.068   4.258  19.728  0.00  0.00    +0.000 HD
ENDBRANCH  25  26
ENDBRANCH  24  25
ENDBRANCH  12  24
TORSDOF 5
ENDMDL
MODEL 4
REMARK VINA RESULT:      -8.1      5.858     10.127
REMARK  Name = 
REMARK  7 active torsions:
REMARK  status: ('A' for Active; 'I' for Inactive)
REMARK    1  A    between atoms: C_1  and  O_2
REMARK    2  A    between atoms: O_2  and  C_3
REMARK    3  A    between atoms: C_12  and  O_13
REMARK    4  A    between atoms: C_15  and  C_16
REMARK    5  A    between atoms: C_16  and  S_17
REMARK    6  A    between atoms: S_17  and  C_18
REMARK    7  A    between atoms: C_29  and  C_30
REMARK                            x       y       z     vdW  Elec       q    Type
REMARK                         _______ _______ _______ _____ _____    ______ ____
ROOT
ATOM      1  C   UNL     1       0.332  13.386  20.014  0.00  0.00    +0.000 A 
ATOM      2  C   UNL     1       1.109  13.585  18.879  0.00  0.00    +0.000 A 
ATOM      3  C   UNL     1       1.739  12.496  18.255  0.00  0.00    +0.000 A 
ATOM      4  C   UNL     1       1.597  11.193  18.726  0.00  0.00    +0.000 A 
ATOM      5  N   UNL     1       2.224  10.173  18.112  0.00  0.00    +0.000 NA
ATOM      6  C   UNL     1       2.049   8.937  18.607  0.00  0.00    +0.000 A 
ATOM      7  N   UNL     1       2.756   7.903  18.017  0.00  0.00    +0.000 N 
ATOM      8  C   UNL     1       3.083   6.691  18.609  0.00  0.00    +0.000 A 
ATOM      9  N   UNL     1       2.346   6.199  19.617  0.00  0.00    +0.000 NA
ATOM     10  C   UNL     1       2.771   5.076  20.181  0.00  0.00    +0.000 A 
ATOM     11  C   UNL     1       3.885   4.384  19.815  0.00  0.00    +0.000 A 
ATOM     12  C   UNL     1       4.594   4.934  18.766  0.00  0.00    +0.000 A 
ATOM     13  N   UNL     1       4.183   6.074  18.146  0.00  0.00    +0.000 NA
ATOM     14  N   UNL     1       1.266   8.680  19.664  0.00  0.00    +0.000 NA
ATOM     15  C   UNL     1       0.653   9.694  20.282  0.00  0.00    +0.000 A 
ATOM     16  C   UNL     1      -0.162   9.309  21.482  0.00  0.00    +0.000 C 
ATOM     17  C   UNL     1       0.784  11.005  19.848  0.00  0.00    +0.000 A 
ATOM     18  C   UNL     1       0.151  12.091  20.479  0.00  0.00    +0.000 A 
ATOM     19  H   UNL     1       3.440   8.215  17.352  0.00  0.00    +0.000 HD
ENDROOT
BRANCH   1  21
ATOM     20  C   UNL     1      -1.654  14.598  20.373  0.00  0.00    +0.000 C 
ATOM     21  O   UNL     1      -0.245  14.487  20.582  0.00  0.00    +0.000 OA
ENDBRANCH   1  21
BRANCH  10  22
ATOM     22  O   UNL     1       1.984   4.655  21.205  0.00  0.00    +0.000 OA
ATOM     23  H   UNL     1       1.132   4.576  20.732  0.00  0.00    +0.000 HD
ENDBRANCH  10  22
BRANCH  12  24
ATOM     24  C   UNL     1       5.857   4.269  18.256  0.00  0.00    +0.000 C 
BRANCH  24  25
ATOM     25  S   UNL     1       6.985   5.463  17.451  0.00  0.00    +0.000 S 
BRANCH  25  26
ATOM     26  C   UNL     1       6.812   5.040  15.788  0.00  0.00    +0.000 A 
ATOM     27  N   UNL     1       7.594   5.374  14.793  0.00  0.00    +0.000 NA
ATOM     28  C   UNL     1       7.061   4.733  13.694  0.00  0.00    +0.000 A 
ATOM     29  C   UNL     1       7.510   4.711  12.366  0.00  0.00    +0.000 A 
ATOM     30  C   UNL     1       6.801   3.956  11.423  0.00  0.00    +0.000 A 
ATOM     31  C   UNL     1       5.652   3.249  11.791  0.00  0.00    +0.000 A 
ATOM     32  C   UNL     1       5.177   3.270  13.110  0.00  0.00    +0.000 A 
ATOM     33  C   UNL     1       5.911   4.020  14.035  0.00  0.00    +0.000 A 
ATOM     34  N   UNL     1       5.766   4.251  15.382  0.00  0.00    +0.000 N 
ATOM     35  H   UNL     1       5.048   3.886  15.984  0.00  0.00    +0.000 HD
ENDBRANCH  25  26
ENDBRANCH  24  25
ENDBRANCH  12  24
TORSDOF 5
ENDMDL
MODEL 5
REMARK VINA RESULT:      -8.1      5.725     10.052
REMARK  Name = 
REMARK  7 active torsions:
REMARK  status: ('A' for Active; 'I' for Inactive)
REMARK    1  A    between atoms: C_1  and  O_2
REMARK    2  A    between atoms: O_2  and  C_3
REMARK    3  A    between atoms: C_12  and  O_13
REMARK    4  A    between atoms: C_15  and  C_16
REMARK    5  A    between atoms: C_16  and  S_17
REMARK    6  A    between atoms: S_17  and  C_18
REMARK    7  A    between atoms: C_29  and  C_30
REMARK                            x       y       z     vdW  Elec       q    Type
REMARK                         _______ _______ _______ _____ _____    ______ ____
ROOT
ATOM      1  C   UNL     1      -0.090  12.851  21.552  0.00  0.00    +0.000 A 
ATOM      2  C   UNL     1       0.610  13.198  20.401  0.00  0.00    +0.000 A 
ATOM      3  C   UNL     1       1.217  12.204  19.618  0.00  0.00    +0.000 A 
ATOM      4  C   UNL     1       1.130  10.852  19.943  0.00  0.00    +0.000 A 
ATOM      5  N   UNL     1       1.734   9.925  19.179  0.00  0.00    +0.000 NA
ATOM      6  C   UNL     1       1.613   8.637  19.538  0.00  0.00    +0.000 A 
ATOM      7  N   UNL     1       2.299   7.694  18.789  0.00  0.00    +0.000 N 
ATOM      8  C   UNL     1       2.685   6.432  19.216  0.00  0.00    +0.000 A 
ATOM      9  N   UNL     1       2.024   5.810  20.204  0.00  0.00    +0.000 NA
ATOM     10  C   UNL     1       2.505   4.641  20.608  0.00  0.00    +0.000 A 
ATOM     11  C   UNL     1       3.605   4.024  20.096  0.00  0.00    +0.000 A 
ATOM     12  C   UNL     1       4.234   4.707  19.075  0.00  0.00    +0.000 A 
ATOM     13  N   UNL     1       3.764   5.900  18.617  0.00  0.00    +0.000 NA
ATOM     14  N   UNL     1       0.905   8.241  20.604  0.00  0.00    +0.000 NA
ATOM     15  C   UNL     1       0.315   9.162  21.372  0.00  0.00    +0.000 A 
ATOM     16  C   UNL     1      -0.414   8.622  22.567  0.00  0.00    +0.000 C 
ATOM     17  C   UNL     1       0.394  10.517  21.084  0.00  0.00    +0.000 A 
ATOM     18  C   UNL     1      -0.217  11.508  21.875  0.00  0.00    +0.000 A 
ATOM     19  H   UNL     1       2.933   8.098  18.124  0.00  0.00    +0.000 HD
ENDROOT
BRANCH   1  21
ATOM     20  C   UNL     1      -0.212  15.175  21.906  0.00  0.00    +0.000 C 
ATOM     21  O   UNL     1      -0.648  13.866  22.278  0.00  0.00    +0.000 OA
ENDBRANCH   1  21
BRANCH  10  22
ATOM     22  O   UNL     1       1.793   4.086  21.622  0.00  0.00    +0.000 OA
ATOM     23  H   UNL     1       1.198   3.507  21.106  0.00  0.00    +0.000 HD
ENDBRANCH  10  22
BRANCH  12  24
ATOM     24  C   UNL     1       5.474   4.137  18.414  0.00  0.00    +0.000 C 
BRANCH  24  25
ATOM     25  S   UNL     1       6.600   5.448  17.818  0.00  0.00    +0.000 S 
BRANCH  25  26
ATOM     26  C   UNL     1       6.658   5.117  16.126  0.00  0.00    +0.000 A 
ATOM     27  N   UNL     1       7.552   5.524  15.262  0.00  0.00    +0.000 NA
ATOM     28  C   UNL     1       7.186   4.934  14.070  0.00  0.00    +0.000 A 
ATOM     29  C   UNL     1       7.804   4.997  12.813  0.00  0.00    +0.000 A 
ATOM     30  C   UNL     1       7.247   4.281  11.747  0.00  0.00    +0.000 A 
ATOM     31  C   UNL     1       6.082   3.529  11.922  0.00  0.00    +0.000 A 
ATOM     32  C   UNL     1       5.438   3.464  13.166  0.00  0.00    +0.000 A 
ATOM     33  C   UNL     1       6.024   4.178  14.218  0.00  0.00    +0.000 A 
ATOM     34  N   UNL     1       5.698   4.328  15.545  0.00  0.00    +0.000 N 
ATOM     35  H   UNL     1       4.918   3.913  16.027  0.00  0.00    +0.000 HD
ENDBRANCH  25  26
ENDBRANCH  24  25
ENDBRANCH  12  24
TORSDOF 5
ENDMDL
MODEL 6
REMARK VINA RESULT:      -8.0      4.672      9.647
REMARK  Name = 
REMARK  7 active torsions:
REMARK  status: ('A' for Active; 'I' for Inactive)
REMARK    1  A    between atoms: C_1  and  O_2
REMARK    2  A    between atoms: O_2  and  C_3
REMARK    3  A    between atoms: C_12  and  O_13
REMARK    4  A    between atoms: C_15  and  C_16
REMARK    5  A    between atoms: C_16  and  S_17
REMARK    6  A    between atoms: S_17  and  C_18
REMARK    7  A    between atoms: C_29  and  C_30
REMARK                            x       y       z     vdW  Elec       q    Type
REMARK                         _______ _______ _______ _____ _____    ______ ____
ROOT
ATOM      1  C   UNL     1      -1.951  13.415  22.061  0.00  0.00    +0.000 A 
ATOM      2  C   UNL     1      -2.175  12.603  23.167  0.00  0.00    +0.000 A 
ATOM      3  C   UNL     1      -1.547  11.351  23.262  0.00  0.00    +0.000 A 
ATOM      4  C   UNL     1      -0.674  10.887  22.281  0.00  0.00    +0.000 A 
ATOM      5  N   UNL     1      -0.097   9.677  22.396  0.00  0.00    +0.000 NA
ATOM      6  C   UNL     1       0.739   9.282  21.422  0.00  0.00    +0.000 A 
ATOM      7  N   UNL     1       1.270   8.007  21.510  0.00  0.00    +0.000 N 
ATOM      8  C   UNL     1       1.756   7.247  20.455  0.00  0.00    +0.000 A 
ATOM      9  N   UNL     1       2.212   7.836  19.339  0.00  0.00    +0.000 NA
ATOM     10  C   UNL     1       2.585   7.039  18.346  0.00  0.00    +0.000 A 
ATOM     11  C   UNL     1       2.547   5.678  18.374  0.00  0.00    +0.000 A 
ATOM     12  C   UNL     1       2.081   5.132  19.553  0.00  0.00    +0.000 A 
ATOM     13  N   UNL     1       1.706   5.913  20.603  0.00  0.00    +0.000 NA
ATOM     14  N   UNL     1       1.035  10.047  20.362  0.00  0.00    +0.000 NA
ATOM     15  C   UNL     1       0.453  11.244  20.241  0.00  0.00    +0.000 A 
ATOM     16  C   UNL     1       0.813  12.003  18.997  0.00  0.00    +0.000 C 
ATOM     17  C   UNL     1      -0.432  11.730  21.192  0.00  0.00    +0.000 A 
ATOM     18  C   UNL     1      -1.058  12.986  21.089  0.00  0.00    +0.000 A 
ATOM     19  H   UNL     1       0.860   7.452  22.239  0.00  0.00    +0.000 HD
ENDROOT
BRANCH   1  21
ATOM     20  C   UNL     1      -1.972  15.661  22.768  0.00  0.00    +0.000 C 
ATOM     21  O   UNL     1      -2.601  14.616  22.022  0.00  0.00    +0.000 OA
ENDBRANCH   1  21
BRANCH  10  22
ATOM     22  O   UNL     1       3.014   7.710  17.247  0.00  0.00    +0.000 OA
ATOM     23  H   UNL     1       2.320   8.398  17.195  0.00  0.00    +0.000 HD
ENDBRANCH  10  22
BRANCH  12  24
ATOM     24  C   UNL     1       1.984   3.628  19.721  0.00  0.00    +0.000 C 
BRANCH  24  25
ATOM     25  S   UNL     1       3.604   2.874  20.112  0.00  0.00    +0.000 S 
BRANCH  25  26
ATOM     26  C   UNL     1       4.596   3.508  18.852  0.00  0.00    +0.000 A 
ATOM     27  N   UNL     1       5.616   4.320  18.970  0.00  0.00    +0.000 NA
ATOM     28  C   UNL     1       6.102   4.465  17.687  0.00  0.00    +0.000 A 
ATOM     29  C   UNL     1       7.205   5.198  17.225  0.00  0.00    +0.000 A 
ATOM     30  C   UNL     1       7.515   5.169  15.860  0.00  0.00    +0.000 A 
ATOM     31  C   UNL     1       6.729   4.438  14.964  0.00  0.00    +0.000 A 
ATOM     32  C   UNL     1       5.613   3.711  15.402  0.00  0.00    +0.000 A 
ATOM     33  C   UNL     1       5.334   3.745  16.772  0.00  0.00    +0.000 A 
ATOM     34  N   UNL     1       4.364   3.155  17.547  0.00  0.00    +0.000 N 
ATOM     35  H   UNL     1       3.629   2.544  17.234  0.00  0.00    +0.000 HD
ENDBRANCH  25  26
ENDBRANCH  24  25
ENDBRANCH  12  24
TORSDOF 5
ENDMDL
MODEL 7
REMARK VINA RESULT:      -7.9      4.200      9.349
REMARK  Name = 
REMARK  7 active torsions:
REMARK  status: ('A' for Active; 'I' for Inactive)
REMARK    1  A    between atoms: C_1  and  O_2
REMARK    2  A    between atoms: O_2  and  C_3
REMARK    3  A    between atoms: C_12  and  O_13
REMARK    4  A    between atoms: C_15  and  C_16
REMARK    5  A    between atoms: C_16  and  S_17
REMARK    6  A    between atoms: S_17  and  C_18
REMARK    7  A    between atoms: C_29  and  C_30
REMARK                            x       y       z     vdW  Elec       q    Type
REMARK                         _______ _______ _______ _____ _____    ______ ____
ROOT
ATOM      1  C   UNL     1      -3.588  13.740  22.069  0.00  0.00    +0.000 A 
ATOM      2  C   UNL     1      -3.468  13.076  23.284  0.00  0.00    +0.000 A 
ATOM      3  C   UNL     1      -2.526  12.046  23.435  0.00  0.00    +0.000 A 
ATOM      4  C   UNL     1      -1.674  11.667  22.400  0.00  0.00    +0.000 A 
ATOM      5  N   UNL     1      -0.791  10.667  22.573  0.00  0.00    +0.000 NA
ATOM      6  C   UNL     1       0.007  10.346  21.542  0.00  0.00    +0.000 A 
ATOM      7  N   UNL     1       0.861   9.268  21.702  0.00  0.00    +0.000 N 
ATOM      8  C   UNL     1       1.411   8.500  20.686  0.00  0.00    +0.000 A 
ATOM      9  N   UNL     1       1.571   9.006  19.454  0.00  0.00    +0.000 NA
ATOM     10  C   UNL     1       2.029   8.183  18.519  0.00  0.00    +0.000 A 
ATOM     11  C   UNL     1       2.354   6.875  18.713  0.00  0.00    +0.000 A 
ATOM     12  C   UNL     1       2.180   6.417  20.004  0.00  0.00    +0.000 A 
ATOM     13  N   UNL     1       1.730   7.232  20.997  0.00  0.00    +0.000 NA
ATOM     14  N   UNL     1      -0.026  10.990  20.367  0.00  0.00    +0.000 NA
ATOM     15  C   UNL     1      -0.913  11.975  20.190  0.00  0.00    +0.000 A 
ATOM     16  C   UNL     1      -0.903  12.601  18.826  0.00  0.00    +0.000 C 
ATOM     17  C   UNL     1      -1.784  12.367  21.194  0.00  0.00    +0.000 A 
ATOM     18  C   UNL     1      -2.726  13.400  21.035  0.00  0.00    +0.000 A 
ATOM     19  H   UNL     1       0.694   8.748  22.544  0.00  0.00    +0.000 HD
ENDROOT
BRANCH   1  21
ATOM     20  C   UNL     1      -5.288  14.934  23.176  0.00  0.00    +0.000 C 
ATOM     21  O   UNL     1      -4.532  14.725  21.982  0.00  0.00    +0.000 OA
ENDBRANCH   1  21
BRANCH  10  22
ATOM     22  O   UNL     1       2.143   8.764  17.297  0.00  0.00    +0.000 OA
ATOM     23  H   UNL     1       2.447   7.994  16.778  0.00  0.00    +0.000 HD
ENDBRANCH  10  22
BRANCH  12  24
ATOM     24  C   UNL     1       2.501   4.979  20.362  0.00  0.00    +0.000 C 
BRANCH  24  25
ATOM     25  S   UNL     1       2.111   3.827  18.996  0.00  0.00    +0.000 S 
BRANCH  25  26
ATOM     26  C   UNL     1       3.506   3.988  17.995  0.00  0.00    +0.000 A 
ATOM     27  N   UNL     1       3.566   3.909  16.690  0.00  0.00    +0.000 NA
ATOM     28  C   UNL     1       4.884   4.175  16.381  0.00  0.00    +0.000 A 
ATOM     29  C   UNL     1       5.511   4.255  15.129  0.00  0.00    +0.000 A 
ATOM     30  C   UNL     1       6.874   4.567  15.072  0.00  0.00    +0.000 A 
ATOM     31  C   UNL     1       7.609   4.778  16.243  0.00  0.00    +0.000 A 
ATOM     32  C   UNL     1       7.005   4.688  17.506  0.00  0.00    +0.000 A 
ATOM     33  C   UNL     1       5.639   4.389  17.533  0.00  0.00    +0.000 A 
ATOM     34  N   UNL     1       4.731   4.245  18.555  0.00  0.00    +0.000 N 
ATOM     35  H   UNL     1       4.909   4.341  19.540  0.00  0.00    +0.000 HD
ENDBRANCH  25  26
ENDBRANCH  24  25
ENDBRANCH  12  24
TORSDOF 5
ENDMDL
MODEL 8
REMARK VINA RESULT:      -7.7      5.348     10.004
REMARK  Name = 
REMARK  7 active torsions:
REMARK  status: ('A' for Active; 'I' for Inactive)
REMARK    1  A    between atoms: C_1  and  O_2
REMARK    2  A    between atoms: O_2  and  C_3
REMARK    3  A    between atoms: C_12  and  O_13
REMARK    4  A    between atoms: C_15  and  C_16
REMARK    5  A    between atoms: C_16  and  S_17
REMARK    6  A    between atoms: S_17  and  C_18
REMARK    7  A    between atoms: C_29  and  C_30
REMARK                            x       y       z     vdW  Elec       q    Type
REMARK                         _______ _______ _______ _____ _____    ______ ____
ROOT
ATOM      1  C   UNL     1      -1.080  13.229  21.513  0.00  0.00    +0.000 A 
ATOM      2  C   UNL     1      -0.701  13.766  20.289  0.00  0.00    +0.000 A 
ATOM      3  C   UNL     1      -0.025  12.972  19.348  0.00  0.00    +0.000 A 
ATOM      4  C   UNL     1       0.270  11.632  19.590  0.00  0.00    +0.000 A 
ATOM      5  N   UNL     1       0.929  10.901  18.674  0.00  0.00    +0.000 NA
ATOM      6  C   UNL     1       1.184   9.614  18.959  0.00  0.00    +0.000 A 
ATOM      7  N   UNL     1       1.928   8.888  18.043  0.00  0.00    +0.000 N 
ATOM      8  C   UNL     1       2.672   7.749  18.312  0.00  0.00    +0.000 A 
ATOM      9  N   UNL     1       2.365   6.958  19.351  0.00  0.00    +0.000 NA
ATOM     10  C   UNL     1       3.174   5.933  19.588  0.00  0.00    +0.000 A 
ATOM     11  C   UNL     1       4.279   5.618  18.858  0.00  0.00    +0.000 A 
ATOM     12  C   UNL     1       4.535   6.460  17.795  0.00  0.00    +0.000 A 
ATOM     13  N   UNL     1       3.721   7.513  17.506  0.00  0.00    +0.000 NA
ATOM     14  N   UNL     1       0.793   9.029  20.099  0.00  0.00    +0.000 NA
ATOM     15  C   UNL     1       0.148   9.758  21.016  0.00  0.00    +0.000 A 
ATOM     16  C   UNL     1      -0.205   9.025  22.277  0.00  0.00    +0.000 C 
ATOM     17  C   UNL     1      -0.148  11.097  20.813  0.00  0.00    +0.000 A 
ATOM     18  C   UNL     1      -0.825  11.887  21.761  0.00  0.00    +0.000 A 
ATOM     19  H   UNL     1       2.319   9.452  17.310  0.00  0.00    +0.000 HD
ENDROOT
BRANCH   1  21
ATOM     20  C   UNL     1      -1.457  15.448  22.202  0.00  0.00    +0.000 C 
ATOM     21  O   UNL     1      -1.723  14.057  22.390  0.00  0.00    +0.000 OA
ENDBRANCH   1  21
BRANCH  10  22
ATOM     22  O   UNL     1       2.807   5.195  20.667  0.00  0.00    +0.000 OA
ATOM     23  H   UNL     1       1.947   5.615  20.868  0.00  0.00    +0.000 HD
ENDBRANCH  10  22
BRANCH  12  24
ATOM     24  C   UNL     1       5.735   6.229  16.898  0.00  0.00    +0.000 C 
BRANCH  24  25
ATOM     25  S   UNL     1       7.277   6.007  17.857  0.00  0.00    +0.000 S 
BRANCH  25  26
ATOM     26  C   UNL     1       7.832   7.633  18.007  0.00  0.00    +0.000 A 
ATOM     27  N   UNL     1       7.526   8.655  17.248  0.00  0.00    +0.000 NA
ATOM     28  C   UNL     1       8.171   9.729  17.826  0.00  0.00    +0.000 A 
ATOM     29  C   UNL     1       8.170  11.080  17.452  0.00  0.00    +0.000 A 
ATOM     30  C   UNL     1       8.892  11.998  18.224  0.00  0.00    +0.000 A 
ATOM     31  C   UNL     1       9.621  11.577  19.340  0.00  0.00    +0.000 A 
ATOM     32  C   UNL     1       9.648  10.228  19.724  0.00  0.00    +0.000 A 
ATOM     33  C   UNL     1       8.906   9.334  18.944  0.00  0.00    +0.000 A 
ATOM     34  N   UNL     1       8.683   7.980  19.025  0.00  0.00    +0.000 N 
ATOM     35  H   UNL     1       9.045   7.348  19.719  0.00  0.00    +0.000 HD
ENDBRANCH  25  26
ENDBRANCH  24  25
ENDBRANCH  12  24
TORSDOF 5
ENDMDL
MODEL 9
REMARK VINA RESULT:      -7.6      9.060     11.825
REMARK  Name = 
REMARK  7 active torsions:
REMARK  status: ('A' for Active; 'I' for Inactive)
REMARK    1  A    between atoms: C_1  and  O_2
REMARK    2  A    between atoms: O_2  and  C_3
REMARK    3  A    between atoms: C_12  and  O_13
REMARK    4  A    between atoms: C_15  and  C_16
REMARK    5  A    between atoms: C_16  and  S_17
REMARK    6  A    between atoms: S_17  and  C_18
REMARK    7  A    between atoms: C_29  and  C_30
REMARK                            x       y       z     vdW  Elec       q    Type
REMARK                         _______ _______ _______ _____ _____    ______ ____
ROOT
ATOM      1  C   UNL     1      10.797  14.072  19.198  0.00  0.00    +0.000 A 
ATOM      2  C   UNL     1      10.383  14.223  17.880  0.00  0.00    +0.000 A 
ATOM      3  C   UNL     1       9.642  13.208  17.253  0.00  0.00    +0.000 A 
ATOM      4  C   UNL     1       9.281  12.039  17.919  0.00  0.00    +0.000 A 
ATOM      5  N   UNL     1       8.582  11.081  17.286  0.00  0.00    +0.000 NA
ATOM      6  C   UNL     1       8.258   9.976  17.977  0.00  0.00    +0.000 A 
ATOM      7  N   UNL     1       7.603   8.962  17.299  0.00  0.00    +0.000 N 
ATOM      8  C   UNL     1       7.582   7.620  17.652  0.00  0.00    +0.000 A 
ATOM      9  N   UNL     1       7.772   7.243  18.926  0.00  0.00    +0.000 NA
ATOM     10  C   UNL     1       7.817   5.939  19.168  0.00  0.00    +0.000 A 
ATOM     11  C   UNL     1       7.678   4.960  18.232  0.00  0.00    +0.000 A 
ATOM     12  C   UNL     1       7.473   5.411  16.943  0.00  0.00    +0.000 A 
ATOM     13  N   UNL     1       7.402   6.739  16.654  0.00  0.00    +0.000 NA
ATOM     14  N   UNL     1       8.582   9.802  19.266  0.00  0.00    +0.000 NA
ATOM     15  C   UNL     1       9.289  10.749  19.893  0.00  0.00    +0.000 A 
ATOM     16  C   UNL     1       9.642  10.440  21.318  0.00  0.00    +0.000 C 
ATOM     17  C   UNL     1       9.676  11.918  19.255  0.00  0.00    +0.000 A 
ATOM     18  C   UNL     1      10.419  12.930  19.890  0.00  0.00    +0.000 A 
ATOM     19  H   UNL     1       7.558   9.110  16.307  0.00  0.00    +0.000 HD
ENDROOT
BRANCH   1  21
ATOM     20  C   UNL     1      11.819  16.165  18.852  0.00  0.00    +0.000 C 
ATOM     21  O   UNL     1      11.525  15.090  19.748  0.00  0.00    +0.000 OA
ENDBRANCH   1  21
BRANCH  10  22
ATOM     22  O   UNL     1       8.033   5.641  20.475  0.00  0.00    +0.000 OA
ATOM     23  H   UNL     1       7.291   6.133  20.879  0.00  0.00    +0.000 HD
ENDBRANCH  10  22
BRANCH  12  24
ATOM     24  C   UNL     1       7.305   4.429  15.800  0.00  0.00    +0.000 C 
BRANCH  24  25
ATOM     25  S   UNL     1       5.587   4.393  15.173  0.00  0.00    +0.000 S 
BRANCH  25  26
ATOM     26  C   UNL     1       4.683   4.278  16.638  0.00  0.00    +0.000 A 
ATOM     27  N   UNL     1       3.973   5.215  17.213  0.00  0.00    +0.000 NA
ATOM     28  C   UNL     1       3.402   4.602  18.309  0.00  0.00    +0.000 A 
ATOM     29  C   UNL     1       2.519   5.122  19.267  0.00  0.00    +0.000 A 
ATOM     30  C   UNL     1       2.052   4.283  20.285  0.00  0.00    +0.000 A 
ATOM     31  C   UNL     1       2.471   2.951  20.362  0.00  0.00    +0.000 A 
ATOM     32  C   UNL     1       3.365   2.414  19.424  0.00  0.00    +0.000 A 
ATOM     33  C   UNL     1       3.805   3.270  18.408  0.00  0.00    +0.000 A 
ATOM     34  N   UNL     1       4.641   3.096  17.332  0.00  0.00    +0.000 N 
ATOM     35  H   UNL     1       5.117   2.251  17.067  0.00  0.00    +0.000 HD
ENDBRANCH  25  26
ENDBRANCH  24  25
ENDBRANCH  12  24
TORSDOF 5
ENDMDL
