MODEL 1
REMARK VINA RESULT:      -6.8      0.000      0.000
REMARK  Name = 
REMARK  8 active torsions:
REMARK  status: ('A' for Active; 'I' for Inactive)
REMARK    1  A    between atoms: C_1  and  C_2
REMARK    2  A    between atoms: C_2  and  CA_3
REMARK    3  A    between atoms: CA_3  and  C_4
REMARK    4  A    between atoms: CA_3  and  N_6
REMARK    5  A    between atoms: C_4  and  O_5
REMARK    6  A    between atoms: C_7  and  C_9
REMARK    7  A    between atoms: N_20  and  C_21
REMARK    8  A    between atoms: N_24  and  C_25
REMARK                            x       y       z     vdW  Elec       q    Type
REMARK                         _______ _______ _______ _____ _____    ______ ____
ROOT
ATOM      1  C   UNL     1       1.097   8.723  18.590  0.00  0.00    +0.000 C 
ATOM      2  C   UNL     1       0.515   9.850  17.767  0.00  0.00    +0.000 C 
ATOM      3  C   UNL     1      -0.513  10.488  18.377  0.00  0.00    +0.000 C 
ATOM      4  C   UNL     1      -1.747  10.836  17.631  0.00  0.00    +0.000 A 
ATOM      5  C   UNL     1      -2.119  10.353  16.372  0.00  0.00    +0.000 A 
ATOM      6  C   UNL     1      -3.440  10.473  15.925  0.00  0.00    +0.000 A 
ATOM      7  C   UNL     1      -4.428  11.095  16.703  0.00  0.00    +0.000 A 
ATOM      8  C   UNL     1      -4.042  11.596  17.952  0.00  0.00    +0.000 A 
ATOM      9  C   UNL     1      -2.735  11.471  18.400  0.00  0.00    +0.000 A 
ATOM     10  C   UNL     1      -2.672  11.938  19.733  0.00  0.00    +0.000 A 
ATOM     11  C   UNL     1      -3.918  12.408  20.065  0.00  0.00    +0.000 A 
ATOM     12  N   UNL     1      -4.743  12.202  18.978  0.00  0.00    +0.000 N 
ATOM     13  C   UNL     1      -6.155  12.506  18.943  0.00  0.00    +0.000 C 
ATOM     14  C   UNL     1      -1.397  11.778  20.490  0.00  0.00    +0.000 C 
ATOM     15  C   UNL     1      -0.616  10.523  19.941  0.00  0.00    +0.000 C 
ATOM     16  N   UNL     1       0.742  10.375  20.523  0.00  0.00    +0.000 NA
ATOM     17  C   UNL     1       0.782  10.435  21.982  0.00  0.00    +0.000 C 
ATOM     18  C   UNL     1       1.371   9.115  20.062  0.00  0.00    +0.000 C 
ENDROOT
BRANCH   1  20
ATOM     19  N   UNL     1       2.054   6.421  18.281  0.00  0.00    +0.000 N 
ATOM     20  C   UNL     1       2.196   7.776  18.066  0.00  0.00    +0.000 C 
ATOM     21  O   UNL     1       3.252   8.234  17.612  0.00  0.00    +0.000 OA
ATOM     22  H   UNL     1       1.328   6.113  18.921  0.00  0.00    +0.000 HD
BRANCH  19  23
ATOM     23  CA  UNL     1       3.240   5.548  18.172  0.00  0.00    +0.000 C 
BRANCH  23  25
ATOM     24  C   UNL     1       1.472   3.746  17.909  0.00  0.00    +0.000 C 
ATOM     25  C   UNL     1       2.906   4.163  17.611  0.00  0.00    +0.000 C 
ENDBRANCH  23  25
BRANCH  23  26
ATOM     26  C   UNL     1       3.953   5.420  19.541  0.00  0.00    +0.000 C 
BRANCH  26  27
ATOM     27  O   UNL     1       2.998   5.498  20.612  0.00  0.00    +0.000 OA
ATOM     28  H   UNL     1       3.172   6.318  21.100  0.00  0.00    +0.000 HD
ENDBRANCH  26  27
ENDBRANCH  23  26
ENDBRANCH  19  23
ENDBRANCH   1  20
TORSDOF 5
ENDMDL
MODEL 2
REMARK VINA RESULT:      -6.8      3.997      7.955
REMARK  Name = 
REMARK  8 active torsions:
REMARK  status: ('A' for Active; 'I' for Inactive)
REMARK    1  A    between atoms: C_1  and  C_2
REMARK    2  A    between atoms: C_2  and  CA_3
REMARK    3  A    between atoms: CA_3  and  C_4
REMARK    4  A    between atoms: CA_3  and  N_6
REMARK    5  A    between atoms: C_4  and  O_5
REMARK    6  A    between atoms: C_7  and  C_9
REMARK    7  A    between atoms: N_20  and  C_21
REMARK    8  A    between atoms: N_24  and  C_25
REMARK                            x       y       z     vdW  Elec       q    Type
REMARK                         _______ _______ _______ _____ _____    ______ ____
ROOT
ATOM      1  C   UNL     1       1.564  10.850  19.163  0.00  0.00    +0.000 C 
ATOM      2  C   UNL     1       1.499   9.673  18.217  0.00  0.00    +0.000 C 
ATOM      3  C   UNL     1       1.732   8.482  18.819  0.00  0.00    +0.000 C 
ATOM      4  C   UNL     1       2.620   7.470  18.195  0.00  0.00    +0.000 A 
ATOM      5  C   UNL     1       3.495   7.682  17.124  0.00  0.00    +0.000 A 
ATOM      6  C   UNL     1       4.517   6.767  16.848  0.00  0.00    +0.000 A 
ATOM      7  C   UNL     1       4.690   5.603  17.611  0.00  0.00    +0.000 A 
ATOM      8  C   UNL     1       3.797   5.387  18.667  0.00  0.00    +0.000 A 
ATOM      9  C   UNL     1       2.787   6.296  18.946  0.00  0.00    +0.000 A 
ATOM     10  C   UNL     1       2.137   5.892  20.135  0.00  0.00    +0.000 A 
ATOM     11  C   UNL     1       2.703   4.707  20.532  0.00  0.00    +0.000 A 
ATOM     12  N   UNL     1       3.706   4.404  19.633  0.00  0.00    +0.000 N 
ATOM     13  C   UNL     1       4.586   3.262  19.732  0.00  0.00    +0.000 C 
ATOM     14  C   UNL     1       1.101   6.787  20.726  0.00  0.00    +0.000 C 
ATOM     15  C   UNL     1       1.419   8.283  20.342  0.00  0.00    +0.000 C 
ATOM     16  N   UNL     1       0.354   9.234  20.750  0.00  0.00    +0.000 NA
ATOM     17  C   UNL     1      -0.058   9.115  22.147  0.00  0.00    +0.000 C 
ATOM     18  C   UNL     1       0.769  10.629  20.474  0.00  0.00    +0.000 C 
ENDROOT
BRANCH   1  20
ATOM     19  N   UNL     1       2.598  13.073  18.616  0.00  0.00    +0.000 N 
ATOM     20  C   UNL     1       1.448  12.315  18.698  0.00  0.00    +0.000 C 
ATOM     21  O   UNL     1       0.337  12.841  18.560  0.00  0.00    +0.000 OA
ATOM     22  H   UNL     1       3.447  12.697  19.028  0.00  0.00    +0.000 HD
BRANCH  19  23
ATOM     23  CA  UNL     1       2.488  14.545  18.581  0.00  0.00    +0.000 C 
BRANCH  23  25
ATOM     24  C   UNL     1       3.187  16.534  17.168  0.00  0.00    +0.000 C 
ATOM     25  C   UNL     1       3.612  15.204  17.777  0.00  0.00    +0.000 C 
ENDBRANCH  23  25
BRANCH  23  26
ATOM     26  C   UNL     1       2.437  15.125  20.016  0.00  0.00    +0.000 C 
BRANCH  26  27
ATOM     27  O   UNL     1       1.076  15.330  20.425  0.00  0.00    +0.000 OA
ATOM     28  H   UNL     1       0.920  16.288  20.455  0.00  0.00    +0.000 HD
ENDBRANCH  26  27
ENDBRANCH  23  26
ENDBRANCH  19  23
ENDBRANCH   1  20
TORSDOF 5
ENDMDL
MODEL 3
REMARK VINA RESULT:      -6.8      3.410      8.313
REMARK  Name = 
REMARK  8 active torsions:
REMARK  status: ('A' for Active; 'I' for Inactive)
REMARK    1  A    between atoms: C_1  and  C_2
REMARK    2  A    between atoms: C_2  and  CA_3
REMARK    3  A    between atoms: CA_3  and  C_4
REMARK    4  A    between atoms: CA_3  and  N_6
REMARK    5  A    between atoms: C_4  and  O_5
REMARK    6  A    between atoms: C_7  and  C_9
REMARK    7  A    between atoms: N_20  and  C_21
REMARK    8  A    between atoms: N_24  and  C_25
REMARK                            x       y       z     vdW  Elec       q    Type
REMARK                         _______ _______ _______ _____ _____    ______ ____
ROOT
ATOM      1  C   UNL     1       0.511   8.822  21.072  0.00  0.00    +0.000 C 
ATOM      2  C   UNL     1       1.592   7.828  21.428  0.00  0.00    +0.000 C 
ATOM      3  C   UNL     1       2.036   7.111  20.367  0.00  0.00    +0.000 C 
ATOM      4  C   UNL     1       2.249   5.647  20.468  0.00  0.00    +0.000 A 
ATOM      5  C   UNL     1       1.798   4.812  21.496  0.00  0.00    +0.000 A 
ATOM      6  C   UNL     1       1.756   3.424  21.319  0.00  0.00    +0.000 A 
ATOM      7  C   UNL     1       2.179   2.819  20.127  0.00  0.00    +0.000 A 
ATOM      8  C   UNL     1       2.651   3.661  19.111  0.00  0.00    +0.000 A 
ATOM      9  C   UNL     1       2.687   5.037  19.282  0.00  0.00    +0.000 A 
ATOM     10  C   UNL     1       3.073   5.629  18.058  0.00  0.00    +0.000 A 
ATOM     11  C   UNL     1       3.338   4.614  17.173  0.00  0.00    +0.000 A 
ATOM     12  N   UNL     1       3.085   3.422  17.821  0.00  0.00    +0.000 N 
ATOM     13  C   UNL     1       3.184   2.115  17.214  0.00  0.00    +0.000 C 
ATOM     14  C   UNL     1       3.050   7.116  17.941  0.00  0.00    +0.000 C 
ATOM     15  C   UNL     1       1.957   7.701  18.916  0.00  0.00    +0.000 C 
ATOM     16  N   UNL     1       1.969   9.184  18.991  0.00  0.00    +0.000 NA
ATOM     17  C   UNL     1       1.943   9.853  17.692  0.00  0.00    +0.000 C 
ATOM     18  C   UNL     1       0.844   9.672  19.822  0.00  0.00    +0.000 C 
ENDROOT
BRANCH   1  20
ATOM     19  N   UNL     1      -0.724  10.904  21.746  0.00  0.00    +0.000 N 
ATOM     20  C   UNL     1      -0.234   9.671  22.123  0.00  0.00    +0.000 C 
ATOM     21  O   UNL     1      -0.248   9.325  23.311  0.00  0.00    +0.000 OA
ATOM     22  H   UNL     1      -0.428  11.281  20.850  0.00  0.00    +0.000 HD
BRANCH  19  23
ATOM     23  CA  UNL     1      -1.062  11.893  22.789  0.00  0.00    +0.000 C 
BRANCH  23  25
ATOM     24  C   UNL     1      -3.368  12.716  22.123  0.00  0.00    +0.000 C 
ATOM     25  C   UNL     1      -2.555  11.911  23.128  0.00  0.00    +0.000 C 
ENDBRANCH  23  25
BRANCH  23  26
ATOM     26  C   UNL     1      -0.583  13.307  22.379  0.00  0.00    +0.000 C 
BRANCH  26  27
ATOM     27  O   UNL     1       0.723  13.242  21.786  0.00  0.00    +0.000 OA
ATOM     28  H   UNL     1       1.363  13.536  22.453  0.00  0.00    +0.000 HD
ENDBRANCH  26  27
ENDBRANCH  23  26
ENDBRANCH  19  23
ENDBRANCH   1  20
TORSDOF 5
ENDMDL
MODEL 4
REMARK VINA RESULT:      -6.7      1.476      1.837
REMARK  Name = 
REMARK  8 active torsions:
REMARK  status: ('A' for Active; 'I' for Inactive)
REMARK    1  A    between atoms: C_1  and  C_2
REMARK    2  A    between atoms: C_2  and  CA_3
REMARK    3  A    between atoms: CA_3  and  C_4
REMARK    4  A    between atoms: CA_3  and  N_6
REMARK    5  A    between atoms: C_4  and  O_5
REMARK    6  A    between atoms: C_7  and  C_9
REMARK    7  A    between atoms: N_20  and  C_21
REMARK    8  A    between atoms: N_24  and  C_25
REMARK                            x       y       z     vdW  Elec       q    Type
REMARK                         _______ _______ _______ _____ _____    ______ ____
ROOT
ATOM      1  C   UNL     1       0.247   9.365  20.430  0.00  0.00    +0.000 C 
ATOM      2  C   UNL     1      -0.026  10.204  19.203  0.00  0.00    +0.000 C 
ATOM      3  C   UNL     1      -1.204  10.872  19.256  0.00  0.00    +0.000 C 
ATOM      4  C   UNL     1      -2.112  10.916  18.084  0.00  0.00    +0.000 A 
ATOM      5  C   UNL     1      -2.031  10.114  16.941  0.00  0.00    +0.000 A 
ATOM      6  C   UNL     1      -3.121  10.002  16.071  0.00  0.00    +0.000 A 
ATOM      7  C   UNL     1      -4.318  10.698  16.295  0.00  0.00    +0.000 A 
ATOM      8  C   UNL     1      -4.383  11.517  17.429  0.00  0.00    +0.000 A 
ATOM      9  C   UNL     1      -3.305  11.624  18.296  0.00  0.00    +0.000 A 
ATOM     10  C   UNL     1      -3.703  12.400  19.410  0.00  0.00    +0.000 A 
ATOM     11  C   UNL     1      -4.990  12.819  19.182  0.00  0.00    +0.000 A 
ATOM     12  N   UNL     1      -5.394  12.284  17.976  0.00  0.00    +0.000 N 
ATOM     13  C   UNL     1      -6.711  12.439  17.404  0.00  0.00    +0.000 C 
ATOM     14  C   UNL     1      -2.761  12.543  20.557  0.00  0.00    +0.000 C 
ATOM     15  C   UNL     1      -1.833  11.270  20.636  0.00  0.00    +0.000 C 
ATOM     16  N   UNL     1      -0.753  11.391  21.648  0.00  0.00    +0.000 NA
ATOM     17  C   UNL     1      -1.213  11.803  22.973  0.00  0.00    +0.000 C 
ATOM     18  C   UNL     1       0.001  10.121  21.758  0.00  0.00    +0.000 C 
ENDROOT
BRANCH   1  20
ATOM     19  N   UNL     1       1.958   7.831  19.415  0.00  0.00    +0.000 N 
ATOM     20  C   UNL     1       1.463   8.426  20.557  0.00  0.00    +0.000 C 
ATOM     21  O   UNL     1       1.879   8.089  21.672  0.00  0.00    +0.000 OA
ATOM     22  H   UNL     1       1.403   7.893  18.566  0.00  0.00    +0.000 HD
BRANCH  19  23
ATOM     23  CA  UNL     1       2.824   6.641  19.541  0.00  0.00    +0.000 C 
BRANCH  23  25
ATOM     24  C   UNL     1       3.186   5.004  17.636  0.00  0.00    +0.000 C 
ATOM     25  C   UNL     1       3.597   6.333  18.256  0.00  0.00    +0.000 C 
ENDBRANCH  23  25
BRANCH  23  26
ATOM     26  C   UNL     1       1.999   5.408  19.985  0.00  0.00    +0.000 C 
BRANCH  26  27
ATOM     27  O   UNL     1       2.333   5.041  21.333  0.00  0.00    +0.000 OA
ATOM     28  H   UNL     1       3.258   5.292  21.484  0.00  0.00    +0.000 HD
ENDBRANCH  26  27
ENDBRANCH  23  26
ENDBRANCH  19  23
ENDBRANCH   1  20
TORSDOF 5
ENDMDL
MODEL 5
REMARK VINA RESULT:      -6.6      1.183      1.268
REMARK  Name = 
REMARK  8 active torsions:
REMARK  status: ('A' for Active; 'I' for Inactive)
REMARK    1  A    between atoms: C_1  and  C_2
REMARK    2  A    between atoms: C_2  and  CA_3
REMARK    3  A    between atoms: CA_3  and  C_4
REMARK    4  A    between atoms: CA_3  and  N_6
REMARK    5  A    between atoms: C_4  and  O_5
REMARK    6  A    between atoms: C_7  and  C_9
REMARK    7  A    between atoms: N_20  and  C_21
REMARK    8  A    between atoms: N_24  and  C_25
REMARK                            x       y       z     vdW  Elec       q    Type
REMARK                         _______ _______ _______ _____ _____    ______ ____
ROOT
ATOM      1  C   UNL     1       1.532   8.000  18.824  0.00  0.00    +0.000 C 
ATOM      2  C   UNL     1       1.132   9.296  18.157  0.00  0.00    +0.000 C 
ATOM      3  C   UNL     1       0.217  10.006  18.862  0.00  0.00    +0.000 C 
ATOM      4  C   UNL     1      -0.949  10.629  18.190  0.00  0.00    +0.000 A 
ATOM      5  C   UNL     1      -1.395  10.369  16.890  0.00  0.00    +0.000 A 
ATOM      6  C   UNL     1      -2.682  10.747  16.490  0.00  0.00    +0.000 A 
ATOM      7  C   UNL     1      -3.559  11.413  17.358  0.00  0.00    +0.000 A 
ATOM      8  C   UNL     1      -3.096  11.690  18.650  0.00  0.00    +0.000 A 
ATOM      9  C   UNL     1      -1.824  11.311  19.052  0.00  0.00    +0.000 A 
ATOM     10  C   UNL     1      -1.686  11.594  20.430  0.00  0.00    +0.000 A 
ATOM     11  C   UNL     1      -2.843  12.206  20.843  0.00  0.00    +0.000 A 
ATOM     12  N   UNL     1      -3.691  12.267  19.757  0.00  0.00    +0.000 N 
ATOM     13  C   UNL     1      -5.039  12.787  19.789  0.00  0.00    +0.000 C 
ATOM     14  C   UNL     1      -0.451  11.146  21.134  0.00  0.00    +0.000 C 
ATOM     15  C   UNL     1       0.124   9.863  20.420  0.00  0.00    +0.000 C 
ATOM     16  N   UNL     1       1.444   9.435  20.950  0.00  0.00    +0.000 NA
ATOM     17  C   UNL     1       1.496   9.308  22.405  0.00  0.00    +0.000 C 
ATOM     18  C   UNL     1       1.867   8.160  20.327  0.00  0.00    +0.000 C 
ENDROOT
BRANCH   1  20
ATOM     19  N   UNL     1       2.210   5.626  18.362  0.00  0.00    +0.000 N 
ATOM     20  C   UNL     1       2.468   6.967  18.166  0.00  0.00    +0.000 C 
ATOM     21  O   UNL     1       3.514   7.332  17.614  0.00  0.00    +0.000 OA
ATOM     22  H   UNL     1       1.525   5.370  19.068  0.00  0.00    +0.000 HD
BRANCH  19  23
ATOM     23  CA  UNL     1       3.283   4.643  18.109  0.00  0.00    +0.000 C 
BRANCH  23  25
ATOM     24  C   UNL     1       1.869   2.538  18.220  0.00  0.00    +0.000 C 
ATOM     25  C   UNL     1       2.785   3.401  17.363  0.00  0.00    +0.000 C 
ENDBRANCH  23  25
BRANCH  23  26
ATOM     26  C   UNL     1       3.976   4.236  19.433  0.00  0.00    +0.000 C 
BRANCH  26  27
ATOM     27  O   UNL     1       5.210   3.551  19.162  0.00  0.00    +0.000 OA
ATOM     28  H   UNL     1       5.612   3.325  20.015  0.00  0.00    +0.000 HD
ENDBRANCH  26  27
ENDBRANCH  23  26
ENDBRANCH  19  23
ENDBRANCH   1  20
TORSDOF 5
ENDMDL
MODEL 6
REMARK VINA RESULT:      -6.5      3.631      8.084
REMARK  Name = 
REMARK  8 active torsions:
REMARK  status: ('A' for Active; 'I' for Inactive)
REMARK    1  A    between atoms: C_1  and  C_2
REMARK    2  A    between atoms: C_2  and  CA_3
REMARK    3  A    between atoms: CA_3  and  C_4
REMARK    4  A    between atoms: CA_3  and  N_6
REMARK    5  A    between atoms: C_4  and  O_5
REMARK    6  A    between atoms: C_7  and  C_9
REMARK    7  A    between atoms: N_20  and  C_21
REMARK    8  A    between atoms: N_24  and  C_25
REMARK                            x       y       z     vdW  Elec       q    Type
REMARK                         _______ _______ _______ _____ _____    ______ ____
ROOT
ATOM      1  C   UNL     1       2.021  10.282  19.136  0.00  0.00    +0.000 C 
ATOM      2  C   UNL     1       1.932   9.099  18.199  0.00  0.00    +0.000 C 
ATOM      3  C   UNL     1       2.035   7.903  18.828  0.00  0.00    +0.000 C 
ATOM      4  C   UNL     1       2.885   6.820  18.275  0.00  0.00    +0.000 A 
ATOM      5  C   UNL     1       3.842   6.950  17.263  0.00  0.00    +0.000 A 
ATOM      6  C   UNL     1       4.809   5.958  17.066  0.00  0.00    +0.000 A 
ATOM      7  C   UNL     1       4.845   4.796  17.851  0.00  0.00    +0.000 A 
ATOM      8  C   UNL     1       3.869   4.663  18.846  0.00  0.00    +0.000 A 
ATOM      9  C   UNL     1       2.914   5.648  19.048  0.00  0.00    +0.000 A 
ATOM     10  C   UNL     1       2.158   5.311  20.194  0.00  0.00    +0.000 A 
ATOM     11  C   UNL     1       2.607   4.093  20.640  0.00  0.00    +0.000 A 
ATOM     12  N   UNL     1       3.641   3.704  19.814  0.00  0.00    +0.000 N 
ATOM     13  C   UNL     1       4.426   2.502  19.984  0.00  0.00    +0.000 C 
ATOM     14  C   UNL     1       1.154   6.288  20.705  0.00  0.00    +0.000 C 
ATOM     15  C   UNL     1       1.608   7.751  20.328  0.00  0.00    +0.000 C 
ATOM     16  N   UNL     1       0.592   8.784  20.653  0.00  0.00    +0.000 NA
ATOM     17  C   UNL     1       0.080   8.717  22.021  0.00  0.00    +0.000 C 
ATOM     18  C   UNL     1       1.127  10.141  20.392  0.00  0.00    +0.000 C 
ENDROOT
BRANCH   1  20
ATOM     19  N   UNL     1       1.341  12.690  19.366  0.00  0.00    +0.000 N 
ATOM     20  C   UNL     1       2.046  11.745  18.649  0.00  0.00    +0.000 C 
ATOM     21  O   UNL     1       2.549  12.031  17.555  0.00  0.00    +0.000 OA
ATOM     22  H   UNL     1       0.695  12.363  20.079  0.00  0.00    +0.000 HD
BRANCH  19  23
ATOM     23  CA  UNL     1       1.005  13.976  18.723  0.00  0.00    +0.000 C 
BRANCH  23  25
ATOM     24  C   UNL     1       2.584  15.959  18.614  0.00  0.00    +0.000 C 
ATOM     25  C   UNL     1       1.591  15.180  19.466  0.00  0.00    +0.000 C 
ENDBRANCH  23  25
BRANCH  23  26
ATOM     26  C   UNL     1      -0.529  14.129  18.572  0.00  0.00    +0.000 C 
BRANCH  26  27
ATOM     27  O   UNL     1      -1.039  13.160  17.642  0.00  0.00    +0.000 OA
ATOM     28  H   UNL     1      -0.766  13.436  16.752  0.00  0.00    +0.000 HD
ENDBRANCH  26  27
ENDBRANCH  23  26
ENDBRANCH  19  23
ENDBRANCH   1  20
TORSDOF 5
ENDMDL
MODEL 7
REMARK VINA RESULT:      -6.3      3.796      8.008
REMARK  Name = 
REMARK  8 active torsions:
REMARK  status: ('A' for Active; 'I' for Inactive)
REMARK    1  A    between atoms: C_1  and  C_2
REMARK    2  A    between atoms: C_2  and  CA_3
REMARK    3  A    between atoms: CA_3  and  C_4
REMARK    4  A    between atoms: CA_3  and  N_6
REMARK    5  A    between atoms: C_4  and  O_5
REMARK    6  A    between atoms: C_7  and  C_9
REMARK    7  A    between atoms: N_20  and  C_21
REMARK    8  A    between atoms: N_24  and  C_25
REMARK                            x       y       z     vdW  Elec       q    Type
REMARK                         _______ _______ _______ _____ _____    ______ ____
ROOT
ATOM      1  C   UNL     1       1.436  11.149  19.746  0.00  0.00    +0.000 C 
ATOM      2  C   UNL     1       1.290  10.020  18.751  0.00  0.00    +0.000 C 
ATOM      3  C   UNL     1       1.478   8.793  19.295  0.00  0.00    +0.000 C 
ATOM      4  C   UNL     1       2.299   7.768  18.605  0.00  0.00    +0.000 A 
ATOM      5  C   UNL     1       3.157   7.984  17.521  0.00  0.00    +0.000 A 
ATOM      6  C   UNL     1       4.126   7.033  17.180  0.00  0.00    +0.000 A 
ATOM      7  C   UNL     1       4.259   5.830  17.887  0.00  0.00    +0.000 A 
ATOM      8  C   UNL     1       3.381   5.611  18.955  0.00  0.00    +0.000 A 
ATOM      9  C   UNL     1       2.425   6.555  19.300  0.00  0.00    +0.000 A 
ATOM     10  C   UNL     1       1.784   6.131  20.487  0.00  0.00    +0.000 A 
ATOM     11  C   UNL     1       2.300   4.903  20.818  0.00  0.00    +0.000 A 
ATOM     12  N   UNL     1       3.264   4.591  19.881  0.00  0.00    +0.000 N 
ATOM     13  C   UNL     1       4.089   3.405  19.907  0.00  0.00    +0.000 C 
ATOM     14  C   UNL     1       0.809   7.048  21.143  0.00  0.00    +0.000 C 
ATOM     15  C   UNL     1       1.192   8.542  20.816  0.00  0.00    +0.000 C 
ATOM     16  N   UNL     1       0.186   9.525  21.292  0.00  0.00    +0.000 NA
ATOM     17  C   UNL     1      -0.198   9.364  22.692  0.00  0.00    +0.000 C 
ATOM     18  C   UNL     1       0.663  10.909  21.065  0.00  0.00    +0.000 C 
ENDROOT
BRANCH   1  20
ATOM     19  N   UNL     1       0.986  13.559  20.294  0.00  0.00    +0.000 N 
ATOM     20  C   UNL     1       1.383  12.637  19.347  0.00  0.00    +0.000 C 
ATOM     21  O   UNL     1       1.533  12.974  18.166  0.00  0.00    +0.000 OA
ATOM     22  H   UNL     1       0.580  13.210  21.158  0.00  0.00    +0.000 HD
BRANCH  19  23
ATOM     23  CA  UNL     1       0.533  14.893  19.853  0.00  0.00    +0.000 C 
BRANCH  23  25
ATOM     24  C   UNL     1       2.755  16.090  19.588  0.00  0.00    +0.000 C 
ATOM     25  C   UNL     1       1.440  16.022  20.352  0.00  0.00    +0.000 C 
ENDBRANCH  23  25
BRANCH  23  26
ATOM     26  C   UNL     1      -0.932  15.145  20.287  0.00  0.00    +0.000 C 
BRANCH  26  27
ATOM     27  O   UNL     1      -1.591  16.011  19.349  0.00  0.00    +0.000 OA
ATOM     28  H   UNL     1      -2.349  16.411  19.803  0.00  0.00    +0.000 HD
ENDBRANCH  26  27
ENDBRANCH  23  26
ENDBRANCH  19  23
ENDBRANCH   1  20
TORSDOF 5
ENDMDL
MODEL 8
REMARK VINA RESULT:      -6.2      9.621     12.153
REMARK  Name = 
REMARK  8 active torsions:
REMARK  status: ('A' for Active; 'I' for Inactive)
REMARK    1  A    between atoms: C_1  and  C_2
REMARK    2  A    between atoms: C_2  and  CA_3
REMARK    3  A    between atoms: CA_3  and  C_4
REMARK    4  A    between atoms: CA_3  and  N_6
REMARK    5  A    between atoms: C_4  and  O_5
REMARK    6  A    between atoms: C_7  and  C_9
REMARK    7  A    between atoms: N_20  and  C_21
REMARK    8  A    between atoms: N_24  and  C_25
REMARK                            x       y       z     vdW  Elec       q    Type
REMARK                         _______ _______ _______ _____ _____    ______ ____
ROOT
ATOM      1  C   UNL     1       7.648  13.479  24.048  0.00  0.00    +0.000 C 
ATOM      2  C   UNL     1       8.777  12.636  23.501  0.00  0.00    +0.000 C 
ATOM      3  C   UNL     1       9.379  13.179  22.416  0.00  0.00    +0.000 C 
ATOM      4  C   UNL     1       9.713  12.349  21.232  0.00  0.00    +0.000 A 
ATOM      5  C   UNL     1       9.247  11.058  20.966  0.00  0.00    +0.000 A 
ATOM      6  C   UNL     1       9.345  10.516  19.679  0.00  0.00    +0.000 A 
ATOM      7  C   UNL     1       9.929  11.229  18.622  0.00  0.00    +0.000 A 
ATOM      8  C   UNL     1      10.414  12.512  18.902  0.00  0.00    +0.000 A 
ATOM      9  C   UNL     1      10.311  13.054  20.175  0.00  0.00    +0.000 A 
ATOM     10  C   UNL     1      10.752  14.396  20.128  0.00  0.00    +0.000 A 
ATOM     11  C   UNL     1      11.187  14.643  18.850  0.00  0.00    +0.000 A 
ATOM     12  N   UNL     1      10.984  13.494  18.113  0.00  0.00    +0.000 N 
ATOM     13  C   UNL     1      11.256  13.359  16.700  0.00  0.00    +0.000 C 
ATOM     14  C   UNL     1      10.606  15.243  21.346  0.00  0.00    +0.000 C 
ATOM     15  C   UNL     1       9.380  14.731  22.196  0.00  0.00    +0.000 C 
ATOM     16  N   UNL     1       9.252  15.410  23.511  0.00  0.00    +0.000 NA
ATOM     17  C   UNL     1       9.285  16.869  23.442  0.00  0.00    +0.000 C 
ATOM     18  C   UNL     1       8.016  14.975  24.203  0.00  0.00    +0.000 C 
ENDROOT
BRANCH   1  20
ATOM     19  N   UNL     1       6.709  11.682  25.532  0.00  0.00    +0.000 N 
ATOM     20  C   UNL     1       6.736  13.022  25.205  0.00  0.00    +0.000 C 
ATOM     21  O   UNL     1       5.932  13.811  25.717  0.00  0.00    +0.000 OA
ATOM     22  H   UNL     1       7.149  11.026  24.892  0.00  0.00    +0.000 HD
BRANCH  19  23
ATOM     23  CA  UNL     1       5.578  11.158  26.324  0.00  0.00    +0.000 C 
BRANCH  23  25
ATOM     24  C   UNL     1       6.817  11.369  28.529  0.00  0.00    +0.000 C 
ATOM     25  C   UNL     1       6.030  10.450  27.605  0.00  0.00    +0.000 C 
ENDBRANCH  23  25
BRANCH  23  26
ATOM     26  C   UNL     1       4.698  10.216  25.467  0.00  0.00    +0.000 C 
BRANCH  26  27
ATOM     27  O   UNL     1       3.498   9.869  26.176  0.00  0.00    +0.000 OA
ATOM     28  H   UNL     1       3.686   9.942  27.125  0.00  0.00    +0.000 HD
ENDBRANCH  26  27
ENDBRANCH  23  26
ENDBRANCH  19  23
ENDBRANCH   1  20
TORSDOF 5
ENDMDL
MODEL 9
REMARK VINA RESULT:      -6.1      1.262      1.755
REMARK  Name = 
REMARK  8 active torsions:
REMARK  status: ('A' for Active; 'I' for Inactive)
REMARK    1  A    between atoms: C_1  and  C_2
REMARK    2  A    between atoms: C_2  and  CA_3
REMARK    3  A    between atoms: CA_3  and  C_4
REMARK    4  A    between atoms: CA_3  and  N_6
REMARK    5  A    between atoms: C_4  and  O_5
REMARK    6  A    between atoms: C_7  and  C_9
REMARK    7  A    between atoms: N_20  and  C_21
REMARK    8  A    between atoms: N_24  and  C_25
REMARK                            x       y       z     vdW  Elec       q    Type
REMARK                         _______ _______ _______ _____ _____    ______ ____
ROOT
ATOM      1  C   UNL     1       1.186   8.108  20.006  0.00  0.00    +0.000 C 
ATOM      2  C   UNL     1       0.939   9.283  19.088  0.00  0.00    +0.000 C 
ATOM      3  C   UNL     1      -0.107  10.055  19.469  0.00  0.00    +0.000 C 
ATOM      4  C   UNL     1      -1.100  10.540  18.479  0.00  0.00    +0.000 A 
ATOM      5  C   UNL     1      -1.253  10.083  17.165  0.00  0.00    +0.000 A 
ATOM      6  C   UNL     1      -2.422  10.358  16.447  0.00  0.00    +0.000 A 
ATOM      7  C   UNL     1      -3.467  11.113  17.001  0.00  0.00    +0.000 A 
ATOM      8  C   UNL     1      -3.297  11.585  18.308  0.00  0.00    +0.000 A 
ATOM      9  C   UNL     1      -2.142  11.307  19.024  0.00  0.00    +0.000 A 
ATOM     10  C   UNL     1      -2.307  11.787  20.343  0.00  0.00    +0.000 A 
ATOM     11  C   UNL     1      -3.526  12.415  20.405  0.00  0.00    +0.000 A 
ATOM     12  N   UNL     1      -4.118  12.293  19.165  0.00  0.00    +0.000 N 
ATOM     13  C   UNL     1      -5.441  12.769  18.831  0.00  0.00    +0.000 C 
ATOM     14  C   UNL     1      -1.253  11.484  21.354  0.00  0.00    +0.000 C 
ATOM     15  C   UNL     1      -0.537  10.132  20.975  0.00  0.00    +0.000 C 
ATOM     16  N   UNL     1       0.637   9.827  21.832  0.00  0.00    +0.000 NA
ATOM     17  C   UNL     1       0.372   9.909  23.267  0.00  0.00    +0.000 C 
ATOM     18  C   UNL     1       1.186   8.490  21.506  0.00  0.00    +0.000 C 
ENDROOT
BRANCH   1  20
ATOM     19  N   UNL     1       2.954   7.088  18.541  0.00  0.00    +0.000 N 
ATOM     20  C   UNL     1       2.244   7.022  19.722  0.00  0.00    +0.000 C 
ATOM     21  O   UNL     1       2.336   6.032  20.458  0.00  0.00    +0.000 OA
ATOM     22  H   UNL     1       2.635   7.739  17.829  0.00  0.00    +0.000 HD
BRANCH  19  23
ATOM     23  CA  UNL     1       3.651   5.880  18.054  0.00  0.00    +0.000 C 
BRANCH  23  25
ATOM     24  C   UNL     1       5.071   4.917  16.184  0.00  0.00    +0.000 C 
ATOM     25  C   UNL     1       4.621   6.179  16.907  0.00  0.00    +0.000 C 
ENDBRANCH  23  25
BRANCH  23  26
ATOM     26  C   UNL     1       2.633   4.793  17.631  0.00  0.00    +0.000 C 
BRANCH  26  27
ATOM     27  O   UNL     1       2.662   3.693  18.555  0.00  0.00    +0.000 OA
ATOM     28  H   UNL     1       1.895   3.130  18.365  0.00  0.00    +0.000 HD
ENDBRANCH  26  27
ENDBRANCH  23  26
ENDBRANCH  19  23
ENDBRANCH   1  20
TORSDOF 5
ENDMDL
