MODEL 1
REMARK VINA RESULT:      -7.6      0.000      0.000
REMARK  Name = 
REMARK  10 active torsions:
REMARK  status: ('A' for Active; 'I' for Inactive)
REMARK    1  A    between atoms: C_2  and  C_3
REMARK    2  A    between atoms: C_3  and  C_4
REMARK    3  A    between atoms: C_5  and  C_6
REMARK    4  A    between atoms: C_6  and  C_7
REMARK    5  A    between atoms: C_11  and  C_12
REMARK    6  A    between atoms: C_12  and  C_13
REMARK    7  A    between atoms: C_13  and  C_14
REMARK    8  A    between atoms: C_14  and  C_15
REMARK    9  A    between atoms: C_15  and  C_16
REMARK   10  A    between atoms: C_23  and  O_24
REMARK                            x       y       z     vdW  Elec       q    Type
REMARK                         _______ _______ _______ _____ _____    ______ ____
ROOT
ATOM      1  C   UNL     1       4.490   4.779  18.510  0.00  0.00    +0.000 C 
ATOM      2  C   UNL     1       4.501   3.469  17.712  0.00  0.00    +0.000 C 
ATOM      3  S   UNL     1       3.859   6.107  17.419  0.00  0.00    +0.000 S 
ATOM      4  C   UNL     1       5.473   6.545  16.912  0.00  0.00    +0.000 C 
ATOM      5  O   UNL     1       5.742   7.095  15.860  0.00  0.00    +0.000 OA
ATOM      6  C   UNL     1       6.449   6.174  17.951  0.00  0.00    +0.000 C 
ATOM      7  C   UNL     1       5.917   5.259  18.777  0.00  0.00    +0.000 C 
ENDROOT
BRANCH   1  10
ATOM      8  C   UNL     1       2.473   4.185  20.134  0.00  0.00    +0.000 C 
ATOM      9  C   UNL     1       2.197   4.017  21.616  0.00  0.00    +0.000 C 
ATOM     10  C   UNL     1       3.714   4.609  19.809  0.00  0.00    +0.000 C 
BRANCH   8  12
ATOM     11  C   UNL     1       1.018   2.605  18.850  0.00  0.00    +0.000 C 
ATOM     12  C   UNL     1       1.447   3.832  19.168  0.00  0.00    +0.000 C 
ENDBRANCH   8  12
ENDBRANCH   1  10
BRANCH   7  13
ATOM     13  O   UNL     1       6.566   4.791  19.902  0.00  0.00    +0.000 OA
ATOM     14  H   UNL     1       7.518   4.739  19.696  0.00  0.00    +0.000 HD
ENDBRANCH   7  13
BRANCH   6  15
ATOM     15  C   UNL     1       7.767   6.865  18.026  0.00  0.00    +0.000 C 
BRANCH  15  16
ATOM     16  C   UNL     1       7.740   8.376  17.766  0.00  0.00    +0.000 C 
BRANCH  16  17
ATOM     17  C   UNL     1       8.735   9.137  18.657  0.00  0.00    +0.000 C 
BRANCH  17  18
ATOM     18  C   UNL     1       9.200  10.457  18.032  0.00  0.00    +0.000 C 
BRANCH  18  19
ATOM     19  C   UNL     1       9.363  11.566  19.037  0.00  0.00    +0.000 A 
ATOM     20  C   UNL     1       9.428  11.269  20.408  0.00  0.00    +0.000 A 
ATOM     21  C   UNL     1       9.630  12.285  21.343  0.00  0.00    +0.000 A 
ATOM     22  C   UNL     1       9.759  13.601  20.909  0.00  0.00    +0.000 A 
ATOM     23 BR   UNL     1      10.057  14.977  22.175  0.00  0.00    +0.000 Br
ATOM     24  C   UNL     1       9.679  13.915  19.556  0.00  0.00    +0.000 A 
ATOM     25  C   UNL     1       9.477  12.895  18.615  0.00  0.00    +0.000 A 
ENDBRANCH  18  19
ENDBRANCH  17  18
ENDBRANCH  16  17
ENDBRANCH  15  16
ENDBRANCH   6  15
TORSDOF 8
ENDMDL
MODEL 2
REMARK VINA RESULT:      -7.4      1.645      2.172
REMARK  Name = 
REMARK  10 active torsions:
REMARK  status: ('A' for Active; 'I' for Inactive)
REMARK    1  A    between atoms: C_2  and  C_3
REMARK    2  A    between atoms: C_3  and  C_4
REMARK    3  A    between atoms: C_5  and  C_6
REMARK    4  A    between atoms: C_6  and  C_7
REMARK    5  A    between atoms: C_11  and  C_12
REMARK    6  A    between atoms: C_12  and  C_13
REMARK    7  A    between atoms: C_13  and  C_14
REMARK    8  A    between atoms: C_14  and  C_15
REMARK    9  A    between atoms: C_15  and  C_16
REMARK   10  A    between atoms: C_23  and  O_24
REMARK                            x       y       z     vdW  Elec       q    Type
REMARK                         _______ _______ _______ _____ _____    ______ ____
ROOT
ATOM      1  C   UNL     1       4.013   4.389  18.399  0.00  0.00    +0.000 C 
ATOM      2  C   UNL     1       3.083   3.761  17.353  0.00  0.00    +0.000 C 
ATOM      3  S   UNL     1       3.137   5.800  19.169  0.00  0.00    +0.000 S 
ATOM      4  C   UNL     1       3.822   6.931  18.027  0.00  0.00    +0.000 C 
ATOM      5  O   UNL     1       3.317   7.996  17.721  0.00  0.00    +0.000 OA
ATOM      6  C   UNL     1       5.103   6.419  17.512  0.00  0.00    +0.000 C 
ATOM      7  C   UNL     1       5.188   5.096  17.720  0.00  0.00    +0.000 C 
ENDROOT
BRANCH   1  10
ATOM      8  C   UNL     1       3.907   2.522  20.287  0.00  0.00    +0.000 C 
ATOM      9  C   UNL     1       4.804   1.485  20.934  0.00  0.00    +0.000 C 
ATOM     10  C   UNL     1       4.500   3.335  19.384  0.00  0.00    +0.000 C 
BRANCH   8  12
ATOM     11  C   UNL     1       1.901   3.183  21.628  0.00  0.00    +0.000 C 
ATOM     12  C   UNL     1       2.491   2.548  20.608  0.00  0.00    +0.000 C 
ENDBRANCH   8  12
ENDBRANCH   1  10
BRANCH   7  13
ATOM     13  O   UNL     1       6.316   4.356  17.426  0.00  0.00    +0.000 OA
ATOM     14  H   UNL     1       6.312   3.568  18.000  0.00  0.00    +0.000 HD
ENDBRANCH   7  13
BRANCH   6  15
ATOM     15  C   UNL     1       6.119   7.357  16.956  0.00  0.00    +0.000 C 
BRANCH  15  16
ATOM     16  C   UNL     1       7.494   7.325  17.633  0.00  0.00    +0.000 C 
BRANCH  16  17
ATOM     17  C   UNL     1       8.154   8.713  17.673  0.00  0.00    +0.000 C 
BRANCH  17  18
ATOM     18  C   UNL     1       8.826   9.009  19.019  0.00  0.00    +0.000 C 
BRANCH  18  19
ATOM     19  C   UNL     1       9.297  10.434  19.147  0.00  0.00    +0.000 A 
ATOM     20  C   UNL     1       9.411  11.242  18.005  0.00  0.00    +0.000 A 
ATOM     21  C   UNL     1       9.797  12.578  18.120  0.00  0.00    +0.000 A 
ATOM     22  C   UNL     1      10.078  13.106  19.377  0.00  0.00    +0.000 A 
ATOM     23 BR   UNL     1      10.579  14.925  19.536  0.00  0.00    +0.000 Br
ATOM     24  C   UNL     1       9.987  12.314  20.517  0.00  0.00    +0.000 A 
ATOM     25  C   UNL     1       9.598  10.972  20.403  0.00  0.00    +0.000 A 
ENDBRANCH  18  19
ENDBRANCH  17  18
ENDBRANCH  16  17
ENDBRANCH  15  16
ENDBRANCH   6  15
TORSDOF 8
ENDMDL
MODEL 3
REMARK VINA RESULT:      -7.1      1.300      1.727
REMARK  Name = 
REMARK  10 active torsions:
REMARK  status: ('A' for Active; 'I' for Inactive)
REMARK    1  A    between atoms: C_2  and  C_3
REMARK    2  A    between atoms: C_3  and  C_4
REMARK    3  A    between atoms: C_5  and  C_6
REMARK    4  A    between atoms: C_6  and  C_7
REMARK    5  A    between atoms: C_11  and  C_12
REMARK    6  A    between atoms: C_12  and  C_13
REMARK    7  A    between atoms: C_13  and  C_14
REMARK    8  A    between atoms: C_14  and  C_15
REMARK    9  A    between atoms: C_15  and  C_16
REMARK   10  A    between atoms: C_23  and  O_24
REMARK                            x       y       z     vdW  Elec       q    Type
REMARK                         _______ _______ _______ _____ _____    ______ ____
ROOT
ATOM      1  C   UNL     1       4.366   4.163  18.642  0.00  0.00    +0.000 C 
ATOM      2  C   UNL     1       4.755   2.733  19.039  0.00  0.00    +0.000 C 
ATOM      3  S   UNL     1       4.174   4.217  16.822  0.00  0.00    +0.000 S 
ATOM      4  C   UNL     1       5.834   4.713  16.597  0.00  0.00    +0.000 C 
ATOM      5  O   UNL     1       6.481   4.522  15.584  0.00  0.00    +0.000 OA
ATOM      6  C   UNL     1       6.321   5.412  17.798  0.00  0.00    +0.000 C 
ATOM      7  C   UNL     1       5.542   5.119  18.851  0.00  0.00    +0.000 C 
ENDROOT
BRANCH   1  10
ATOM      8  C   UNL     1       1.832   4.278  19.432  0.00  0.00    +0.000 C 
ATOM      9  C   UNL     1       0.994   4.903  20.531  0.00  0.00    +0.000 C 
ATOM     10  C   UNL     1       3.140   4.620  19.419  0.00  0.00    +0.000 C 
BRANCH   8  12
ATOM     11  C   UNL     1       1.051   2.014  18.709  0.00  0.00    +0.000 C 
ATOM     12  C   UNL     1       1.224   3.327  18.519  0.00  0.00    +0.000 C 
ENDBRANCH   8  12
ENDBRANCH   1  10
BRANCH   7  13
ATOM     13  O   UNL     1       5.700   5.701  20.093  0.00  0.00    +0.000 OA
ATOM     14  H   UNL     1       5.202   5.164  20.738  0.00  0.00    +0.000 HD
ENDBRANCH   7  13
BRANCH   6  15
ATOM     15  C   UNL     1       7.466   6.362  17.703  0.00  0.00    +0.000 C 
BRANCH  15  16
ATOM     16  C   UNL     1       7.097   7.815  17.379  0.00  0.00    +0.000 C 
BRANCH  16  17
ATOM     17  C   UNL     1       8.302   8.761  17.505  0.00  0.00    +0.000 C 
BRANCH  17  18
ATOM     18  C   UNL     1       8.725   8.990  18.961  0.00  0.00    +0.000 C 
BRANCH  18  19
ATOM     19  C   UNL     1       9.383  10.326  19.185  0.00  0.00    +0.000 A 
ATOM     20  C   UNL     1       9.836  11.080  18.091  0.00  0.00    +0.000 A 
ATOM     21  C   UNL     1      10.400  12.341  18.286  0.00  0.00    +0.000 A 
ATOM     22  C   UNL     1      10.518  12.849  19.577  0.00  0.00    +0.000 A 
ATOM     23 BR   UNL     1      11.261  14.569  19.840  0.00  0.00    +0.000 Br
ATOM     24  C   UNL     1      10.090  12.108  20.673  0.00  0.00    +0.000 A 
ATOM     25  C   UNL     1       9.523  10.840  20.479  0.00  0.00    +0.000 A 
ENDBRANCH  18  19
ENDBRANCH  17  18
ENDBRANCH  16  17
ENDBRANCH  15  16
ENDBRANCH   6  15
TORSDOF 8
ENDMDL
MODEL 4
REMARK VINA RESULT:      -7.1      0.616      1.160
REMARK  Name = 
REMARK  10 active torsions:
REMARK  status: ('A' for Active; 'I' for Inactive)
REMARK    1  A    between atoms: C_2  and  C_3
REMARK    2  A    between atoms: C_3  and  C_4
REMARK    3  A    between atoms: C_5  and  C_6
REMARK    4  A    between atoms: C_6  and  C_7
REMARK    5  A    between atoms: C_11  and  C_12
REMARK    6  A    between atoms: C_12  and  C_13
REMARK    7  A    between atoms: C_13  and  C_14
REMARK    8  A    between atoms: C_14  and  C_15
REMARK    9  A    between atoms: C_15  and  C_16
REMARK   10  A    between atoms: C_23  and  O_24
REMARK                            x       y       z     vdW  Elec       q    Type
REMARK                         _______ _______ _______ _____ _____    ______ ____
ROOT
ATOM      1  C   UNL     1       4.405   4.733  18.268  0.00  0.00    +0.000 C 
ATOM      2  C   UNL     1       4.239   3.447  17.449  0.00  0.00    +0.000 C 
ATOM      3  S   UNL     1       3.666   6.113  17.319  0.00  0.00    +0.000 S 
ATOM      4  C   UNL     1       5.197   6.507  16.575  0.00  0.00    +0.000 C 
ATOM      5  O   UNL     1       5.320   7.076  15.506  0.00  0.00    +0.000 OA
ATOM      6  C   UNL     1       6.307   6.072  17.440  0.00  0.00    +0.000 C 
ATOM      7  C   UNL     1       5.875   5.155  18.318  0.00  0.00    +0.000 C 
ENDROOT
BRANCH   1  10
ATOM      8  C   UNL     1       2.624   4.234  20.175  0.00  0.00    +0.000 C 
ATOM      9  C   UNL     1       2.573   3.997  21.672  0.00  0.00    +0.000 C 
ATOM     10  C   UNL     1       3.835   4.556  19.668  0.00  0.00    +0.000 C 
BRANCH   8  12
ATOM     11  C   UNL     1       0.981   2.911  18.830  0.00  0.00    +0.000 C 
ATOM     12  C   UNL     1       1.424   4.048  19.378  0.00  0.00    +0.000 C 
ENDBRANCH   8  12
ENDBRANCH   1  10
BRANCH   7  13
ATOM     13  O   UNL     1       6.672   4.632  19.318  0.00  0.00    +0.000 OA
ATOM     14  H   UNL     1       7.218   5.358  19.672  0.00  0.00    +0.000 HD
ENDBRANCH   7  13
BRANCH   6  15
ATOM     15  C   UNL     1       7.647   6.714  17.323  0.00  0.00    +0.000 C 
BRANCH  15  16
ATOM     16  C   UNL     1       7.986   7.746  18.404  0.00  0.00    +0.000 C 
BRANCH  16  17
ATOM     17  C   UNL     1       7.954   9.185  17.863  0.00  0.00    +0.000 C 
BRANCH  17  18
ATOM     18  C   UNL     1       9.300   9.904  18.015  0.00  0.00    +0.000 C 
BRANCH  18  19
ATOM     19  C   UNL     1       9.264  11.028  19.016  0.00  0.00    +0.000 A 
ATOM     20  C   UNL     1       9.031  12.344  18.588  0.00  0.00    +0.000 A 
ATOM     21  C   UNL     1       8.944  13.385  19.514  0.00  0.00    +0.000 A 
ATOM     22  C   UNL     1       9.099  13.111  20.870  0.00  0.00    +0.000 A 
ATOM     23 BR   UNL     1       8.958  14.518  22.129  0.00  0.00    +0.000 Br
ATOM     24  C   UNL     1       9.348  11.815  21.310  0.00  0.00    +0.000 A 
ATOM     25  C   UNL     1       9.434  10.769  20.380  0.00  0.00    +0.000 A 
ENDBRANCH  18  19
ENDBRANCH  17  18
ENDBRANCH  16  17
ENDBRANCH  15  16
ENDBRANCH   6  15
TORSDOF 8
ENDMDL
MODEL 5
REMARK VINA RESULT:      -7.1      2.040      2.418
REMARK  Name = 
REMARK  10 active torsions:
REMARK  status: ('A' for Active; 'I' for Inactive)
REMARK    1  A    between atoms: C_2  and  C_3
REMARK    2  A    between atoms: C_3  and  C_4
REMARK    3  A    between atoms: C_5  and  C_6
REMARK    4  A    between atoms: C_6  and  C_7
REMARK    5  A    between atoms: C_11  and  C_12
REMARK    6  A    between atoms: C_12  and  C_13
REMARK    7  A    between atoms: C_13  and  C_14
REMARK    8  A    between atoms: C_14  and  C_15
REMARK    9  A    between atoms: C_15  and  C_16
REMARK   10  A    between atoms: C_23  and  O_24
REMARK                            x       y       z     vdW  Elec       q    Type
REMARK                         _______ _______ _______ _____ _____    ______ ____
ROOT
ATOM      1  C   UNL     1       4.576   4.047  17.927  0.00  0.00    +0.000 C 
ATOM      2  C   UNL     1       5.167   3.304  19.133  0.00  0.00    +0.000 C 
ATOM      3  S   UNL     1       5.507   3.542  16.433  0.00  0.00    +0.000 S 
ATOM      4  C   UNL     1       6.613   4.885  16.591  0.00  0.00    +0.000 C 
ATOM      5  O   UNL     1       7.747   4.903  16.147  0.00  0.00    +0.000 OA
ATOM      6  C   UNL     1       5.966   5.993  17.315  0.00  0.00    +0.000 C 
ATOM      7  C   UNL     1       4.905   5.539  17.999  0.00  0.00    +0.000 C 
ENDROOT
BRANCH   1  10
ATOM      8  C   UNL     1       2.078   3.641  18.738  0.00  0.00    +0.000 C 
ATOM      9  C   UNL     1       0.671   3.626  18.173  0.00  0.00    +0.000 C 
ATOM     10  C   UNL     1       3.073   3.818  17.840  0.00  0.00    +0.000 C 
BRANCH   8  12
ATOM     11  C   UNL     1       2.023   4.463  21.101  0.00  0.00    +0.000 C 
ATOM     12  C   UNL     1       2.277   3.533  20.172  0.00  0.00    +0.000 C 
ENDBRANCH   8  12
ENDBRANCH   1  10
BRANCH   7  13
ATOM     13  O   UNL     1       4.047   6.366  18.698  0.00  0.00    +0.000 OA
ATOM     14  H   UNL     1       3.303   6.589  18.108  0.00  0.00    +0.000 HD
ENDBRANCH   7  13
BRANCH   6  15
ATOM     15  C   UNL     1       6.457   7.390  17.145  0.00  0.00    +0.000 C 
BRANCH  15  16
ATOM     16  C   UNL     1       7.721   7.750  17.935  0.00  0.00    +0.000 C 
BRANCH  16  17
ATOM     17  C   UNL     1       8.142   9.213  17.722  0.00  0.00    +0.000 C 
BRANCH  17  18
ATOM     18  C   UNL     1       9.003   9.754  18.869  0.00  0.00    +0.000 C 
BRANCH  18  19
ATOM     19  C   UNL     1       9.692  11.051  18.535  0.00  0.00    +0.000 A 
ATOM     20  C   UNL     1      11.067  11.199  18.776  0.00  0.00    +0.000 A 
ATOM     21  C   UNL     1      11.724  12.378  18.422  0.00  0.00    +0.000 A 
ATOM     22  C   UNL     1      11.005  13.414  17.832  0.00  0.00    +0.000 A 
ATOM     23 BR   UNL     1      11.900  15.005  17.330  0.00  0.00    +0.000 Br
ATOM     24  C   UNL     1       9.639  13.290  17.603  0.00  0.00    +0.000 A 
ATOM     25  C   UNL     1       8.977  12.106  17.957  0.00  0.00    +0.000 A 
ENDBRANCH  18  19
ENDBRANCH  17  18
ENDBRANCH  16  17
ENDBRANCH  15  16
ENDBRANCH   6  15
TORSDOF 8
ENDMDL
MODEL 6
REMARK VINA RESULT:      -7.1      1.583      1.882
REMARK  Name = 
REMARK  10 active torsions:
REMARK  status: ('A' for Active; 'I' for Inactive)
REMARK    1  A    between atoms: C_2  and  C_3
REMARK    2  A    between atoms: C_3  and  C_4
REMARK    3  A    between atoms: C_5  and  C_6
REMARK    4  A    between atoms: C_6  and  C_7
REMARK    5  A    between atoms: C_11  and  C_12
REMARK    6  A    between atoms: C_12  and  C_13
REMARK    7  A    between atoms: C_13  and  C_14
REMARK    8  A    between atoms: C_14  and  C_15
REMARK    9  A    between atoms: C_15  and  C_16
REMARK   10  A    between atoms: C_23  and  O_24
REMARK                            x       y       z     vdW  Elec       q    Type
REMARK                         _______ _______ _______ _____ _____    ______ ____
ROOT
ATOM      1  C   UNL     1       3.832   4.364  18.363  0.00  0.00    +0.000 C 
ATOM      2  C   UNL     1       2.911   3.757  17.296  0.00  0.00    +0.000 C 
ATOM      3  S   UNL     1       3.018   5.859  19.036  0.00  0.00    +0.000 S 
ATOM      4  C   UNL     1       3.830   6.896  17.888  0.00  0.00    +0.000 C 
ATOM      5  O   UNL     1       3.412   7.979  17.518  0.00  0.00    +0.000 OA
ATOM      6  C   UNL     1       5.096   6.281  17.456  0.00  0.00    +0.000 C 
ATOM      7  C   UNL     1       5.082   4.965  17.717  0.00  0.00    +0.000 C 
ENDROOT
BRANCH   1  10
ATOM      8  C   UNL     1       3.525   2.645  20.365  0.00  0.00    +0.000 C 
ATOM      9  C   UNL     1       4.297   1.547  21.071  0.00  0.00    +0.000 C 
ATOM     10  C   UNL     1       4.200   3.322  19.409  0.00  0.00    +0.000 C 
BRANCH   8  12
ATOM     11  C   UNL     1       1.502   2.555  21.836  0.00  0.00    +0.000 C 
ATOM     12  C   UNL     1       2.128   2.864  20.693  0.00  0.00    +0.000 C 
ENDBRANCH   8  12
ENDBRANCH   1  10
BRANCH   7  13
ATOM     13  O   UNL     1       6.170   4.142  17.507  0.00  0.00    +0.000 OA
ATOM     14  H   UNL     1       6.086   3.761  16.612  0.00  0.00    +0.000 HD
ENDBRANCH   7  13
BRANCH   6  15
ATOM     15  C   UNL     1       6.198   7.128  16.916  0.00  0.00    +0.000 C 
BRANCH  15  16
ATOM     16  C   UNL     1       7.595   6.835  17.475  0.00  0.00    +0.000 C 
BRANCH  16  17
ATOM     17  C   UNL     1       8.140   8.000  18.317  0.00  0.00    +0.000 C 
BRANCH  17  18
ATOM     18  C   UNL     1       8.306   9.290  17.506  0.00  0.00    +0.000 C 
BRANCH  18  19
ATOM     19  C   UNL     1       8.771  10.458  18.335  0.00  0.00    +0.000 A 
ATOM     20  C   UNL     1       9.329  10.242  19.605  0.00  0.00    +0.000 A 
ATOM     21  C   UNL     1       9.809  11.313  20.358  0.00  0.00    +0.000 A 
ATOM     22  C   UNL     1       9.725  12.605  19.846  0.00  0.00    +0.000 A 
ATOM     23 BR   UNL     1      10.398  14.057  20.858  0.00  0.00    +0.000 Br
ATOM     24  C   UNL     1       9.159  12.839  18.597  0.00  0.00    +0.000 A 
ATOM     25  C   UNL     1       8.677  11.763  17.839  0.00  0.00    +0.000 A 
ENDBRANCH  18  19
ENDBRANCH  17  18
ENDBRANCH  16  17
ENDBRANCH  15  16
ENDBRANCH   6  15
TORSDOF 8
ENDMDL
MODEL 7
REMARK VINA RESULT:      -7.1      2.663      4.561
REMARK  Name = 
REMARK  10 active torsions:
REMARK  status: ('A' for Active; 'I' for Inactive)
REMARK    1  A    between atoms: C_2  and  C_3
REMARK    2  A    between atoms: C_3  and  C_4
REMARK    3  A    between atoms: C_5  and  C_6
REMARK    4  A    between atoms: C_6  and  C_7
REMARK    5  A    between atoms: C_11  and  C_12
REMARK    6  A    between atoms: C_12  and  C_13
REMARK    7  A    between atoms: C_13  and  C_14
REMARK    8  A    between atoms: C_14  and  C_15
REMARK    9  A    between atoms: C_15  and  C_16
REMARK   10  A    between atoms: C_23  and  O_24
REMARK                            x       y       z     vdW  Elec       q    Type
REMARK                         _______ _______ _______ _____ _____    ______ ____
ROOT
ATOM      1  C   UNL     1       5.786   4.832  16.469  0.00  0.00    +0.000 C 
ATOM      2  C   UNL     1       4.640   4.318  17.351  0.00  0.00    +0.000 C 
ATOM      3  S   UNL     1       7.369   4.408  17.285  0.00  0.00    +0.000 S 
ATOM      4  C   UNL     1       7.436   5.951  18.100  0.00  0.00    +0.000 C 
ATOM      5  O   UNL     1       8.037   6.158  19.139  0.00  0.00    +0.000 OA
ATOM      6  C   UNL     1       6.685   6.961  17.337  0.00  0.00    +0.000 C 
ATOM      7  C   UNL     1       5.836   6.361  16.489  0.00  0.00    +0.000 C 
ENDROOT
BRANCH   1  10
ATOM      8  C   UNL     1       6.391   4.382  13.922  0.00  0.00    +0.000 C 
ATOM      9  C   UNL     1       5.926   3.524  12.760  0.00  0.00    +0.000 C 
ATOM     10  C   UNL     1       5.648   4.304  15.048  0.00  0.00    +0.000 C 
BRANCH   8  12
ATOM     11  C   UNL     1       8.178   5.601  12.664  0.00  0.00    +0.000 C 
ATOM     12  C   UNL     1       7.606   5.166  13.793  0.00  0.00    +0.000 C 
ENDBRANCH   8  12
ENDBRANCH   1  10
BRANCH   7  13
ATOM     13  O   UNL     1       5.066   7.053  15.575  0.00  0.00    +0.000 OA
ATOM     14  H   UNL     1       4.228   7.293  16.015  0.00  0.00    +0.000 HD
ENDBRANCH   7  13
BRANCH   6  15
ATOM     15  C   UNL     1       6.992   8.411  17.502  0.00  0.00    +0.000 C 
BRANCH  15  16
ATOM     16  C   UNL     1       8.300   8.733  18.234  0.00  0.00    +0.000 C 
BRANCH  16  17
ATOM     17  C   UNL     1       8.884  10.091  17.810  0.00  0.00    +0.000 C 
BRANCH  17  18
ATOM     18  C   UNL     1       9.544  10.840  18.974  0.00  0.00    +0.000 C 
BRANCH  18  19
ATOM     19  C   UNL     1      10.164  12.149  18.562  0.00  0.00    +0.000 A 
ATOM     20  C   UNL     1       9.858  13.325  19.266  0.00  0.00    +0.000 A 
ATOM     21  C   UNL     1      10.467  14.533  18.924  0.00  0.00    +0.000 A 
ATOM     22  C   UNL     1      11.379  14.568  17.872  0.00  0.00    +0.000 A 
ATOM     23 BR   UNL     1      12.224  16.201  17.423  0.00  0.00    +0.000 Br
ATOM     24  C   UNL     1      11.680  13.416  17.154  0.00  0.00    +0.000 A 
ATOM     25  C   UNL     1      11.069  12.201  17.496  0.00  0.00    +0.000 A 
ENDBRANCH  18  19
ENDBRANCH  17  18
ENDBRANCH  16  17
ENDBRANCH  15  16
ENDBRANCH   6  15
TORSDOF 8
ENDMDL
MODEL 8
REMARK VINA RESULT:      -7.1      2.014      2.644
REMARK  Name = 
REMARK  10 active torsions:
REMARK  status: ('A' for Active; 'I' for Inactive)
REMARK    1  A    between atoms: C_2  and  C_3
REMARK    2  A    between atoms: C_3  and  C_4
REMARK    3  A    between atoms: C_5  and  C_6
REMARK    4  A    between atoms: C_6  and  C_7
REMARK    5  A    between atoms: C_11  and  C_12
REMARK    6  A    between atoms: C_12  and  C_13
REMARK    7  A    between atoms: C_13  and  C_14
REMARK    8  A    between atoms: C_14  and  C_15
REMARK    9  A    between atoms: C_15  and  C_16
REMARK   10  A    between atoms: C_23  and  O_24
REMARK                            x       y       z     vdW  Elec       q    Type
REMARK                         _______ _______ _______ _____ _____    ______ ____
ROOT
ATOM      1  C   UNL     1       4.534   4.859  18.200  0.00  0.00    +0.000 C 
ATOM      2  C   UNL     1       4.573   4.604  19.712  0.00  0.00    +0.000 C 
ATOM      3  S   UNL     1       5.664   3.667  17.391  0.00  0.00    +0.000 S 
ATOM      4  C   UNL     1       6.997   4.796  17.446  0.00  0.00    +0.000 C 
ATOM      5  O   UNL     1       8.172   4.478  17.443  0.00  0.00    +0.000 OA
ATOM      6  C   UNL     1       6.490   6.178  17.473  0.00  0.00    +0.000 C 
ATOM      7  C   UNL     1       5.206   6.191  17.861  0.00  0.00    +0.000 C 
ENDROOT
BRANCH   1  10
ATOM      8  C   UNL     1       2.151   3.863  17.578  0.00  0.00    +0.000 C 
ATOM      9  C   UNL     1       0.776   4.343  17.154  0.00  0.00    +0.000 C 
ATOM     10  C   UNL     1       3.102   4.818  17.686  0.00  0.00    +0.000 C 
BRANCH   8  12
ATOM     11  C   UNL     1       2.172   1.862  19.079  0.00  0.00    +0.000 C 
ATOM     12  C   UNL     1       2.355   2.462  17.897  0.00  0.00    +0.000 C 
ENDBRANCH   8  12
ENDBRANCH   1  10
BRANCH   7  13
ATOM     13  O   UNL     1       4.437   7.338  17.891  0.00  0.00    +0.000 OA
ATOM     14  H   UNL     1       3.690   7.179  18.498  0.00  0.00    +0.000 HD
ENDBRANCH   7  13
BRANCH   6  15
ATOM     15  C   UNL     1       7.351   7.304  17.012  0.00  0.00    +0.000 C 
BRANCH  15  16
ATOM     16  C   UNL     1       8.206   7.973  18.094  0.00  0.00    +0.000 C 
BRANCH  16  17
ATOM     17  C   UNL     1       8.242   9.502  17.944  0.00  0.00    +0.000 C 
BRANCH  17  18
ATOM     18  C   UNL     1       9.128  10.180  18.996  0.00  0.00    +0.000 C 
BRANCH  18  19
ATOM     19  C   UNL     1       9.657  11.519  18.554  0.00  0.00    +0.000 A 
ATOM     20  C   UNL     1      10.711  11.588  17.629  0.00  0.00    +0.000 A 
ATOM     21  C   UNL     1      11.173  12.824  17.175  0.00  0.00    +0.000 A 
ATOM     22  C   UNL     1      10.587  13.993  17.652  0.00  0.00    +0.000 A 
ATOM     23 BR   UNL     1      11.198  15.669  17.019  0.00  0.00    +0.000 Br
ATOM     24  C   UNL     1       9.554  13.943  18.581  0.00  0.00    +0.000 A 
ATOM     25  C   UNL     1       9.088  12.702  19.038  0.00  0.00    +0.000 A 
ENDBRANCH  18  19
ENDBRANCH  17  18
ENDBRANCH  16  17
ENDBRANCH  15  16
ENDBRANCH   6  15
TORSDOF 8
ENDMDL
MODEL 9
REMARK VINA RESULT:      -7.0      5.144      7.291
REMARK  Name = 
REMARK  10 active torsions:
REMARK  status: ('A' for Active; 'I' for Inactive)
REMARK    1  A    between atoms: C_2  and  C_3
REMARK    2  A    between atoms: C_3  and  C_4
REMARK    3  A    between atoms: C_5  and  C_6
REMARK    4  A    between atoms: C_6  and  C_7
REMARK    5  A    between atoms: C_11  and  C_12
REMARK    6  A    between atoms: C_12  and  C_13
REMARK    7  A    between atoms: C_13  and  C_14
REMARK    8  A    between atoms: C_14  and  C_15
REMARK    9  A    between atoms: C_15  and  C_16
REMARK   10  A    between atoms: C_23  and  O_24
REMARK                            x       y       z     vdW  Elec       q    Type
REMARK                         _______ _______ _______ _____ _____    ______ ____
ROOT
ATOM      1  C   UNL     1       3.169   3.232  18.389  0.00  0.00    +0.000 C 
ATOM      2  C   UNL     1       2.266   2.088  17.909  0.00  0.00    +0.000 C 
ATOM      3  S   UNL     1       3.866   2.766  20.016  0.00  0.00    +0.000 S 
ATOM      4  C   UNL     1       2.569   3.564  20.872  0.00  0.00    +0.000 C 
ATOM      5  O   UNL     1       2.203   3.276  21.997  0.00  0.00    +0.000 OA
ATOM      6  C   UNL     1       2.007   4.645  20.046  0.00  0.00    +0.000 C 
ATOM      7  C   UNL     1       2.334   4.460  18.758  0.00  0.00    +0.000 C 
ENDROOT
BRANCH   1  10
ATOM      8  C   UNL     1       5.245   4.439  17.251  0.00  0.00    +0.000 C 
ATOM      9  C   UNL     1       6.137   4.295  16.032  0.00  0.00    +0.000 C 
ATOM     10  C   UNL     1       4.210   3.572  17.332  0.00  0.00    +0.000 C 
BRANCH   8  12
ATOM     11  C   UNL     1       6.661   5.457  19.045  0.00  0.00    +0.000 C 
ATOM     12  C   UNL     1       5.572   5.422  18.268  0.00  0.00    +0.000 C 
ENDBRANCH   8  12
ENDBRANCH   1  10
BRANCH   7  13
ATOM     13  O   UNL     1       2.025   5.365  17.762  0.00  0.00    +0.000 OA
ATOM     14  H   UNL     1       1.658   6.162  18.189  0.00  0.00    +0.000 HD
ENDBRANCH   7  13
BRANCH   6  15
ATOM     15  C   UNL     1       1.283   5.781  20.685  0.00  0.00    +0.000 C 
BRANCH  15  16
ATOM     16  C   UNL     1       1.889   7.170  20.452  0.00  0.00    +0.000 C 
BRANCH  16  17
ATOM     17  C   UNL     1       1.460   8.179  21.530  0.00  0.00    +0.000 C 
BRANCH  17  18
ATOM     18  C   UNL     1       0.045   8.723  21.301  0.00  0.00    +0.000 C 
BRANCH  18  19
ATOM     19  C   UNL     1       0.028  10.081  20.650  0.00  0.00    +0.000 A 
ATOM     20  C   UNL     1      -0.691  10.283  19.462  0.00  0.00    +0.000 A 
ATOM     21  C   UNL     1      -0.754  11.549  18.879  0.00  0.00    +0.000 A 
ATOM     22  C   UNL     1      -0.092  12.615  19.482  0.00  0.00    +0.000 A 
ATOM     23 BR   UNL     1      -0.197  14.339  18.706  0.00  0.00    +0.000 Br
ATOM     24  C   UNL     1       0.639  12.429  20.650  0.00  0.00    +0.000 A 
ATOM     25  C   UNL     1       0.703  11.157  21.237  0.00  0.00    +0.000 A 
ENDBRANCH  18  19
ENDBRANCH  17  18
ENDBRANCH  16  17
ENDBRANCH  15  16
ENDBRANCH   6  15
TORSDOF 8
ENDMDL
