MODEL 1
REMARK VINA RESULT:      -7.0      0.000      0.000
REMARK  Name = 
REMARK  7 active torsions:
REMARK  status: ('A' for Active; 'I' for Inactive)
REMARK    1  A    between atoms: C_1  and  C_2
REMARK    2  A    between atoms: C_2  and  C_3
REMARK    3  A    between atoms: C_6  and  C_7
REMARK    4  A    between atoms: C_9  and  S_10
REMARK    5  A    between atoms: S_10  and  C_11
REMARK    6  A    between atoms: C_11  and  C_12
REMARK    7  A    between atoms: C_12  and  C_13
REMARK                            x       y       z     vdW  Elec       q    Type
REMARK                         _______ _______ _______ _____ _____    ______ ____
ROOT
ATOM      1  C   UNL     1       1.791   2.598  21.842  0.00  0.00    +0.000 C 
ATOM      2  C   UNL     1       2.135   3.405  20.583  0.00  0.00    +0.000 C 
ATOM      3  C   UNL     1       1.253   2.902  19.430  0.00  0.00    +0.000 C 
ATOM      4  C   UNL     1       1.946   4.902  20.880  0.00  0.00    +0.000 C 
ATOM      5  C   UNL     1       2.591   5.802  19.844  0.00  0.00    +0.000 A 
ATOM      6  C   UNL     1       2.174   7.137  19.689  0.00  0.00    +0.000 A 
ATOM      7  C   UNL     1       2.751   7.886  18.670  0.00  0.00    +0.000 A 
ATOM      8  N   UNL     1       3.709   7.386  17.855  0.00  0.00    +0.000 NA
ATOM      9  C   UNL     1       4.155   6.116  18.016  0.00  0.00    +0.000 A 
ATOM     10  N   UNL     1       5.001   5.602  17.029  0.00  0.00    +0.000 N 
ATOM     11  C   UNL     1       5.002   6.381  15.765  0.00  0.00    +0.000 C 
ATOM     12  C   UNL     1       5.647   5.526  14.665  0.00  0.00    +0.000 C 
ATOM     13  O   UNL     1       6.989   5.143  15.015  0.00  0.00    +0.000 OA
ATOM     14  C   UNL     1       7.003   4.433  16.266  0.00  0.00    +0.000 C 
ATOM     15  C   UNL     1       6.398   5.285  17.402  0.00  0.00    +0.000 C 
ATOM     16  C   UNL     1       3.627   5.293  19.028  0.00  0.00    +0.000 A 
ATOM     17  C   UNL     1       4.031   3.841  19.168  0.00  0.00    +0.000 C 
ATOM     18  O   UNL     1       3.520   3.170  20.324  0.00  0.00    +0.000 OA
ENDROOT
BRANCH   6  19
ATOM     19  C   UNL     1       1.157   7.688  20.538  0.00  0.00    +0.000 C 
ATOM     20  N   UNL     1       0.372   8.149  21.256  0.00  0.00    +0.000 NA
ENDBRANCH   6  19
BRANCH   7  21
ATOM     21  S   UNL     1       2.228   9.570  18.329  0.00  0.00    +0.000 S 
BRANCH  21  22
ATOM     22  C   UNL     1       0.520   9.329  17.720  0.00  0.00    +0.000 C 
BRANCH  22  23
ATOM     23  C   UNL     1      -0.465  10.335  18.307  0.00  0.00    +0.000 C 
BRANCH  23  24
ATOM     24  C   UNL     1      -1.819  10.067  17.810  0.00  0.00    +0.000 C 
ATOM     25  N   UNL     1      -2.898   9.867  17.426  0.00  0.00    +0.000 NA
ENDBRANCH  23  24
ENDBRANCH  22  23
ENDBRANCH  21  22
ENDBRANCH   7  21
TORSDOF 5
ENDMDL
MODEL 2
REMARK VINA RESULT:      -6.7      0.968      1.052
REMARK  Name = 
REMARK  7 active torsions:
REMARK  status: ('A' for Active; 'I' for Inactive)
REMARK    1  A    between atoms: C_1  and  C_2
REMARK    2  A    between atoms: C_2  and  C_3
REMARK    3  A    between atoms: C_6  and  C_7
REMARK    4  A    between atoms: C_9  and  S_10
REMARK    5  A    between atoms: S_10  and  C_11
REMARK    6  A    between atoms: C_11  and  C_12
REMARK    7  A    between atoms: C_12  and  C_13
REMARK                            x       y       z     vdW  Elec       q    Type
REMARK                         _______ _______ _______ _____ _____    ______ ____
ROOT
ATOM      1  C   UNL     1       1.617   2.553  21.795  0.00  0.00    +0.000 C 
ATOM      2  C   UNL     1       2.010   3.382  20.564  0.00  0.00    +0.000 C 
ATOM      3  C   UNL     1       1.152   2.918  19.376  0.00  0.00    +0.000 C 
ATOM      4  C   UNL     1       1.836   4.874  20.890  0.00  0.00    +0.000 C 
ATOM      5  C   UNL     1       2.525   5.786  19.892  0.00  0.00    +0.000 A 
ATOM      6  C   UNL     1       2.134   7.130  19.755  0.00  0.00    +0.000 A 
ATOM      7  C   UNL     1       2.751   7.892  18.769  0.00  0.00    +0.000 A 
ATOM      8  N   UNL     1       3.724   7.394  17.970  0.00  0.00    +0.000 NA
ATOM      9  C   UNL     1       4.144   6.114  18.115  0.00  0.00    +0.000 A 
ATOM     10  N   UNL     1       5.009   5.607  17.140  0.00  0.00    +0.000 N 
ATOM     11  C   UNL     1       5.058   6.413  15.895  0.00  0.00    +0.000 C 
ATOM     12  C   UNL     1       5.720   5.571  14.794  0.00  0.00    +0.000 C 
ATOM     13  O   UNL     1       7.044   5.159  15.173  0.00  0.00    +0.000 OA
ATOM     14  C   UNL     1       7.012   4.421  16.407  0.00  0.00    +0.000 C 
ATOM     15  C   UNL     1       6.390   5.258  17.545  0.00  0.00    +0.000 C 
ATOM     16  C   UNL     1       3.575   5.277  19.094  0.00  0.00    +0.000 A 
ATOM     17  C   UNL     1       3.951   3.816  19.212  0.00  0.00    +0.000 C 
ATOM     18  O   UNL     1       3.397   3.128  20.338  0.00  0.00    +0.000 OA
ENDROOT
BRANCH   6  19
ATOM     19  C   UNL     1       1.102   7.680  20.588  0.00  0.00    +0.000 C 
ATOM     20  N   UNL     1       0.305   8.134  21.296  0.00  0.00    +0.000 NA
ENDBRANCH   6  19
BRANCH   7  21
ATOM     21  S   UNL     1       2.266   9.592  18.452  0.00  0.00    +0.000 S 
BRANCH  21  22
ATOM     22  C   UNL     1       0.643   9.383  17.632  0.00  0.00    +0.000 C 
BRANCH  22  23
ATOM     23  C   UNL     1      -0.474  10.153  18.329  0.00  0.00    +0.000 C 
BRANCH  23  24
ATOM     24  C   UNL     1       0.025  11.444  18.814  0.00  0.00    +0.000 C 
ATOM     25  N   UNL     1       0.434  12.460  19.205  0.00  0.00    +0.000 NA
ENDBRANCH  23  24
ENDBRANCH  22  23
ENDBRANCH  21  22
ENDBRANCH   7  21
TORSDOF 5
ENDMDL
MODEL 3
REMARK VINA RESULT:      -6.3      5.399      9.072
REMARK  Name = 
REMARK  7 active torsions:
REMARK  status: ('A' for Active; 'I' for Inactive)
REMARK    1  A    between atoms: C_1  and  C_2
REMARK    2  A    between atoms: C_2  and  C_3
REMARK    3  A    between atoms: C_6  and  C_7
REMARK    4  A    between atoms: C_9  and  S_10
REMARK    5  A    between atoms: S_10  and  C_11
REMARK    6  A    between atoms: C_11  and  C_12
REMARK    7  A    between atoms: C_12  and  C_13
REMARK                            x       y       z     vdW  Elec       q    Type
REMARK                         _______ _______ _______ _____ _____    ______ ____
ROOT
ATOM      1  C   UNL     1       2.122   8.819  18.127  0.00  0.00    +0.000 C 
ATOM      2  C   UNL     1       1.137   9.953  18.448  0.00  0.00    +0.000 C 
ATOM      3  C   UNL     1       1.766  11.281  17.996  0.00  0.00    +0.000 C 
ATOM      4  C   UNL     1      -0.208   9.656  17.765  0.00  0.00    +0.000 C 
ATOM      5  C   UNL     1      -1.346  10.506  18.296  0.00  0.00    +0.000 A 
ATOM      6  C   UNL     1      -2.513  10.704  17.536  0.00  0.00    +0.000 A 
ATOM      7  C   UNL     1      -3.487  11.556  18.045  0.00  0.00    +0.000 A 
ATOM      8  N   UNL     1      -3.361  12.166  19.247  0.00  0.00    +0.000 NA
ATOM      9  C   UNL     1      -2.263  11.954  20.014  0.00  0.00    +0.000 A 
ATOM     10  N   UNL     1      -2.107  12.756  21.148  0.00  0.00    +0.000 N 
ATOM     11  C   UNL     1      -2.966  13.967  21.157  0.00  0.00    +0.000 C 
ATOM     12  C   UNL     1      -2.436  14.933  22.228  0.00  0.00    +0.000 C 
ATOM     13  O   UNL     1      -2.425  14.320  23.529  0.00  0.00    +0.000 OA
ATOM     14  C   UNL     1      -1.637  13.116  23.516  0.00  0.00    +0.000 C 
ATOM     15  C   UNL     1      -2.171  12.108  22.477  0.00  0.00    +0.000 C 
ATOM     16  C   UNL     1      -1.233  11.101  19.573  0.00  0.00    +0.000 A 
ATOM     17  C   UNL     1       0.047  10.924  20.360  0.00  0.00    +0.000 C 
ATOM     18  O   UNL     1       0.940   9.922  19.862  0.00  0.00    +0.000 OA
ENDROOT
BRANCH   6  19
ATOM     19  C   UNL     1      -2.668  10.072  16.257  0.00  0.00    +0.000 C 
ATOM     20  N   UNL     1      -2.846   9.565  15.230  0.00  0.00    +0.000 NA
ENDBRANCH   6  19
BRANCH   7  21
ATOM     21  S   UNL     1      -4.974  11.948  17.117  0.00  0.00    +0.000 S 
BRANCH  21  22
ATOM     22  C   UNL     1      -6.261  11.913  18.417  0.00  0.00    +0.000 C 
BRANCH  22  23
ATOM     23  C   UNL     1      -6.703  10.497  18.773  0.00  0.00    +0.000 C 
BRANCH  23  24
ATOM     24  C   UNL     1      -7.190  10.451  20.156  0.00  0.00    +0.000 C 
ATOM     25  N   UNL     1      -7.576  10.399  21.252  0.00  0.00    +0.000 NA
ENDBRANCH  23  24
ENDBRANCH  22  23
ENDBRANCH  21  22
ENDBRANCH   7  21
TORSDOF 5
ENDMDL
MODEL 4
REMARK VINA RESULT:      -6.0      5.295      9.079
REMARK  Name = 
REMARK  7 active torsions:
REMARK  status: ('A' for Active; 'I' for Inactive)
REMARK    1  A    between atoms: C_1  and  C_2
REMARK    2  A    between atoms: C_2  and  C_3
REMARK    3  A    between atoms: C_6  and  C_7
REMARK    4  A    between atoms: C_9  and  S_10
REMARK    5  A    between atoms: S_10  and  C_11
REMARK    6  A    between atoms: C_11  and  C_12
REMARK    7  A    between atoms: C_12  and  C_13
REMARK                            x       y       z     vdW  Elec       q    Type
REMARK                         _______ _______ _______ _____ _____    ______ ____
ROOT
ATOM      1  C   UNL     1       2.115   8.632  18.211  0.00  0.00    +0.000 C 
ATOM      2  C   UNL     1       1.157   9.798  18.498  0.00  0.00    +0.000 C 
ATOM      3  C   UNL     1       1.825  11.099  18.028  0.00  0.00    +0.000 C 
ATOM      4  C   UNL     1      -0.187   9.522  17.805  0.00  0.00    +0.000 C 
ATOM      5  C   UNL     1      -1.309  10.412  18.306  0.00  0.00    +0.000 A 
ATOM      6  C   UNL     1      -2.462  10.626  17.528  0.00  0.00    +0.000 A 
ATOM      7  C   UNL     1      -3.418  11.513  18.009  0.00  0.00    +0.000 A 
ATOM      8  N   UNL     1      -3.289  12.143  19.199  0.00  0.00    +0.000 NA
ATOM      9  C   UNL     1      -2.207  11.917  19.983  0.00  0.00    +0.000 A 
ATOM     10  N   UNL     1      -2.042  12.738  21.103  0.00  0.00    +0.000 N 
ATOM     11  C   UNL     1      -2.869  13.971  21.078  0.00  0.00    +0.000 C 
ATOM     12  C   UNL     1      -2.326  14.944  22.136  0.00  0.00    +0.000 C 
ATOM     13  O   UNL     1      -2.346  14.357  23.449  0.00  0.00    +0.000 OA
ATOM     14  C   UNL     1      -1.590  13.133  23.469  0.00  0.00    +0.000 C 
ATOM     15  C   UNL     1      -2.139  12.118  22.444  0.00  0.00    +0.000 C 
ATOM     16  C   UNL     1      -1.195  11.029  19.572  0.00  0.00    +0.000 A 
ATOM     17  C   UNL     1       0.071  10.835  20.378  0.00  0.00    +0.000 C 
ATOM     18  O   UNL     1       0.944   9.801  19.910  0.00  0.00    +0.000 OA
ENDROOT
BRANCH   6  19
ATOM     19  C   UNL     1      -2.619   9.972  16.260  0.00  0.00    +0.000 C 
ATOM     20  N   UNL     1      -2.770   9.487  15.218  0.00  0.00    +0.000 NA
ENDBRANCH   6  19
BRANCH   7  21
ATOM     21  S   UNL     1      -4.883  11.924  17.055  0.00  0.00    +0.000 S 
BRANCH  21  22
ATOM     22  C   UNL     1      -5.977  12.658  18.326  0.00  0.00    +0.000 C 
BRANCH  22  23
ATOM     23  C   UNL     1      -7.309  13.133  17.756  0.00  0.00    +0.000 C 
BRANCH  23  24
ATOM     24  C   UNL     1      -7.092  14.232  16.809  0.00  0.00    +0.000 C 
ATOM     25  N   UNL     1      -6.916  15.092  16.046  0.00  0.00    +0.000 NA
ENDBRANCH  23  24
ENDBRANCH  22  23
ENDBRANCH  21  22
ENDBRANCH   7  21
TORSDOF 5
ENDMDL
MODEL 5
REMARK VINA RESULT:      -5.8      5.901      9.720
REMARK  Name = 
REMARK  7 active torsions:
REMARK  status: ('A' for Active; 'I' for Inactive)
REMARK    1  A    between atoms: C_1  and  C_2
REMARK    2  A    between atoms: C_2  and  C_3
REMARK    3  A    between atoms: C_6  and  C_7
REMARK    4  A    between atoms: C_9  and  S_10
REMARK    5  A    between atoms: S_10  and  C_11
REMARK    6  A    between atoms: C_11  and  C_12
REMARK    7  A    between atoms: C_12  and  C_13
REMARK                            x       y       z     vdW  Elec       q    Type
REMARK                         _______ _______ _______ _____ _____    ______ ____
ROOT
ATOM      1  C   UNL     1       1.797   9.492  18.995  0.00  0.00    +0.000 C 
ATOM      2  C   UNL     1       0.756  10.603  19.199  0.00  0.00    +0.000 C 
ATOM      3  C   UNL     1       1.323  11.909  18.622  0.00  0.00    +0.000 C 
ATOM      4  C   UNL     1      -0.567  10.175  18.543  0.00  0.00    +0.000 C 
ATOM      5  C   UNL     1      -1.750  11.015  18.984  0.00  0.00    +0.000 A 
ATOM      6  C   UNL     1      -2.919  11.081  18.203  0.00  0.00    +0.000 A 
ATOM      7  C   UNL     1      -3.937  11.929  18.622  0.00  0.00    +0.000 A 
ATOM      8  N   UNL     1      -3.851  12.659  19.758  0.00  0.00    +0.000 NA
ATOM      9  C   UNL     1      -2.751  12.577  20.547  0.00  0.00    +0.000 A 
ATOM     10  N   UNL     1      -2.644  13.493  21.598  0.00  0.00    +0.000 N 
ATOM     11  C   UNL     1      -3.561  14.656  21.484  0.00  0.00    +0.000 C 
ATOM     12  C   UNL     1      -3.088  15.747  22.457  0.00  0.00    +0.000 C 
ATOM     13  O   UNL     1      -3.059  15.265  23.812  0.00  0.00    +0.000 OA
ATOM     14  C   UNL     1      -2.213  14.106  23.921  0.00  0.00    +0.000 C 
ATOM     15  C   UNL     1      -2.689  12.976  22.984  0.00  0.00    +0.000 C 
ATOM     16  C   UNL     1      -1.677  11.737  20.197  0.00  0.00    +0.000 A 
ATOM     17  C   UNL     1      -0.397  11.701  21.002  0.00  0.00    +0.000 C 
ATOM     18  O   UNL     1       0.548  10.701  20.609  0.00  0.00    +0.000 OA
ENDROOT
BRANCH   6  19
ATOM     19  C   UNL     1      -3.031  10.319  16.991  0.00  0.00    +0.000 C 
ATOM     20  N   UNL     1      -3.088   9.737  15.990  0.00  0.00    +0.000 NA
ENDBRANCH   6  19
BRANCH   7  21
ATOM     21  S   UNL     1      -5.432  12.154  17.654  0.00  0.00    +0.000 S 
BRANCH  21  22
ATOM     22  C   UNL     1      -6.545  10.886  18.362  0.00  0.00    +0.000 C 
BRANCH  22  23
ATOM     23  C   UNL     1      -7.216  11.342  19.653  0.00  0.00    +0.000 C 
BRANCH  23  24
ATOM     24  C   UNL     1      -7.495  10.189  20.515  0.00  0.00    +0.000 C 
ATOM     25  N   UNL     1      -7.727   9.282  21.206  0.00  0.00    +0.000 NA
ENDBRANCH  23  24
ENDBRANCH  22  23
ENDBRANCH  21  22
ENDBRANCH   7  21
TORSDOF 5
ENDMDL
MODEL 6
REMARK VINA RESULT:      -5.8      1.403      1.604
REMARK  Name = 
REMARK  7 active torsions:
REMARK  status: ('A' for Active; 'I' for Inactive)
REMARK    1  A    between atoms: C_1  and  C_2
REMARK    2  A    between atoms: C_2  and  C_3
REMARK    3  A    between atoms: C_6  and  C_7
REMARK    4  A    between atoms: C_9  and  S_10
REMARK    5  A    between atoms: S_10  and  C_11
REMARK    6  A    between atoms: C_11  and  C_12
REMARK    7  A    between atoms: C_12  and  C_13
REMARK                            x       y       z     vdW  Elec       q    Type
REMARK                         _______ _______ _______ _____ _____    ______ ____
ROOT
ATOM      1  C   UNL     1       1.831   2.664  21.980  0.00  0.00    +0.000 C 
ATOM      2  C   UNL     1       2.182   3.425  20.693  0.00  0.00    +0.000 C 
ATOM      3  C   UNL     1       1.414   2.783  19.527  0.00  0.00    +0.000 C 
ATOM      4  C   UNL     1       1.853   4.915  20.887  0.00  0.00    +0.000 C 
ATOM      5  C   UNL     1       2.483   5.806  19.833  0.00  0.00    +0.000 A 
ATOM      6  C   UNL     1       1.968   7.089  19.573  0.00  0.00    +0.000 A 
ATOM      7  C   UNL     1       2.540   7.825  18.543  0.00  0.00    +0.000 A 
ATOM      8  N   UNL     1       3.582   7.364  17.813  0.00  0.00    +0.000 NA
ATOM      9  C   UNL     1       4.121   6.148  18.076  0.00  0.00    +0.000 A 
ATOM     10  N   UNL     1       5.063   5.652  17.170  0.00  0.00    +0.000 N 
ATOM     11  C   UNL     1       5.074   6.355  15.862  0.00  0.00    +0.000 C 
ATOM     12  C   UNL     1       5.851   5.497  14.853  0.00  0.00    +0.000 C 
ATOM     13  O   UNL     1       7.196   5.251  15.299  0.00  0.00    +0.000 OA
ATOM     14  C   UNL     1       7.195   4.616  16.590  0.00  0.00    +0.000 C 
ATOM     15  C   UNL     1       6.457   5.477  17.637  0.00  0.00    +0.000 C 
ATOM     16  C   UNL     1       3.603   5.341  19.108  0.00  0.00    +0.000 A 
ATOM     17  C   UNL     1       4.116   3.940  19.358  0.00  0.00    +0.000 C 
ATOM     18  O   UNL     1       3.594   3.294  20.524  0.00  0.00    +0.000 OA
ENDROOT
BRANCH   6  19
ATOM     19  C   UNL     1       0.860   7.599  20.330  0.00  0.00    +0.000 C 
ATOM     20  N   UNL     1      -0.010   7.997  20.986  0.00  0.00    +0.000 NA
ENDBRANCH   6  19
BRANCH   7  21
ATOM     21  S   UNL     1       1.902   9.437  18.071  0.00  0.00    +0.000 S 
BRANCH  21  22
ATOM     22  C   UNL     1       1.851  10.316  19.674  0.00  0.00    +0.000 C 
BRANCH  22  23
ATOM     23  C   UNL     1       0.756  11.376  19.733  0.00  0.00    +0.000 C 
BRANCH  23  24
ATOM     24  C   UNL     1       0.287  11.544  21.112  0.00  0.00    +0.000 C 
ATOM     25  N   UNL     1      -0.072  11.671  22.211  0.00  0.00    +0.000 NA
ENDBRANCH  23  24
ENDBRANCH  22  23
ENDBRANCH  21  22
ENDBRANCH   7  21
TORSDOF 5
ENDMDL
MODEL 7
REMARK VINA RESULT:      -5.6      6.142      9.814
REMARK  Name = 
REMARK  7 active torsions:
REMARK  status: ('A' for Active; 'I' for Inactive)
REMARK    1  A    between atoms: C_1  and  C_2
REMARK    2  A    between atoms: C_2  and  C_3
REMARK    3  A    between atoms: C_6  and  C_7
REMARK    4  A    between atoms: C_9  and  S_10
REMARK    5  A    between atoms: S_10  and  C_11
REMARK    6  A    between atoms: C_11  and  C_12
REMARK    7  A    between atoms: C_12  and  C_13
REMARK                            x       y       z     vdW  Elec       q    Type
REMARK                         _______ _______ _______ _____ _____    ______ ____
ROOT
ATOM      1  C   UNL     1       1.562   9.746  18.507  0.00  0.00    +0.000 C 
ATOM      2  C   UNL     1       0.303  10.260  19.221  0.00  0.00    +0.000 C 
ATOM      3  C   UNL     1      -0.057   9.269  20.339  0.00  0.00    +0.000 C 
ATOM      4  C   UNL     1       0.566  11.685  19.736  0.00  0.00    +0.000 C 
ATOM      5  C   UNL     1      -0.701  12.418  20.132  0.00  0.00    +0.000 A 
ATOM      6  C   UNL     1      -0.652  13.518  21.009  0.00  0.00    +0.000 A 
ATOM      7  C   UNL     1      -1.855  14.098  21.395  0.00  0.00    +0.000 A 
ATOM      8  N   UNL     1      -3.051  13.663  20.934  0.00  0.00    +0.000 NA
ATOM      9  C   UNL     1      -3.116  12.633  20.055  0.00  0.00    +0.000 A 
ATOM     10  N   UNL     1      -4.381  12.112  19.769  0.00  0.00    +0.000 N 
ATOM     11  C   UNL     1      -5.435  12.511  20.735  0.00  0.00    +0.000 C 
ATOM     12  C   UNL     1      -6.650  11.591  20.541  0.00  0.00    +0.000 C 
ATOM     13  O   UNL     1      -7.154  11.664  19.196  0.00  0.00    +0.000 OA
ATOM     14  C   UNL     1      -6.123  11.328  18.249  0.00  0.00    +0.000 C 
ATOM     15  C   UNL     1      -4.905  12.264  18.392  0.00  0.00    +0.000 C 
ATOM     16  C   UNL     1      -1.943  11.994  19.610  0.00  0.00    +0.000 A 
ATOM     17  C   UNL     1      -1.990  10.778  18.710  0.00  0.00    +0.000 C 
ATOM     18  O   UNL     1      -0.722  10.322  18.228  0.00  0.00    +0.000 OA
ENDROOT
BRANCH   6  19
ATOM     19  C   UNL     1       0.604  13.995  21.514  0.00  0.00    +0.000 C 
ATOM     20  N   UNL     1       1.643  14.348  21.888  0.00  0.00    +0.000 NA
ENDBRANCH   6  19
BRANCH   7  21
ATOM     21  S   UNL     1      -1.912  15.449  22.577  0.00  0.00    +0.000 S 
BRANCH  21  22
ATOM     22  C   UNL     1      -2.191  14.567  24.156  0.00  0.00    +0.000 C 
BRANCH  22  23
ATOM     23  C   UNL     1      -3.668  14.465  24.523  0.00  0.00    +0.000 C 
BRANCH  23  24
ATOM     24  C   UNL     1      -4.113  13.069  24.447  0.00  0.00    +0.000 C 
ATOM     25  N   UNL     1      -4.461  11.960  24.400  0.00  0.00    +0.000 NA
ENDBRANCH  23  24
ENDBRANCH  22  23
ENDBRANCH  21  22
ENDBRANCH   7  21
TORSDOF 5
ENDMDL
MODEL 8
REMARK VINA RESULT:      -5.5      7.680     10.780
REMARK  Name = 
REMARK  7 active torsions:
REMARK  status: ('A' for Active; 'I' for Inactive)
REMARK    1  A    between atoms: C_1  and  C_2
REMARK    2  A    between atoms: C_2  and  C_3
REMARK    3  A    between atoms: C_6  and  C_7
REMARK    4  A    between atoms: C_9  and  S_10
REMARK    5  A    between atoms: S_10  and  C_11
REMARK    6  A    between atoms: C_11  and  C_12
REMARK    7  A    between atoms: C_12  and  C_13
REMARK                            x       y       z     vdW  Elec       q    Type
REMARK                         _______ _______ _______ _____ _____    ______ ____
ROOT
ATOM      1  C   UNL     1       1.935  12.613  18.975  0.00  0.00    +0.000 C 
ATOM      2  C   UNL     1       0.488  13.039  19.260  0.00  0.00    +0.000 C 
ATOM      3  C   UNL     1       0.309  14.488  18.781  0.00  0.00    +0.000 C 
ATOM      4  C   UNL     1      -0.469  12.052  18.572  0.00  0.00    +0.000 C 
ATOM      5  C   UNL     1      -1.897  12.159  19.072  0.00  0.00    +0.000 A 
ATOM      6  C   UNL     1      -2.970  11.683  18.297  0.00  0.00    +0.000 A 
ATOM      7  C   UNL     1      -4.259  11.881  18.776  0.00  0.00    +0.000 A 
ATOM      8  N   UNL     1      -4.508  12.481  19.963  0.00  0.00    +0.000 NA
ATOM      9  C   UNL     1      -3.486  12.908  20.745  0.00  0.00    +0.000 A 
ATOM     10  N   UNL     1      -3.812  13.685  21.861  0.00  0.00    +0.000 N 
ATOM     11  C   UNL     1      -5.188  14.239  21.833  0.00  0.00    +0.000 C 
ATOM     12  C   UNL     1      -5.287  15.355  22.884  0.00  0.00    +0.000 C 
ATOM     13  O   UNL     1      -4.974  14.866  24.200  0.00  0.00    +0.000 OA
ATOM     14  C   UNL     1      -3.660  14.279  24.223  0.00  0.00    +0.000 C 
ATOM     15  C   UNL     1      -3.543  13.126  23.205  0.00  0.00    +0.000 C 
ATOM     16  C   UNL     1      -2.150  12.740  20.335  0.00  0.00    +0.000 A 
ATOM     17  C   UNL     1      -0.994  13.296  21.138  0.00  0.00    +0.000 C 
ATOM     18  O   UNL     1       0.310  12.929  20.672  0.00  0.00    +0.000 OA
ENDROOT
BRANCH   6  19
ATOM     19  C   UNL     1      -2.732  11.047  17.032  0.00  0.00    +0.000 C 
ATOM     20  N   UNL     1      -2.591  10.520  16.009  0.00  0.00    +0.000 NA
ENDBRANCH   6  19
BRANCH   7  21
ATOM     21  S   UNL     1      -5.702  11.392  17.825  0.00  0.00    +0.000 S 
BRANCH  21  22
ATOM     22  C   UNL     1      -7.076  11.850  18.945  0.00  0.00    +0.000 C 
BRANCH  22  23
ATOM     23  C   UNL     1      -7.505  10.703  19.854  0.00  0.00    +0.000 C 
BRANCH  23  24
ATOM     24  C   UNL     1      -7.539  11.149  21.251  0.00  0.00    +0.000 C 
ATOM     25  N   UNL     1      -7.550  11.505  22.358  0.00  0.00    +0.000 NA
ENDBRANCH  23  24
ENDBRANCH  22  23
ENDBRANCH  21  22
ENDBRANCH   7  21
TORSDOF 5
ENDMDL
MODEL 9
REMARK VINA RESULT:      -5.5      7.283      9.704
REMARK  Name = 
REMARK  7 active torsions:
REMARK  status: ('A' for Active; 'I' for Inactive)
REMARK    1  A    between atoms: C_1  and  C_2
REMARK    2  A    between atoms: C_2  and  C_3
REMARK    3  A    between atoms: C_6  and  C_7
REMARK    4  A    between atoms: C_9  and  S_10
REMARK    5  A    between atoms: S_10  and  C_11
REMARK    6  A    between atoms: C_11  and  C_12
REMARK    7  A    between atoms: C_12  and  C_13
REMARK                            x       y       z     vdW  Elec       q    Type
REMARK                         _______ _______ _______ _____ _____    ______ ____
ROOT
ATOM      1  C   UNL     1       0.482   9.339  22.423  0.00  0.00    +0.000 C 
ATOM      2  C   UNL     1      -0.074  10.622  21.789  0.00  0.00    +0.000 C 
ATOM      3  C   UNL     1      -0.670  10.264  20.419  0.00  0.00    +0.000 C 
ATOM      4  C   UNL     1      -1.097  11.252  22.748  0.00  0.00    +0.000 C 
ATOM      5  C   UNL     1      -1.439  12.687  22.397  0.00  0.00    +0.000 A 
ATOM      6  C   UNL     1      -2.632  13.276  22.854  0.00  0.00    +0.000 A 
ATOM      7  C   UNL     1      -2.924  14.568  22.433  0.00  0.00    +0.000 A 
ATOM      8  N   UNL     1      -2.093  15.277  21.634  0.00  0.00    +0.000 NA
ATOM      9  C   UNL     1      -0.918  14.743  21.218  0.00  0.00    +0.000 A 
ATOM     10  N   UNL     1      -0.200  15.447  20.247  0.00  0.00    +0.000 N 
ATOM     11  C   UNL     1      -0.991  16.487  19.543  0.00  0.00    +0.000 C 
ATOM     12  C   UNL     1      -0.230  16.907  18.277  0.00  0.00    +0.000 C 
ATOM     13  O   UNL     1       1.081  17.407  18.594  0.00  0.00    +0.000 OA
ATOM     14  C   UNL     1       1.837  16.422  19.322  0.00  0.00    +0.000 C 
ATOM     15  C   UNL     1       1.116  16.011  20.623  0.00  0.00    +0.000 C 
ATOM     16  C   UNL     1      -0.545  13.441  21.604  0.00  0.00    +0.000 A 
ATOM     17  C   UNL     1       0.710  12.781  21.074  0.00  0.00    +0.000 C 
ATOM     18  O   UNL     1       1.032  11.516  21.661  0.00  0.00    +0.000 OA
ENDROOT
BRANCH   6  19
ATOM     19  C   UNL     1      -3.532  12.544  23.699  0.00  0.00    +0.000 C 
ATOM     20  N   UNL     1      -4.219  11.944  24.415  0.00  0.00    +0.000 NA
ENDBRANCH   6  19
BRANCH   7  21
ATOM     21  S   UNL     1      -4.461  15.381  22.886  0.00  0.00    +0.000 S 
BRANCH  21  22
ATOM     22  C   UNL     1      -5.610  14.780  21.595  0.00  0.00    +0.000 C 
BRANCH  22  23
ATOM     23  C   UNL     1      -6.753  13.946  22.163  0.00  0.00    +0.000 C 
BRANCH  23  24
ATOM     24  C   UNL     1      -6.689  12.577  21.642  0.00  0.00    +0.000 C 
ATOM     25  N   UNL     1      -6.627  11.487  21.239  0.00  0.00    +0.000 NA
ENDBRANCH  23  24
ENDBRANCH  22  23
ENDBRANCH  21  22
ENDBRANCH   7  21
TORSDOF 5
ENDMDL
