MODEL 1
REMARK VINA RESULT:      -8.6      0.000      0.000
REMARK  Name = 
REMARK  6 active torsions:
REMARK  status: ('A' for Active; 'I' for Inactive)
REMARK    1  A    between atoms: C_1  and  N_2
REMARK    2  A    between atoms: N_5  and  C_6
REMARK    3  A    between atoms: C_9  and  N_10
REMARK    4  A    between atoms: C_15  and  C_16
REMARK    5  A    between atoms: N_23  and  S_24
REMARK    6  A    between atoms: S_24  and  C_25
REMARK                            x       y       z     vdW  Elec       q    Type
REMARK                         _______ _______ _______ _____ _____    ______ ____
ROOT
ATOM      1  N   UNL     1       0.358  11.214  21.594  0.00  0.00    +0.000 N 
ATOM      2  C   UNL     1       0.331  10.679  20.313  0.00  0.00    +0.000 A 
ATOM      3  N   UNL     1      -0.555  11.124  19.408  0.00  0.00    +0.000 NA
ATOM      4  C   UNL     1      -0.589  10.557  18.194  0.00  0.00    +0.000 A 
ATOM      5  C   UNL     1       0.256   9.550  17.831  0.00  0.00    +0.000 A 
ATOM      6  C   UNL     1       1.147   9.163  18.806  0.00  0.00    +0.000 A 
ATOM      7  N   UNL     1       1.198   9.702  20.044  0.00  0.00    +0.000 NA
ATOM      8  H   UNL     1       1.006  10.698  22.173  0.00  0.00    +0.000 HD
ENDROOT
BRANCH   6   9
ATOM      9  C   UNL     1       2.147   8.142  18.556  0.00  0.00    +0.000 A 
ATOM     10  C   UNL     1       2.649   7.107  19.319  0.00  0.00    +0.000 A 
ATOM     11  C   UNL     1       3.673   6.507  18.552  0.00  0.00    +0.000 A 
ATOM     12  C   UNL     1       3.710   7.201  17.373  0.00  0.00    +0.000 A 
ATOM     13  O   UNL     1       2.793   8.193  17.347  0.00  0.00    +0.000 OA
ATOM     14  C   UNL     1       4.640   7.020  16.251  0.00  0.00    +0.000 C 
ATOM     15  C   UNL     1       5.590   5.836  16.518  0.00  0.00    +0.000 C 
ATOM     16  N   UNL     1       5.751   5.421  17.949  0.00  0.00    +0.000 NA
ATOM     17  C   UNL     1       4.591   5.399  18.869  0.00  0.00    +0.000 C 
BRANCH  16  18
ATOM     18  S   UNL     1       7.285   5.360  18.614  0.00  0.00    +0.000 S 
ATOM     19  C   UNL     1       7.880   6.982  18.195  0.00  0.00    +0.000 C 
ATOM     20  O   UNL     1       7.166   5.277  20.054  0.00  0.00    +0.000 OA
ATOM     21  O   UNL     1       8.062   4.395  17.872  0.00  0.00    +0.000 OA
ENDBRANCH  16  18
ENDBRANCH   6   9
BRANCH   1  25
ATOM     22  C   UNL     1      -2.562  13.663  23.494  0.00  0.00    +0.000 A 
ATOM     23  C   UNL     1      -2.685  12.267  23.437  0.00  0.00    +0.000 A 
ATOM     24  C   UNL     1      -1.706  11.458  22.835  0.00  0.00    +0.000 A 
ATOM     25  C   UNL     1      -0.580  12.024  22.246  0.00  0.00    +0.000 A 
ATOM     26  C   UNL     1      -0.447  13.412  22.323  0.00  0.00    +0.000 A 
ATOM     27  C   UNL     1      -1.422  14.212  22.916  0.00  0.00    +0.000 A 
BRANCH  22  32
ATOM     28  C   UNL     1      -5.686  18.084  24.621  0.00  0.00    +0.000 C 
ATOM     29  N   UNL     1      -5.150  16.740  24.786  0.00  0.00    +0.000 NA
ATOM     30  C   UNL     1      -3.687  16.772  24.998  0.00  0.00    +0.000 C 
ATOM     31  C   UNL     1      -3.089  15.363  25.218  0.00  0.00    +0.000 C 
ATOM     32  N   UNL     1      -3.484  14.462  24.130  0.00  0.00    +0.000 N 
ATOM     33  C   UNL     1      -4.916  14.462  23.787  0.00  0.00    +0.000 C 
ATOM     34  C   UNL     1      -5.430  15.906  23.598  0.00  0.00    +0.000 C 
ENDBRANCH  22  32
ENDBRANCH   1  25
TORSDOF 4
ENDMDL
MODEL 2
REMARK VINA RESULT:      -7.8      2.514      3.042
REMARK  Name = 
REMARK  6 active torsions:
REMARK  status: ('A' for Active; 'I' for Inactive)
REMARK    1  A    between atoms: C_1  and  N_2
REMARK    2  A    between atoms: N_5  and  C_6
REMARK    3  A    between atoms: C_9  and  N_10
REMARK    4  A    between atoms: C_15  and  C_16
REMARK    5  A    between atoms: N_23  and  S_24
REMARK    6  A    between atoms: S_24  and  C_25
REMARK                            x       y       z     vdW  Elec       q    Type
REMARK                         _______ _______ _______ _____ _____    ______ ____
ROOT
ATOM      1  N   UNL     1      -0.430  11.255  22.288  0.00  0.00    +0.000 N 
ATOM      2  C   UNL     1       0.133  10.968  21.052  0.00  0.00    +0.000 A 
ATOM      3  N   UNL     1       0.133  11.886  20.074  0.00  0.00    +0.000 NA
ATOM      4  C   UNL     1       0.642  11.564  18.877  0.00  0.00    +0.000 A 
ATOM      5  C   UNL     1       1.180  10.339  18.614  0.00  0.00    +0.000 A 
ATOM      6  C   UNL     1       1.161   9.459  19.672  0.00  0.00    +0.000 A 
ATOM      7  N   UNL     1       0.643   9.746  20.887  0.00  0.00    +0.000 NA
ATOM      8  H   UNL     1      -0.440  10.427  22.867  0.00  0.00    +0.000 HD
ENDROOT
BRANCH   6   9
ATOM      9  C   UNL     1       1.745   8.136  19.568  0.00  0.00    +0.000 A 
ATOM     10  C   UNL     1       2.493   7.509  18.591  0.00  0.00    +0.000 A 
ATOM     11  C   UNL     1       2.697   6.183  19.034  0.00  0.00    +0.000 A 
ATOM     12  C   UNL     1       2.082   6.100  20.254  0.00  0.00    +0.000 A 
ATOM     13  O   UNL     1       1.502   7.269  20.603  0.00  0.00    +0.000 OA
ATOM     14  C   UNL     1       1.945   4.917  21.113  0.00  0.00    +0.000 C 
ATOM     15  C   UNL     1       2.681   3.710  20.499  0.00  0.00    +0.000 C 
ATOM     16  N   UNL     1       2.956   3.776  19.027  0.00  0.00    +0.000 NA
ATOM     17  C   UNL     1       3.373   5.045  18.387  0.00  0.00    +0.000 C 
BRANCH  16  18
ATOM     18  S   UNL     1       2.418   2.536  18.040  0.00  0.00    +0.000 S 
ATOM     19  C   UNL     1       3.747   1.372  18.236  0.00  0.00    +0.000 C 
ATOM     20  O   UNL     1       1.222   1.964  18.620  0.00  0.00    +0.000 OA
ATOM     21  O   UNL     1       2.435   3.006  16.674  0.00  0.00    +0.000 OA
ENDBRANCH  16  18
ENDBRANCH   6   9
BRANCH   1  25
ATOM     22  C   UNL     1      -3.022  14.467  23.340  0.00  0.00    +0.000 A 
ATOM     23  C   UNL     1      -3.472  13.140  23.268  0.00  0.00    +0.000 A 
ATOM     24  C   UNL     1      -2.609  12.078  22.948  0.00  0.00    +0.000 A 
ATOM     25  C   UNL     1      -1.267  12.313  22.666  0.00  0.00    +0.000 A 
ATOM     26  C   UNL     1      -0.815  13.630  22.761  0.00  0.00    +0.000 A 
ATOM     27  C   UNL     1      -1.674  14.682  23.072  0.00  0.00    +0.000 A 
BRANCH  22  32
ATOM     28  C   UNL     1      -6.631  18.631  22.878  0.00  0.00    +0.000 C 
ATOM     29  N   UNL     1      -5.726  17.703  23.545  0.00  0.00    +0.000 NA
ATOM     30  C   UNL     1      -4.350  17.832  23.019  0.00  0.00    +0.000 C 
ATOM     31  C   UNL     1      -3.352  16.891  23.734  0.00  0.00    +0.000 C 
ATOM     32  N   UNL     1      -3.842  15.508  23.706  0.00  0.00    +0.000 N 
ATOM     33  C   UNL     1      -5.245  15.318  24.111  0.00  0.00    +0.000 C 
ATOM     34  C   UNL     1      -6.166  16.305  23.360  0.00  0.00    +0.000 C 
ENDBRANCH  22  32
ENDBRANCH   1  25
TORSDOF 4
ENDMDL
MODEL 3
REMARK VINA RESULT:      -7.7      2.503      3.237
REMARK  Name = 
REMARK  6 active torsions:
REMARK  status: ('A' for Active; 'I' for Inactive)
REMARK    1  A    between atoms: C_1  and  N_2
REMARK    2  A    between atoms: N_5  and  C_6
REMARK    3  A    between atoms: C_9  and  N_10
REMARK    4  A    between atoms: C_15  and  C_16
REMARK    5  A    between atoms: N_23  and  S_24
REMARK    6  A    between atoms: S_24  and  C_25
REMARK                            x       y       z     vdW  Elec       q    Type
REMARK                         _______ _______ _______ _____ _____    ______ ____
ROOT
ATOM      1  N   UNL     1      -0.484  11.148  21.697  0.00  0.00    +0.000 N 
ATOM      2  C   UNL     1       0.249  10.867  20.552  0.00  0.00    +0.000 A 
ATOM      3  N   UNL     1       0.406  11.798  19.599  0.00  0.00    +0.000 NA
ATOM      4  C   UNL     1       1.080  11.485  18.484  0.00  0.00    +0.000 A 
ATOM      5  C   UNL     1       1.632  10.254  18.283  0.00  0.00    +0.000 A 
ATOM      6  C   UNL     1       1.445   9.360  19.313  0.00  0.00    +0.000 A 
ATOM      7  N   UNL     1       0.759   9.639  20.443  0.00  0.00    +0.000 NA
ATOM      8  H   UNL     1      -0.591  10.312  22.255  0.00  0.00    +0.000 HD
ENDROOT
BRANCH   6   9
ATOM      9  C   UNL     1       2.018   8.029  19.274  0.00  0.00    +0.000 A 
ATOM     10  C   UNL     1       2.777   7.355  18.337  0.00  0.00    +0.000 A 
ATOM     11  C   UNL     1       2.960   6.047  18.838  0.00  0.00    +0.000 A 
ATOM     12  C   UNL     1       2.321   6.019  20.048  0.00  0.00    +0.000 A 
ATOM     13  O   UNL     1       1.747   7.207  20.339  0.00  0.00    +0.000 OA
ATOM     14  C   UNL     1       2.156   4.874  20.952  0.00  0.00    +0.000 C 
ATOM     15  C   UNL     1       2.892   3.636  20.401  0.00  0.00    +0.000 C 
ATOM     16  N   UNL     1       3.194   3.639  18.933  0.00  0.00    +0.000 NA
ATOM     17  C   UNL     1       3.636   4.877  18.251  0.00  0.00    +0.000 C 
BRANCH  16  18
ATOM     18  S   UNL     1       2.663   2.365  17.988  0.00  0.00    +0.000 S 
ATOM     19  C   UNL     1       1.087   2.040  18.743  0.00  0.00    +0.000 C 
ATOM     20  O   UNL     1       2.433   2.848  16.643  0.00  0.00    +0.000 OA
ATOM     21  O   UNL     1       3.519   1.229  18.238  0.00  0.00    +0.000 OA
ENDBRANCH  16  18
ENDBRANCH   6   9
BRANCH   1  25
ATOM     22  C   UNL     1      -3.165  14.333  22.591  0.00  0.00    +0.000 A 
ATOM     23  C   UNL     1      -2.066  14.034  23.410  0.00  0.00    +0.000 A 
ATOM     24  C   UNL     1      -1.166  13.001  23.098  0.00  0.00    +0.000 A 
ATOM     25  C   UNL     1      -1.351  12.214  21.965  0.00  0.00    +0.000 A 
ATOM     26  C   UNL     1      -2.432  12.528  21.139  0.00  0.00    +0.000 A 
ATOM     27  C   UNL     1      -3.326  13.549  21.454  0.00  0.00    +0.000 A 
BRANCH  22  32
ATOM     28  C   UNL     1      -7.825  17.308  22.721  0.00  0.00    +0.000 C 
ATOM     29  N   UNL     1      -6.421  16.997  22.958  0.00  0.00    +0.000 NA
ATOM     30  C   UNL     1      -5.704  16.767  21.685  0.00  0.00    +0.000 C 
ATOM     31  C   UNL     1      -4.200  16.475  21.896  0.00  0.00    +0.000 C 
ATOM     32  N   UNL     1      -4.021  15.378  22.854  0.00  0.00    +0.000 N 
ATOM     33  C   UNL     1      -4.795  15.485  24.103  0.00  0.00    +0.000 C 
ATOM     34  C   UNL     1      -6.278  15.789  23.798  0.00  0.00    +0.000 C 
ENDBRANCH  22  32
ENDBRANCH   1  25
TORSDOF 4
ENDMDL
MODEL 4
REMARK VINA RESULT:      -7.7      2.012      2.764
REMARK  Name = 
REMARK  6 active torsions:
REMARK  status: ('A' for Active; 'I' for Inactive)
REMARK    1  A    between atoms: C_1  and  N_2
REMARK    2  A    between atoms: N_5  and  C_6
REMARK    3  A    between atoms: C_9  and  N_10
REMARK    4  A    between atoms: C_15  and  C_16
REMARK    5  A    between atoms: N_23  and  S_24
REMARK    6  A    between atoms: S_24  and  C_25
REMARK                            x       y       z     vdW  Elec       q    Type
REMARK                         _______ _______ _______ _____ _____    ______ ____
ROOT
ATOM      1  N   UNL     1      -0.368  11.138  22.392  0.00  0.00    +0.000 N 
ATOM      2  C   UNL     1      -0.016  10.755  21.105  0.00  0.00    +0.000 A 
ATOM      3  N   UNL     1      -0.393  11.492  20.049  0.00  0.00    +0.000 NA
ATOM      4  C   UNL     1      -0.079  11.073  18.815  0.00  0.00    +0.000 A 
ATOM      5  C   UNL     1       0.627   9.929  18.587  0.00  0.00    +0.000 A 
ATOM      6  C   UNL     1       0.993   9.239  19.720  0.00  0.00    +0.000 A 
ATOM      7  N   UNL     1       0.681   9.626  20.977  0.00  0.00    +0.000 NA
ATOM      8  H   UNL     1      -0.098  10.424  23.054  0.00  0.00    +0.000 HD
ENDROOT
BRANCH   6   9
ATOM      9  C   UNL     1       1.795   8.033  19.647  0.00  0.00    +0.000 A 
ATOM     10  C   UNL     1       2.816   7.628  18.809  0.00  0.00    +0.000 A 
ATOM     11  C   UNL     1       3.141   6.307  19.187  0.00  0.00    +0.000 A 
ATOM     12  C   UNL     1       2.316   6.005  20.236  0.00  0.00    +0.000 A 
ATOM     13  O   UNL     1       1.495   7.035  20.538  0.00  0.00    +0.000 OA
ATOM     14  C   UNL     1       2.205   4.731  20.956  0.00  0.00    +0.000 C 
ATOM     15  C   UNL     1       3.236   3.715  20.427  0.00  0.00    +0.000 C 
ATOM     16  N   UNL     1       3.786   3.976  19.057  0.00  0.00    +0.000 NA
ATOM     17  C   UNL     1       4.111   5.353  18.618  0.00  0.00    +0.000 C 
BRANCH  16  18
ATOM     18  S   UNL     1       3.669   2.784  17.889  0.00  0.00    +0.000 S 
ATOM     19  C   UNL     1       2.056   3.138  17.232  0.00  0.00    +0.000 C 
ATOM     20  O   UNL     1       4.649   3.046  16.857  0.00  0.00    +0.000 OA
ATOM     21  O   UNL     1       3.608   1.504  18.555  0.00  0.00    +0.000 OA
ENDBRANCH  16  18
ENDBRANCH   6   9
BRANCH   1  25
ATOM     22  C   UNL     1      -3.161  14.039  23.779  0.00  0.00    +0.000 A 
ATOM     23  C   UNL     1      -1.903  14.400  23.272  0.00  0.00    +0.000 A 
ATOM     24  C   UNL     1      -0.994  13.443  22.789  0.00  0.00    +0.000 A 
ATOM     25  C   UNL     1      -1.305  12.087  22.819  0.00  0.00    +0.000 A 
ATOM     26  C   UNL     1      -2.566  11.731  23.301  0.00  0.00    +0.000 A 
ATOM     27  C   UNL     1      -3.463  12.681  23.785  0.00  0.00    +0.000 A 
BRANCH  22  32
ATOM     28  C   UNL     1      -6.242  18.631  23.832  0.00  0.00    +0.000 C 
ATOM     29  N   UNL     1      -5.728  17.351  24.302  0.00  0.00    +0.000 NA
ATOM     30  C   UNL     1      -4.268  17.415  24.532  0.00  0.00    +0.000 C 
ATOM     31  C   UNL     1      -3.695  16.084  25.072  0.00  0.00    +0.000 C 
ATOM     32  N   UNL     1      -4.083  14.968  24.202  0.00  0.00    +0.000 N 
ATOM     33  C   UNL     1      -5.508  14.906  23.838  0.00  0.00    +0.000 C 
ATOM     34  C   UNL     1      -5.998  16.277  23.323  0.00  0.00    +0.000 C 
ENDBRANCH  22  32
ENDBRANCH   1  25
TORSDOF 4
ENDMDL
MODEL 5
REMARK VINA RESULT:      -7.6      5.090     12.419
REMARK  Name = 
REMARK  6 active torsions:
REMARK  status: ('A' for Active; 'I' for Inactive)
REMARK    1  A    between atoms: C_1  and  N_2
REMARK    2  A    between atoms: N_5  and  C_6
REMARK    3  A    between atoms: C_9  and  N_10
REMARK    4  A    between atoms: C_15  and  C_16
REMARK    5  A    between atoms: N_23  and  S_24
REMARK    6  A    between atoms: S_24  and  C_25
REMARK                            x       y       z     vdW  Elec       q    Type
REMARK                         _______ _______ _______ _____ _____    ______ ____
ROOT
ATOM      1  N   UNL     1       0.285   9.271  19.974  0.00  0.00    +0.000 N 
ATOM      2  C   UNL     1       0.332  10.606  20.351  0.00  0.00    +0.000 A 
ATOM      3  N   UNL     1       1.364  11.381  19.983  0.00  0.00    +0.000 NA
ATOM      4  C   UNL     1       1.406  12.654  20.400  0.00  0.00    +0.000 A 
ATOM      5  C   UNL     1       0.427  13.205  21.175  0.00  0.00    +0.000 A 
ATOM      6  C   UNL     1      -0.606  12.352  21.495  0.00  0.00    +0.000 A 
ATOM      7  N   UNL     1      -0.671  11.061  21.103  0.00  0.00    +0.000 NA
ATOM      8  H   UNL     1      -0.497   8.811  20.419  0.00  0.00    +0.000 HD
ENDROOT
BRANCH   6   9
ATOM      9  C   UNL     1      -1.748  12.803  22.265  0.00  0.00    +0.000 A 
ATOM     10  C   UNL     1      -2.751  12.138  22.943  0.00  0.00    +0.000 A 
ATOM     11  C   UNL     1      -3.630  13.131  23.430  0.00  0.00    +0.000 A 
ATOM     12  C   UNL     1      -3.095  14.327  23.036  0.00  0.00    +0.000 A 
ATOM     13  O   UNL     1      -1.953  14.158  22.334  0.00  0.00    +0.000 OA
ATOM     14  C   UNL     1      -3.654  15.671  23.232  0.00  0.00    +0.000 C 
ATOM     15  C   UNL     1      -4.958  15.603  24.051  0.00  0.00    +0.000 C 
ATOM     16  N   UNL     1      -5.661  14.280  24.077  0.00  0.00    +0.000 NA
ATOM     17  C   UNL     1      -4.897  13.015  24.174  0.00  0.00    +0.000 C 
BRANCH  16  18
ATOM     18  S   UNL     1      -7.263  14.198  23.603  0.00  0.00    +0.000 S 
ATOM     19  C   UNL     1      -7.073  13.653  21.922  0.00  0.00    +0.000 C 
ATOM     20  O   UNL     1      -7.916  13.145  24.352  0.00  0.00    +0.000 OA
ATOM     21  O   UNL     1      -7.797  15.540  23.579  0.00  0.00    +0.000 OA
ENDBRANCH  16  18
ENDBRANCH   6   9
BRANCH   1  25
ATOM     22  C   UNL     1       3.418   6.841  18.421  0.00  0.00    +0.000 A 
ATOM     23  C   UNL     1       2.898   6.650  19.709  0.00  0.00    +0.000 A 
ATOM     24  C   UNL     1       1.845   7.435  20.210  0.00  0.00    +0.000 A 
ATOM     25  C   UNL     1       1.292   8.455  19.443  0.00  0.00    +0.000 A 
ATOM     26  C   UNL     1       1.794   8.629  18.152  0.00  0.00    +0.000 A 
ATOM     27  C   UNL     1       2.842   7.854  17.660  0.00  0.00    +0.000 A 
BRANCH  22  32
ATOM     28  C   UNL     1       6.308   3.925  14.716  0.00  0.00    +0.000 C 
ATOM     29  N   UNL     1       5.975   4.494  16.015  0.00  0.00    +0.000 NA
ATOM     30  C   UNL     1       4.648   4.031  16.475  0.00  0.00    +0.000 C 
ATOM     31  C   UNL     1       4.279   4.583  17.872  0.00  0.00    +0.000 C 
ATOM     32  N   UNL     1       4.410   6.044  17.897  0.00  0.00    +0.000 N 
ATOM     33  C   UNL     1       5.665   6.584  17.348  0.00  0.00    +0.000 C 
ATOM     34  C   UNL     1       5.960   5.970  15.962  0.00  0.00    +0.000 C 
ENDBRANCH  22  32
ENDBRANCH   1  25
TORSDOF 4
ENDMDL
MODEL 6
REMARK VINA RESULT:      -7.6      2.475      3.194
REMARK  Name = 
REMARK  6 active torsions:
REMARK  status: ('A' for Active; 'I' for Inactive)
REMARK    1  A    between atoms: C_1  and  N_2
REMARK    2  A    between atoms: N_5  and  C_6
REMARK    3  A    between atoms: C_9  and  N_10
REMARK    4  A    between atoms: C_15  and  C_16
REMARK    5  A    between atoms: N_23  and  S_24
REMARK    6  A    between atoms: S_24  and  C_25
REMARK                            x       y       z     vdW  Elec       q    Type
REMARK                         _______ _______ _______ _____ _____    ______ ____
ROOT
ATOM      1  N   UNL     1      -0.855  11.132  21.495  0.00  0.00    +0.000 N 
ATOM      2  C   UNL     1       0.021  10.942  20.435  0.00  0.00    +0.000 A 
ATOM      3  N   UNL     1       0.294  11.946  19.589  0.00  0.00    +0.000 NA
ATOM      4  C   UNL     1       1.107  11.720  18.548  0.00  0.00    +0.000 A 
ATOM      5  C   UNL     1       1.687  10.507  18.320  0.00  0.00    +0.000 A 
ATOM      6  C   UNL     1       1.374   9.534  19.242  0.00  0.00    +0.000 A 
ATOM      7  N   UNL     1       0.547   9.724  20.293  0.00  0.00    +0.000 NA
ATOM      8  H   UNL     1      -1.028  10.255  21.965  0.00  0.00    +0.000 HD
ENDROOT
BRANCH   6   9
ATOM      9  C   UNL     1       1.954   8.207  19.169  0.00  0.00    +0.000 A 
ATOM     10  C   UNL     1       2.634   7.527  18.178  0.00  0.00    +0.000 A 
ATOM     11  C   UNL     1       2.874   6.228  18.677  0.00  0.00    +0.000 A 
ATOM     12  C   UNL     1       2.345   6.210  19.939  0.00  0.00    +0.000 A 
ATOM     13  O   UNL     1       1.787   7.398  20.264  0.00  0.00    +0.000 OA
ATOM     14  C   UNL     1       2.272   5.076  20.868  0.00  0.00    +0.000 C 
ATOM     15  C   UNL     1       2.968   3.838  20.270  0.00  0.00    +0.000 C 
ATOM     16  N   UNL     1       3.140   3.823  18.781  0.00  0.00    +0.000 NA
ATOM     17  C   UNL     1       3.507   5.056  18.047  0.00  0.00    +0.000 C 
BRANCH  16  18
ATOM     18  S   UNL     1       2.540   2.532  17.903  0.00  0.00    +0.000 S 
ATOM     19  C   UNL     1       0.976   2.291  18.714  0.00  0.00    +0.000 C 
ATOM     20  O   UNL     1       2.287   2.969  16.546  0.00  0.00    +0.000 OA
ATOM     21  O   UNL     1       3.365   1.378  18.175  0.00  0.00    +0.000 OA
ENDBRANCH  16  18
ENDBRANCH   6   9
BRANCH   1  25
ATOM     22  C   UNL     1      -3.540  14.371  22.153  0.00  0.00    +0.000 A 
ATOM     23  C   UNL     1      -3.604  13.575  21.000  0.00  0.00    +0.000 A 
ATOM     24  C   UNL     1      -2.735  12.489  20.798  0.00  0.00    +0.000 A 
ATOM     25  C   UNL     1      -1.755  12.178  21.735  0.00  0.00    +0.000 A 
ATOM     26  C   UNL     1      -1.708  12.956  22.893  0.00  0.00    +0.000 A 
ATOM     27  C   UNL     1      -2.566  14.036  23.088  0.00  0.00    +0.000 A 
BRANCH  22  32
ATOM     28  C   UNL     1      -5.964  18.630  24.715  0.00  0.00    +0.000 C 
ATOM     29  N   UNL     1      -5.745  17.636  23.673  0.00  0.00    +0.000 NA
ATOM     30  C   UNL     1      -5.856  16.264  24.213  0.00  0.00    +0.000 C 
ATOM     31  C   UNL     1      -5.671  15.181  23.125  0.00  0.00    +0.000 C 
ATOM     32  N   UNL     1      -4.420  15.402  22.390  0.00  0.00    +0.000 N 
ATOM     33  C   UNL     1      -4.189  16.777  21.917  0.00  0.00    +0.000 C 
ATOM     34  C   UNL     1      -4.408  17.789  23.063  0.00  0.00    +0.000 C 
ENDBRANCH  22  32
ENDBRANCH   1  25
TORSDOF 4
ENDMDL
MODEL 7
REMARK VINA RESULT:      -7.6      5.301     12.228
REMARK  Name = 
REMARK  6 active torsions:
REMARK  status: ('A' for Active; 'I' for Inactive)
REMARK    1  A    between atoms: C_1  and  N_2
REMARK    2  A    between atoms: N_5  and  C_6
REMARK    3  A    between atoms: C_9  and  N_10
REMARK    4  A    between atoms: C_15  and  C_16
REMARK    5  A    between atoms: N_23  and  S_24
REMARK    6  A    between atoms: S_24  and  C_25
REMARK                            x       y       z     vdW  Elec       q    Type
REMARK                         _______ _______ _______ _____ _____    ______ ____
ROOT
ATOM      1  N   UNL     1       0.331  10.055  20.198  0.00  0.00    +0.000 N 
ATOM      2  C   UNL     1      -0.843  10.593  19.689  0.00  0.00    +0.000 A 
ATOM      3  N   UNL     1      -1.429  10.050  18.611  0.00  0.00    +0.000 NA
ATOM      4  C   UNL     1      -2.536  10.619  18.114  0.00  0.00    +0.000 A 
ATOM      5  C   UNL     1      -3.106  11.725  18.672  0.00  0.00    +0.000 A 
ATOM      6  C   UNL     1      -2.457  12.211  19.785  0.00  0.00    +0.000 A 
ATOM      7  N   UNL     1      -1.332  11.671  20.303  0.00  0.00    +0.000 NA
ATOM      8  H   UNL     1       0.692  10.641  20.938  0.00  0.00    +0.000 HD
ENDROOT
BRANCH   6   9
ATOM      9  C   UNL     1      -2.970  13.349  20.524  0.00  0.00    +0.000 A 
ATOM     10  C   UNL     1      -2.435  14.577  20.857  0.00  0.00    +0.000 A 
ATOM     11  C   UNL     1      -3.395  15.225  21.666  0.00  0.00    +0.000 A 
ATOM     12  C   UNL     1      -4.452  14.361  21.754  0.00  0.00    +0.000 A 
ATOM     13  O   UNL     1      -4.223  13.219  21.067  0.00  0.00    +0.000 OA
ATOM     14  C   UNL     1      -5.686  14.525  22.531  0.00  0.00    +0.000 C 
ATOM     15  C   UNL     1      -5.710  15.899  23.229  0.00  0.00    +0.000 C 
ATOM     16  N   UNL     1      -4.386  16.577  23.414  0.00  0.00    +0.000 NA
ATOM     17  C   UNL     1      -3.354  16.529  22.352  0.00  0.00    +0.000 C 
BRANCH  16  18
ATOM     18  S   UNL     1      -3.916  17.047  24.949  0.00  0.00    +0.000 S 
ATOM     19  C   UNL     1      -2.826  18.394  24.552  0.00  0.00    +0.000 C 
ATOM     20  O   UNL     1      -5.067  17.583  25.644  0.00  0.00    +0.000 OA
ATOM     21  O   UNL     1      -3.122  15.987  25.524  0.00  0.00    +0.000 OA
ENDBRANCH  16  18
ENDBRANCH   6   9
BRANCH   1  25
ATOM     22  C   UNL     1       2.936   7.211  18.391  0.00  0.00    +0.000 A 
ATOM     23  C   UNL     1       2.577   8.404  17.748  0.00  0.00    +0.000 A 
ATOM     24  C   UNL     1       1.740   9.355  18.358  0.00  0.00    +0.000 A 
ATOM     25  C   UNL     1       1.214   9.130  19.626  0.00  0.00    +0.000 A 
ATOM     26  C   UNL     1       1.591   7.952  20.274  0.00  0.00    +0.000 A 
ATOM     27  C   UNL     1       2.415   7.009  19.666  0.00  0.00    +0.000 A 
BRANCH  22  32
ATOM     28  C   UNL     1       7.610   4.424  17.407  0.00  0.00    +0.000 C 
ATOM     29  N   UNL     1       6.209   4.797  17.256  0.00  0.00    +0.000 NA
ATOM     30  C   UNL     1       6.075   6.215  16.860  0.00  0.00    +0.000 C 
ATOM     31  C   UNL     1       4.602   6.635  16.649  0.00  0.00    +0.000 C 
ATOM     32  N   UNL     1       3.799   6.298  17.830  0.00  0.00    +0.000 N 
ATOM     33  C   UNL     1       3.968   4.930  18.350  0.00  0.00    +0.000 C 
ATOM     34  C   UNL     1       5.465   4.593  18.516  0.00  0.00    +0.000 C 
ENDBRANCH  22  32
ENDBRANCH   1  25
TORSDOF 4
ENDMDL
MODEL 8
REMARK VINA RESULT:      -7.5      5.111     12.196
REMARK  Name = 
REMARK  6 active torsions:
REMARK  status: ('A' for Active; 'I' for Inactive)
REMARK    1  A    between atoms: C_1  and  N_2
REMARK    2  A    between atoms: N_5  and  C_6
REMARK    3  A    between atoms: C_9  and  N_10
REMARK    4  A    between atoms: C_15  and  C_16
REMARK    5  A    between atoms: N_23  and  S_24
REMARK    6  A    between atoms: S_24  and  C_25
REMARK                            x       y       z     vdW  Elec       q    Type
REMARK                         _______ _______ _______ _____ _____    ______ ____
ROOT
ATOM      1  N   UNL     1       0.482   9.558  20.059  0.00  0.00    +0.000 N 
ATOM      2  C   UNL     1      -0.543  10.241  19.419  0.00  0.00    +0.000 A 
ATOM      3  N   UNL     1      -0.904   9.912  18.170  0.00  0.00    +0.000 NA
ATOM      4  C   UNL     1      -1.866  10.619  17.560  0.00  0.00    +0.000 A 
ATOM      5  C   UNL     1      -2.510  11.657  18.168  0.00  0.00    +0.000 A 
ATOM      6  C   UNL     1      -2.097  11.921  19.454  0.00  0.00    +0.000 A 
ATOM      7  N   UNL     1      -1.121  11.237  20.092  0.00  0.00    +0.000 NA
ATOM      8  H   UNL     1       0.695   9.998  20.943  0.00  0.00    +0.000 HD
ENDROOT
BRANCH   6   9
ATOM      9  C   UNL     1      -2.723  12.957  20.253  0.00  0.00    +0.000 A 
ATOM     10  C   UNL     1      -2.385  14.266  20.533  0.00  0.00    +0.000 A 
ATOM     11  C   UNL     1      -3.351  14.741  21.447  0.00  0.00    +0.000 A 
ATOM     12  C   UNL     1      -4.218  13.701  21.646  0.00  0.00    +0.000 A 
ATOM     13  O   UNL     1      -3.864  12.611  20.931  0.00  0.00    +0.000 OA
ATOM     14  C   UNL     1      -5.368  13.651  22.557  0.00  0.00    +0.000 C 
ATOM     15  C   UNL     1      -5.563  15.008  23.262  0.00  0.00    +0.000 C 
ATOM     16  N   UNL     1      -4.371  15.915  23.303  0.00  0.00    +0.000 NA
ATOM     17  C   UNL     1      -3.471  16.040  22.134  0.00  0.00    +0.000 C 
BRANCH  16  18
ATOM     18  S   UNL     1      -3.828  16.484  24.780  0.00  0.00    +0.000 S 
ATOM     19  C   UNL     1      -2.553  17.600  24.244  0.00  0.00    +0.000 C 
ATOM     20  O   UNL     1      -4.883  17.259  25.397  0.00  0.00    +0.000 OA
ATOM     21  O   UNL     1      -3.197  15.390  25.481  0.00  0.00    +0.000 OA
ENDBRANCH  16  18
ENDBRANCH   6   9
BRANCH   1  25
ATOM     22  C   UNL     1       3.320   6.862  18.383  0.00  0.00    +0.000 A 
ATOM     23  C   UNL     1       2.945   8.045  17.731  0.00  0.00    +0.000 A 
ATOM     24  C   UNL     1       2.029   8.948  18.299  0.00  0.00    +0.000 A 
ATOM     25  C   UNL     1       1.440   8.683  19.531  0.00  0.00    +0.000 A 
ATOM     26  C   UNL     1       1.833   7.516  20.189  0.00  0.00    +0.000 A 
ATOM     27  C   UNL     1       2.735   6.620  19.622  0.00  0.00    +0.000 A 
BRANCH  22  32
ATOM     28  C   UNL     1       6.070   3.810  14.681  0.00  0.00    +0.000 C 
ATOM     29  N   UNL     1       5.746   4.370  15.986  0.00  0.00    +0.000 NA
ATOM     30  C   UNL     1       4.370   4.010  16.393  0.00  0.00    +0.000 C 
ATOM     31  C   UNL     1       4.005   4.554  17.794  0.00  0.00    +0.000 C 
ATOM     32  N   UNL     1       4.258   5.997  17.865  0.00  0.00    +0.000 N 
ATOM     33  C   UNL     1       5.571   6.443  17.369  0.00  0.00    +0.000 C 
ATOM     34  C   UNL     1       5.857   5.844  15.975  0.00  0.00    +0.000 C 
ENDBRANCH  22  32
ENDBRANCH   1  25
TORSDOF 4
ENDMDL
MODEL 9
REMARK VINA RESULT:      -7.3      5.019     12.397
REMARK  Name = 
REMARK  6 active torsions:
REMARK  status: ('A' for Active; 'I' for Inactive)
REMARK    1  A    between atoms: C_1  and  N_2
REMARK    2  A    between atoms: N_5  and  C_6
REMARK    3  A    between atoms: C_9  and  N_10
REMARK    4  A    between atoms: C_15  and  C_16
REMARK    5  A    between atoms: N_23  and  S_24
REMARK    6  A    between atoms: S_24  and  C_25
REMARK                            x       y       z     vdW  Elec       q    Type
REMARK                         _______ _______ _______ _____ _____    ______ ____
ROOT
ATOM      1  N   UNL     1       0.841   8.908  20.239  0.00  0.00    +0.000 N 
ATOM      2  C   UNL     1       0.663  10.278  20.109  0.00  0.00    +0.000 A 
ATOM      3  N   UNL     1       1.222  10.944  19.087  0.00  0.00    +0.000 NA
ATOM      4  C   UNL     1       1.072  12.273  19.013  0.00  0.00    +0.000 A 
ATOM      5  C   UNL     1       0.355  12.983  19.931  0.00  0.00    +0.000 A 
ATOM      6  C   UNL     1      -0.203  12.228  20.938  0.00  0.00    +0.000 A 
ATOM      7  N   UNL     1      -0.060  10.889  21.050  0.00  0.00    +0.000 NA
ATOM      8  H   UNL     1       0.446   8.587  21.112  0.00  0.00    +0.000 HD
ENDROOT
BRANCH   6   9
ATOM      9  C   UNL     1      -1.040  12.828  21.959  0.00  0.00    +0.000 A 
ATOM     10  C   UNL     1      -2.375  12.691  22.285  0.00  0.00    +0.000 A 
ATOM     11  C   UNL     1      -2.626  13.608  23.330  0.00  0.00    +0.000 A 
ATOM     12  C   UNL     1      -1.430  14.222  23.582  0.00  0.00    +0.000 A 
ATOM     13  O   UNL     1      -0.451  13.764  22.770  0.00  0.00    +0.000 OA
ATOM     14  C   UNL     1      -1.158  15.304  24.535  0.00  0.00    +0.000 C 
ATOM     15  C   UNL     1      -2.427  15.655  25.337  0.00  0.00    +0.000 C 
ATOM     16  N   UNL     1      -3.734  15.245  24.729  0.00  0.00    +0.000 NA
ATOM     17  C   UNL     1      -3.875  13.942  24.039  0.00  0.00    +0.000 C 
BRANCH  16  18
ATOM     18  S   UNL     1      -4.917  16.401  24.479  0.00  0.00    +0.000 S 
ATOM     19  C   UNL     1      -4.256  17.234  23.055  0.00  0.00    +0.000 C 
ATOM     20  O   UNL     1      -6.142  15.736  24.091  0.00  0.00    +0.000 OA
ATOM     21  O   UNL     1      -4.887  17.325  25.589  0.00  0.00    +0.000 OA
ENDBRANCH  16  18
ENDBRANCH   6   9
BRANCH   1  25
ATOM     22  C   UNL     1       3.677   6.354  18.350  0.00  0.00    +0.000 A 
ATOM     23  C   UNL     1       3.089   6.030  19.581  0.00  0.00    +0.000 A 
ATOM     24  C   UNL     1       2.132   6.861  20.190  0.00  0.00    +0.000 A 
ATOM     25  C   UNL     1       1.749   8.058  19.595  0.00  0.00    +0.000 A 
ATOM     26  C   UNL     1       2.317   8.368  18.357  0.00  0.00    +0.000 A 
ATOM     27  C   UNL     1       3.269   7.546  17.759  0.00  0.00    +0.000 A 
BRANCH  22  32
ATOM     28  C   UNL     1       6.730   4.152  14.299  0.00  0.00    +0.000 C 
ATOM     29  N   UNL     1       6.199   4.314  15.646  0.00  0.00    +0.000 NA
ATOM     30  C   UNL     1       4.730   4.148  15.663  0.00  0.00    +0.000 C 
ATOM     31  C   UNL     1       4.136   4.273  17.085  0.00  0.00    +0.000 C 
ATOM     32  N   UNL     1       4.572   5.524  17.715  0.00  0.00    +0.000 N 
ATOM     33  C   UNL     1       6.014   5.811  17.638  0.00  0.00    +0.000 C 
ATOM     34  C   UNL     1       6.523   5.650  16.188  0.00  0.00    +0.000 C 
ENDBRANCH  22  32
ENDBRANCH   1  25
TORSDOF 4
ENDMDL
