MODEL 1
REMARK VINA RESULT:      -7.0      0.000      0.000
REMARK  Name = 
REMARK  4 active torsions:
REMARK  status: ('A' for Active; 'I' for Inactive)
REMARK    1  A    between atoms: C_2  and  C_3
REMARK    2  A    between atoms: C_5  and  O_6
REMARK    3  A    between atoms: N_13  and  C_14
REMARK    4  A    between atoms: C_14  and  C_15
REMARK                            x       y       z     vdW  Elec       q    Type
REMARK                         _______ _______ _______ _____ _____    ______ ____
ROOT
ATOM      1  O   UNL     1       4.313   2.792  19.668  0.00  0.00    +0.000 OA
ATOM      2  C   UNL     1       4.457   3.934  19.233  0.00  0.00    +0.000 C 
ATOM      3  N   UNL     1       3.625   4.991  19.611  0.00  0.00    +0.000 N 
ATOM      4  C   UNL     1       3.684   6.363  19.088  0.00  0.00    +0.000 C 
ATOM      5  C   UNL     1       2.282   6.986  18.899  0.00  0.00    +0.000 C 
ATOM      6  N   UNL     1       1.367   6.846  20.053  0.00  0.00    +0.000 NA
ATOM      7  C   UNL     1       1.316   5.414  20.425  0.00  0.00    +0.000 C 
ATOM      8  C   UNL     1       2.686   4.781  20.717  0.00  0.00    +0.000 C 
ENDROOT
BRANCH   2   9
ATOM      9  C   UNL     1       5.542   4.144  18.224  0.00  0.00    +0.000 A 
ATOM     10  C   UNL     1       5.228   3.947  16.896  0.00  0.00    +0.000 A 
ATOM     11  C   UNL     1       6.257   4.182  16.025  0.00  0.00    +0.000 A 
ATOM     12  N   UNL     1       7.484   4.565  16.397  0.00  0.00    +0.000 NA
ATOM     13  C   UNL     1       7.683   4.694  17.712  0.00  0.00    +0.000 A 
ATOM     14  N   UNL     1       6.768   4.495  18.668  0.00  0.00    +0.000 NA
BRANCH  11  15
ATOM     15  O   UNL     1       6.088   4.049  14.679  0.00  0.00    +0.000 OA
ATOM     16  H   UNL     1       6.726   3.399  14.347  0.00  0.00    +0.000 HD
ENDBRANCH  11  15
ENDBRANCH   2   9
BRANCH   6  17
ATOM     17  C   UNL     1       1.804   7.723  21.155  0.00  0.00    +0.000 C 
BRANCH  17  18
ATOM     18  C   UNL     1       0.883   8.887  21.444  0.00  0.00    +0.000 A 
ATOM     19  C   UNL     1       0.490   9.746  20.407  0.00  0.00    +0.000 A 
ATOM     20  C   UNL     1      -0.378  10.809  20.657  0.00  0.00    +0.000 A 
ATOM     21  C   UNL     1      -0.864  11.024  21.944  0.00  0.00    +0.000 A 
ATOM     22  C   UNL     1      -0.481  10.177  22.985  0.00  0.00    +0.000 A 
ATOM     23  C   UNL     1       0.387   9.112  22.736  0.00  0.00    +0.000 A 
ENDBRANCH  17  18
ENDBRANCH   6  17
TORSDOF 4
ENDMDL
MODEL 2
REMARK VINA RESULT:      -7.0      0.041      1.030
REMARK  Name = 
REMARK  4 active torsions:
REMARK  status: ('A' for Active; 'I' for Inactive)
REMARK    1  A    between atoms: C_2  and  C_3
REMARK    2  A    between atoms: C_5  and  O_6
REMARK    3  A    between atoms: N_13  and  C_14
REMARK    4  A    between atoms: C_14  and  C_15
REMARK                            x       y       z     vdW  Elec       q    Type
REMARK                         _______ _______ _______ _____ _____    ______ ____
ROOT
ATOM      1  O   UNL     1       4.305   2.800  19.670  0.00  0.00    +0.000 OA
ATOM      2  C   UNL     1       4.443   3.939  19.223  0.00  0.00    +0.000 C 
ATOM      3  N   UNL     1       3.608   4.996  19.594  0.00  0.00    +0.000 N 
ATOM      4  C   UNL     1       3.660   6.363  19.057  0.00  0.00    +0.000 C 
ATOM      5  C   UNL     1       2.255   6.980  18.868  0.00  0.00    +0.000 C 
ATOM      6  N   UNL     1       1.344   6.846  20.027  0.00  0.00    +0.000 NA
ATOM      7  C   UNL     1       1.301   5.418  20.412  0.00  0.00    +0.000 C 
ATOM      8  C   UNL     1       2.675   4.793  20.706  0.00  0.00    +0.000 C 
ENDROOT
BRANCH   2   9
ATOM      9  C   UNL     1       5.523   4.143  18.208  0.00  0.00    +0.000 A 
ATOM     10  C   UNL     1       5.207   3.926  16.884  0.00  0.00    +0.000 A 
ATOM     11  C   UNL     1       6.231   4.157  16.006  0.00  0.00    +0.000 A 
ATOM     12  N   UNL     1       7.457   4.554  16.369  0.00  0.00    +0.000 NA
ATOM     13  C   UNL     1       7.659   4.702  17.682  0.00  0.00    +0.000 A 
ATOM     14  N   UNL     1       6.748   4.508  18.643  0.00  0.00    +0.000 NA
BRANCH  11  15
ATOM     15  O   UNL     1       6.059   4.005  14.663  0.00  0.00    +0.000 OA
ATOM     16  H   UNL     1       5.480   4.713  14.341  0.00  0.00    +0.000 HD
ENDBRANCH  11  15
ENDBRANCH   2   9
BRANCH   6  17
ATOM     17  C   UNL     1       1.783   7.736  21.119  0.00  0.00    +0.000 C 
BRANCH  17  18
ATOM     18  C   UNL     1       0.846   8.884  21.417  0.00  0.00    +0.000 A 
ATOM     19  C   UNL     1       0.407   9.110  22.730  0.00  0.00    +0.000 A 
ATOM     20  C   UNL     1      -0.440  10.179  23.023  0.00  0.00    +0.000 A 
ATOM     21  C   UNL     1      -0.855  11.036  22.006  0.00  0.00    +0.000 A 
ATOM     22  C   UNL     1      -0.426  10.823  20.696  0.00  0.00    +0.000 A 
ATOM     23  C   UNL     1       0.421   9.753  20.402  0.00  0.00    +0.000 A 
ENDBRANCH  17  18
ENDBRANCH   6  17
TORSDOF 4
ENDMDL
MODEL 3
REMARK VINA RESULT:      -6.6      2.790      8.089
REMARK  Name = 
REMARK  4 active torsions:
REMARK  status: ('A' for Active; 'I' for Inactive)
REMARK    1  A    between atoms: C_2  and  C_3
REMARK    2  A    between atoms: C_5  and  O_6
REMARK    3  A    between atoms: N_13  and  C_14
REMARK    4  A    between atoms: C_14  and  C_15
REMARK                            x       y       z     vdW  Elec       q    Type
REMARK                         _______ _______ _______ _____ _____    ______ ____
ROOT
ATOM      1  O   UNL     1       2.442   5.322  20.586  0.00  0.00    +0.000 OA
ATOM      2  C   UNL     1       2.688   6.028  19.609  0.00  0.00    +0.000 C 
ATOM      3  N   UNL     1       3.520   5.606  18.568  0.00  0.00    +0.000 N 
ATOM      4  C   UNL     1       3.919   6.410  17.404  0.00  0.00    +0.000 C 
ATOM      5  C   UNL     1       5.388   6.166  16.991  0.00  0.00    +0.000 C 
ATOM      6  N   UNL     1       5.787   4.745  16.878  0.00  0.00    +0.000 NA
ATOM      7  C   UNL     1       5.422   4.066  18.141  0.00  0.00    +0.000 C 
ATOM      8  C   UNL     1       3.942   4.203  18.536  0.00  0.00    +0.000 C 
ENDROOT
BRANCH   2   9
ATOM      9  C   UNL     1       2.097   7.402  19.599  0.00  0.00    +0.000 A 
ATOM     10  C   UNL     1       2.184   8.129  18.430  0.00  0.00    +0.000 A 
ATOM     11  C   UNL     1       1.600   9.366  18.481  0.00  0.00    +0.000 A 
ATOM     12  N   UNL     1       0.994   9.866  19.564  0.00  0.00    +0.000 NA
ATOM     13  C   UNL     1       0.998   9.087  20.650  0.00  0.00    +0.000 A 
ATOM     14  N   UNL     1       1.532   7.863  20.735  0.00  0.00    +0.000 NA
BRANCH  11  15
ATOM     15  O   UNL     1       1.589  10.187  17.393  0.00  0.00    +0.000 OA
ATOM     16  H   UNL     1       1.271   9.685  16.628  0.00  0.00    +0.000 HD
ENDBRANCH  11  15
ENDBRANCH   2   9
BRANCH   6  17
ATOM     17  C   UNL     1       5.165   4.141  15.685  0.00  0.00    +0.000 C 
BRANCH  17  18
ATOM     18  C   UNL     1       5.984   4.248  14.419  0.00  0.00    +0.000 A 
ATOM     19  C   UNL     1       5.619   3.513  13.281  0.00  0.00    +0.000 A 
ATOM     20  C   UNL     1       6.352   3.621  12.100  0.00  0.00    +0.000 A 
ATOM     21  C   UNL     1       7.457   4.467  12.042  0.00  0.00    +0.000 A 
ATOM     22  C   UNL     1       7.831   5.205  13.165  0.00  0.00    +0.000 A 
ATOM     23  C   UNL     1       7.097   5.097  14.349  0.00  0.00    +0.000 A 
ENDBRANCH  17  18
ENDBRANCH   6  17
TORSDOF 4
ENDMDL
MODEL 4
REMARK VINA RESULT:      -6.6      4.062      5.728
REMARK  Name = 
REMARK  4 active torsions:
REMARK  status: ('A' for Active; 'I' for Inactive)
REMARK    1  A    between atoms: C_2  and  C_3
REMARK    2  A    between atoms: C_5  and  O_6
REMARK    3  A    between atoms: N_13  and  C_14
REMARK    4  A    between atoms: C_14  and  C_15
REMARK                            x       y       z     vdW  Elec       q    Type
REMARK                         _______ _______ _______ _____ _____    ______ ____
ROOT
ATOM      1  O   UNL     1       7.735   5.556  14.081  0.00  0.00    +0.000 OA
ATOM      2  C   UNL     1       6.742   4.879  14.345  0.00  0.00    +0.000 C 
ATOM      3  N   UNL     1       6.147   4.883  15.609  0.00  0.00    +0.000 N 
ATOM      4  C   UNL     1       5.007   4.055  16.026  0.00  0.00    +0.000 C 
ATOM      5  C   UNL     1       5.143   3.547  17.480  0.00  0.00    +0.000 C 
ATOM      6  N   UNL     1       5.506   4.577  18.478  0.00  0.00    +0.000 NA
ATOM      7  C   UNL     1       6.719   5.275  17.994  0.00  0.00    +0.000 C 
ATOM      8  C   UNL     1       6.589   5.881  16.587  0.00  0.00    +0.000 C 
ENDROOT
BRANCH   2   9
ATOM      9  C   UNL     1       6.217   3.993  13.260  0.00  0.00    +0.000 A 
ATOM     10  C   UNL     1       7.107   3.141  12.642  0.00  0.00    +0.000 A 
ATOM     11  C   UNL     1       6.557   2.339  11.679  0.00  0.00    +0.000 A 
ATOM     12  N   UNL     1       5.264   2.361  11.332  0.00  0.00    +0.000 NA
ATOM     13  C   UNL     1       4.501   3.250  11.975  0.00  0.00    +0.000 A 
ATOM     14  N   UNL     1       4.911   4.090  12.932  0.00  0.00    +0.000 NA
BRANCH  11  15
ATOM     15  O   UNL     1       7.312   1.430  10.999  0.00  0.00    +0.000 OA
ATOM     16  H   UNL     1       8.147   1.302  11.474  0.00  0.00    +0.000 HD
ENDBRANCH  11  15
ENDBRANCH   2   9
BRANCH   6  17
ATOM     17  C   UNL     1       4.363   5.479  18.712  0.00  0.00    +0.000 C 
BRANCH  17  18
ATOM     18  C   UNL     1       3.113   4.800  19.222  0.00  0.00    +0.000 A 
ATOM     19  C   UNL     1       2.123   4.380  18.320  0.00  0.00    +0.000 A 
ATOM     20  C   UNL     1       0.976   3.732  18.776  0.00  0.00    +0.000 A 
ATOM     21  C   UNL     1       0.805   3.495  20.138  0.00  0.00    +0.000 A 
ATOM     22  C   UNL     1       1.781   3.907  21.046  0.00  0.00    +0.000 A 
ATOM     23  C   UNL     1       2.930   4.556  20.590  0.00  0.00    +0.000 A 
ENDBRANCH  17  18
ENDBRANCH   6  17
TORSDOF 4
ENDMDL
MODEL 5
REMARK VINA RESULT:      -6.6      2.772      8.076
REMARK  Name = 
REMARK  4 active torsions:
REMARK  status: ('A' for Active; 'I' for Inactive)
REMARK    1  A    between atoms: C_2  and  C_3
REMARK    2  A    between atoms: C_5  and  O_6
REMARK    3  A    between atoms: N_13  and  C_14
REMARK    4  A    between atoms: C_14  and  C_15
REMARK                            x       y       z     vdW  Elec       q    Type
REMARK                         _______ _______ _______ _____ _____    ______ ____
ROOT
ATOM      1  O   UNL     1       2.419   5.379  20.647  0.00  0.00    +0.000 OA
ATOM      2  C   UNL     1       2.668   6.064  19.655  0.00  0.00    +0.000 C 
ATOM      3  N   UNL     1       3.494   5.614  18.622  0.00  0.00    +0.000 N 
ATOM      4  C   UNL     1       3.897   6.392  17.441  0.00  0.00    +0.000 C 
ATOM      5  C   UNL     1       5.364   6.128  17.031  0.00  0.00    +0.000 C 
ATOM      6  N   UNL     1       5.751   4.703  16.945  0.00  0.00    +0.000 NA
ATOM      7  C   UNL     1       5.383   4.052  18.222  0.00  0.00    +0.000 C 
ATOM      8  C   UNL     1       3.906   4.208  18.617  0.00  0.00    +0.000 C 
ENDROOT
BRANCH   2   9
ATOM      9  C   UNL     1       2.088   7.442  19.619  0.00  0.00    +0.000 A 
ATOM     10  C   UNL     1       2.205   8.156  18.446  0.00  0.00    +0.000 A 
ATOM     11  C   UNL     1       1.629   9.398  18.471  0.00  0.00    +0.000 A 
ATOM     12  N   UNL     1       1.003   9.913  19.536  0.00  0.00    +0.000 NA
ATOM     13  C   UNL     1       0.978   9.144  20.629  0.00  0.00    +0.000 A 
ATOM     14  N   UNL     1       1.501   7.918  20.738  0.00  0.00    +0.000 NA
BRANCH  11  15
ATOM     15  O   UNL     1       1.648  10.208  17.376  0.00  0.00    +0.000 OA
ATOM     16  H   UNL     1       1.245  11.058  17.610  0.00  0.00    +0.000 HD
ENDBRANCH  11  15
ENDBRANCH   2   9
BRANCH   6  17
ATOM     17  C   UNL     1       5.122   4.079  15.765  0.00  0.00    +0.000 C 
BRANCH  17  18
ATOM     18  C   UNL     1       5.908   4.214  14.481  0.00  0.00    +0.000 A 
ATOM     19  C   UNL     1       7.067   5.004  14.446  0.00  0.00    +0.000 A 
ATOM     20  C   UNL     1       7.813   5.118  13.273  0.00  0.00    +0.000 A 
ATOM     21  C   UNL     1       7.410   4.442  12.123  0.00  0.00    +0.000 A 
ATOM     22  C   UNL     1       6.260   3.653  12.144  0.00  0.00    +0.000 A 
ATOM     23  C   UNL     1       5.512   3.538  13.318  0.00  0.00    +0.000 A 
ENDBRANCH  17  18
ENDBRANCH   6  17
TORSDOF 4
ENDMDL
MODEL 6
REMARK VINA RESULT:      -6.6      4.012      5.842
REMARK  Name = 
REMARK  4 active torsions:
REMARK  status: ('A' for Active; 'I' for Inactive)
REMARK    1  A    between atoms: C_2  and  C_3
REMARK    2  A    between atoms: C_5  and  O_6
REMARK    3  A    between atoms: N_13  and  C_14
REMARK    4  A    between atoms: C_14  and  C_15
REMARK                            x       y       z     vdW  Elec       q    Type
REMARK                         _______ _______ _______ _____ _____    ______ ____
ROOT
ATOM      1  O   UNL     1       7.737   5.526  13.977  0.00  0.00    +0.000 OA
ATOM      2  C   UNL     1       6.748   4.847  14.255  0.00  0.00    +0.000 C 
ATOM      3  N   UNL     1       6.160   4.863  15.522  0.00  0.00    +0.000 N 
ATOM      4  C   UNL     1       5.025   4.035  15.955  0.00  0.00    +0.000 C 
ATOM      5  C   UNL     1       5.172   3.546  17.414  0.00  0.00    +0.000 C 
ATOM      6  N   UNL     1       5.536   4.589  18.398  0.00  0.00    +0.000 NA
ATOM      7  C   UNL     1       6.743   5.286  17.900  0.00  0.00    +0.000 C 
ATOM      8  C   UNL     1       6.603   5.875  16.486  0.00  0.00    +0.000 C 
ENDROOT
BRANCH   2   9
ATOM      9  C   UNL     1       6.221   3.947  13.184  0.00  0.00    +0.000 A 
ATOM     10  C   UNL     1       7.103   3.065  12.597  0.00  0.00    +0.000 A 
ATOM     11  C   UNL     1       6.550   2.251  11.644  0.00  0.00    +0.000 A 
ATOM     12  N   UNL     1       5.263   2.289  11.280  0.00  0.00    +0.000 NA
ATOM     13  C   UNL     1       4.508   3.206  11.893  0.00  0.00    +0.000 A 
ATOM     14  N   UNL     1       4.921   4.059  12.836  0.00  0.00    +0.000 NA
BRANCH  11  15
ATOM     15  O   UNL     1       7.297   1.314  10.995  0.00  0.00    +0.000 OA
ATOM     16  H   UNL     1       6.832   1.051  10.186  0.00  0.00    +0.000 HD
ENDBRANCH  11  15
ENDBRANCH   2   9
BRANCH   6  17
ATOM     17  C   UNL     1       4.391   5.489  18.628  0.00  0.00    +0.000 C 
BRANCH  17  18
ATOM     18  C   UNL     1       3.143   4.809  19.145  0.00  0.00    +0.000 A 
ATOM     19  C   UNL     1       2.932   4.684  20.526  0.00  0.00    +0.000 A 
ATOM     20  C   UNL     1       1.774   4.080  21.016  0.00  0.00    +0.000 A 
ATOM     21  C   UNL     1       0.814   3.596  20.131  0.00  0.00    +0.000 A 
ATOM     22  C   UNL     1       1.011   3.714  18.755  0.00  0.00    +0.000 A 
ATOM     23  C   UNL     1       2.169   4.319  18.263  0.00  0.00    +0.000 A 
ENDBRANCH  17  18
ENDBRANCH   6  17
TORSDOF 4
ENDMDL
MODEL 7
REMARK VINA RESULT:      -6.3      2.818      8.294
REMARK  Name = 
REMARK  4 active torsions:
REMARK  status: ('A' for Active; 'I' for Inactive)
REMARK    1  A    between atoms: C_2  and  C_3
REMARK    2  A    between atoms: C_5  and  O_6
REMARK    3  A    between atoms: N_13  and  C_14
REMARK    4  A    between atoms: C_14  and  C_15
REMARK                            x       y       z     vdW  Elec       q    Type
REMARK                         _______ _______ _______ _____ _____    ______ ____
ROOT
ATOM      1  O   UNL     1       2.736   5.390  20.726  0.00  0.00    +0.000 OA
ATOM      2  C   UNL     1       2.846   6.077  19.710  0.00  0.00    +0.000 C 
ATOM      3  N   UNL     1       3.640   5.690  18.627  0.00  0.00    +0.000 N 
ATOM      4  C   UNL     1       3.880   6.480  17.411  0.00  0.00    +0.000 C 
ATOM      5  C   UNL     1       5.334   6.353  16.900  0.00  0.00    +0.000 C 
ATOM      6  N   UNL     1       5.854   4.971  16.805  0.00  0.00    +0.000 NA
ATOM      7  C   UNL     1       5.642   4.312  18.114  0.00  0.00    +0.000 C 
ATOM      8  C   UNL     1       4.187   4.330  18.611  0.00  0.00    +0.000 C 
ENDROOT
BRANCH   2   9
ATOM      9  C   UNL     1       2.131   7.390  19.698  0.00  0.00    +0.000 A 
ATOM     10  C   UNL     1       1.494   7.783  20.856  0.00  0.00    +0.000 A 
ATOM     11  C   UNL     1       0.883   9.007  20.785  0.00  0.00    +0.000 A 
ATOM     12  N   UNL     1       0.876   9.781  19.694  0.00  0.00    +0.000 NA
ATOM     13  C   UNL     1       1.498   9.284  18.620  0.00  0.00    +0.000 A 
ATOM     14  N   UNL     1       2.130   8.107  18.554  0.00  0.00    +0.000 NA
BRANCH  11  15
ATOM     15  O   UNL     1       0.233   9.535  21.861  0.00  0.00    +0.000 OA
ATOM     16  H   UNL     1      -0.106   8.809  22.407  0.00  0.00    +0.000 HD
ENDBRANCH  11  15
ENDBRANCH   2   9
BRANCH   6  17
ATOM     17  C   UNL     1       5.209   4.266  15.682  0.00  0.00    +0.000 C 
BRANCH  17  18
ATOM     18  C   UNL     1       5.989   4.289  14.387  0.00  0.00    +0.000 A 
ATOM     19  C   UNL     1       5.555   3.529  13.291  0.00  0.00    +0.000 A 
ATOM     20  C   UNL     1       6.253   3.559  12.084  0.00  0.00    +0.000 A 
ATOM     21  C   UNL     1       7.391   4.352  11.958  0.00  0.00    +0.000 A 
ATOM     22  C   UNL     1       7.834   5.114  13.039  0.00  0.00    +0.000 A 
ATOM     23  C   UNL     1       7.136   5.084  14.248  0.00  0.00    +0.000 A 
ENDBRANCH  17  18
ENDBRANCH   6  17
TORSDOF 4
ENDMDL
MODEL 8
REMARK VINA RESULT:      -6.3      2.821      8.287
REMARK  Name = 
REMARK  4 active torsions:
REMARK  status: ('A' for Active; 'I' for Inactive)
REMARK    1  A    between atoms: C_2  and  C_3
REMARK    2  A    between atoms: C_5  and  O_6
REMARK    3  A    between atoms: N_13  and  C_14
REMARK    4  A    between atoms: C_14  and  C_15
REMARK                            x       y       z     vdW  Elec       q    Type
REMARK                         _______ _______ _______ _____ _____    ______ ____
ROOT
ATOM      1  O   UNL     1       2.633   5.421  20.720  0.00  0.00    +0.000 OA
ATOM      2  C   UNL     1       2.781   6.100  19.704  0.00  0.00    +0.000 C 
ATOM      3  N   UNL     1       3.582   5.687  18.636  0.00  0.00    +0.000 N 
ATOM      4  C   UNL     1       3.867   6.465  17.422  0.00  0.00    +0.000 C 
ATOM      5  C   UNL     1       5.325   6.296  16.938  0.00  0.00    +0.000 C 
ATOM      6  N   UNL     1       5.807   4.899  16.857  0.00  0.00    +0.000 NA
ATOM      7  C   UNL     1       5.554   4.252  18.164  0.00  0.00    +0.000 C 
ATOM      8  C   UNL     1       4.091   4.313  18.635  0.00  0.00    +0.000 C 
ENDROOT
BRANCH   2   9
ATOM      9  C   UNL     1       2.104   7.433  19.675  0.00  0.00    +0.000 A 
ATOM     10  C   UNL     1       1.522   7.882  20.842  0.00  0.00    +0.000 A 
ATOM     11  C   UNL     1       0.944   9.120  20.753  0.00  0.00    +0.000 A 
ATOM     12  N   UNL     1       0.918   9.858  19.638  0.00  0.00    +0.000 NA
ATOM     13  C   UNL     1       1.484   9.309  18.559  0.00  0.00    +0.000 A 
ATOM     14  N   UNL     1       2.080   8.113  18.508  0.00  0.00    +0.000 NA
BRANCH  11  15
ATOM     15  O   UNL     1       0.351   9.701  21.834  0.00  0.00    +0.000 OA
ATOM     16  H   UNL     1      -0.146   9.024  22.318  0.00  0.00    +0.000 HD
ENDBRANCH  11  15
ENDBRANCH   2   9
BRANCH   6  17
ATOM     17  C   UNL     1       5.163   4.208  15.725  0.00  0.00    +0.000 C 
BRANCH  17  18
ATOM     18  C   UNL     1       5.931   4.270  14.424  0.00  0.00    +0.000 A 
ATOM     19  C   UNL     1       7.080   5.069  14.323  0.00  0.00    +0.000 A 
ATOM     20  C   UNL     1       7.809   5.117  13.135  0.00  0.00    +0.000 A 
ATOM     21  C   UNL     1       7.400   4.366  12.036  0.00  0.00    +0.000 A 
ATOM     22  C   UNL     1       6.260   3.567  12.122  0.00  0.00    +0.000 A 
ATOM     23  C   UNL     1       5.528   3.518  13.311  0.00  0.00    +0.000 A 
ENDBRANCH  17  18
ENDBRANCH   6  17
TORSDOF 4
ENDMDL
MODEL 9
REMARK VINA RESULT:      -6.3      2.826      4.053
REMARK  Name = 
REMARK  4 active torsions:
REMARK  status: ('A' for Active; 'I' for Inactive)
REMARK    1  A    between atoms: C_2  and  C_3
REMARK    2  A    between atoms: C_5  and  O_6
REMARK    3  A    between atoms: N_13  and  C_14
REMARK    4  A    between atoms: C_14  and  C_15
REMARK                            x       y       z     vdW  Elec       q    Type
REMARK                         _______ _______ _______ _____ _____    ______ ____
ROOT
ATOM      1  O   UNL     1       1.855   5.783  20.951  0.00  0.00    +0.000 OA
ATOM      2  C   UNL     1       2.290   6.242  19.895  0.00  0.00    +0.000 C 
ATOM      3  N   UNL     1       2.068   7.565  19.504  0.00  0.00    +0.000 N 
ATOM      4  C   UNL     1       2.491   8.170  18.233  0.00  0.00    +0.000 C 
ATOM      5  C   UNL     1       1.441   9.151  17.665  0.00  0.00    +0.000 C 
ATOM      6  N   UNL     1       0.913  10.142  18.630  0.00  0.00    +0.000 NA
ATOM      7  C   UNL     1       0.432   9.407  19.821  0.00  0.00    +0.000 C 
ATOM      8  C   UNL     1       1.480   8.492  20.475  0.00  0.00    +0.000 C 
ENDROOT
BRANCH   2   9
ATOM      9  C   UNL     1       3.035   5.300  19.002  0.00  0.00    +0.000 A 
ATOM     10  C   UNL     1       4.387   5.147  19.219  0.00  0.00    +0.000 A 
ATOM     11  C   UNL     1       5.002   4.251  18.386  0.00  0.00    +0.000 A 
ATOM     12  N   UNL     1       4.373   3.569  17.422  0.00  0.00    +0.000 NA
ATOM     13  C   UNL     1       3.069   3.821  17.282  0.00  0.00    +0.000 A 
ATOM     14  N   UNL     1       2.349   4.670  18.024  0.00  0.00    +0.000 NA
BRANCH  11  15
ATOM     15  O   UNL     1       6.333   3.981  18.498  0.00  0.00    +0.000 OA
ATOM     16  H   UNL     1       6.461   3.021  18.455  0.00  0.00    +0.000 HD
ENDBRANCH  11  15
ENDBRANCH   2   9
BRANCH   6  17
ATOM     17  C   UNL     1       1.947  11.147  18.938  0.00  0.00    +0.000 C 
BRANCH  17  18
ATOM     18  C   UNL     1       1.470  12.581  18.899  0.00  0.00    +0.000 A 
ATOM     19  C   UNL     1       0.114  12.865  18.681  0.00  0.00    +0.000 A 
ATOM     20  C   UNL     1      -0.342  14.182  18.666  0.00  0.00    +0.000 A 
ATOM     21  C   UNL     1       0.551  15.231  18.872  0.00  0.00    +0.000 A 
ATOM     22  C   UNL     1       1.903  14.963  19.091  0.00  0.00    +0.000 A 
ATOM     23  C   UNL     1       2.361  13.644  19.106  0.00  0.00    +0.000 A 
ENDBRANCH  17  18
ENDBRANCH   6  17
TORSDOF 4
ENDMDL
