MODEL 1
REMARK VINA RESULT:      -8.1      0.000      0.000
REMARK  Name = 
REMARK  9 active torsions:
REMARK  status: ('A' for Active; 'I' for Inactive)
REMARK    1  A    between atoms: C_1  and  C_2
REMARK    2  A    between atoms: C_4  and  C_5
REMARK    3  A    between atoms: C_7  and  O_8
REMARK    4  A    between atoms: O_8  and  C_9
REMARK    5  A    between atoms: C_9  and  C_10
REMARK    6  A    between atoms: C_13  and  S_14
REMARK    7  A    between atoms: S_14  and  C_15
REMARK    8  A    between atoms: C_15  and  C_16
REMARK    9  A    between atoms: N_18  and  C_19
REMARK                            x       y       z     vdW  Elec       q    Type
REMARK                         _______ _______ _______ _____ _____    ______ ____
ROOT
ATOM      1  C   UNL     1       8.204   8.803  18.039  0.00  0.00    +0.000 A 
ATOM      2  N   UNL     1       7.218   8.715  17.164  0.00  0.00    +0.000 NA
ATOM      3  N   UNL     1       6.822   7.397  17.156  0.00  0.00    +0.000 NA
ATOM      4  C   UNL     1       7.599   6.754  18.005  0.00  0.00    +0.000 A 
ATOM      5  O   UNL     1       8.512   7.590  18.604  0.00  0.00    +0.000 OA
ENDROOT
BRANCH   1   6
ATOM      6  C   UNL     1       9.052   9.975  18.389  0.00  0.00    +0.000 C 
BRANCH   6   7
ATOM      7  O   UNL     1       9.209  10.006  19.812  0.00  0.00    +0.000 OA
BRANCH   7  14
ATOM      8  C   UNL     1       8.592  13.728  23.050  0.00  0.00    +0.000 C 
ATOM      9  C   UNL     1       9.301  13.094  21.888  0.00  0.00    +0.000 A 
ATOM     10  C   UNL     1      10.345  13.763  21.237  0.00  0.00    +0.000 A 
ATOM     11  C   UNL     1      10.984  13.178  20.136  0.00  0.00    +0.000 A 
ATOM     12  C   UNL     1      12.103  13.890  19.432  0.00  0.00    +0.000 C 
ATOM     13  C   UNL     1      10.571  11.913  19.697  0.00  0.00    +0.000 A 
ATOM     14  C   UNL     1       9.547  11.223  20.346  0.00  0.00    +0.000 A 
ATOM     15  C   UNL     1       8.904  11.825  21.436  0.00  0.00    +0.000 A 
ENDBRANCH   7  14
ENDBRANCH   6   7
ENDBRANCH   1   6
BRANCH   4  16
ATOM     16  S   UNL     1       7.518   5.047  18.301  0.00  0.00    +0.000 S 
BRANCH  16  17
ATOM     17  C   UNL     1       6.477   4.497  16.915  0.00  0.00    +0.000 C 
BRANCH  17  18
ATOM     18  C   UNL     1       5.017   4.469  17.327  0.00  0.00    +0.000 C 
ATOM     19  O   UNL     1       4.251   5.331  16.892  0.00  0.00    +0.000 OA
ATOM     20  N   UNL     1       4.684   3.461  18.222  0.00  0.00    +0.000 N 
ATOM     21  H   UNL     1       5.450   2.958  18.667  0.00  0.00    +0.000 HD
BRANCH  20  22
ATOM     22  C   UNL     1       3.398   3.261  18.775  0.00  0.00    +0.000 A 
ATOM     23  C   UNL     1       2.423   2.483  18.149  0.00  0.00    +0.000 A 
ATOM     24  C   UNL     1       1.146   2.356  18.696  0.00  0.00    +0.000 A 
ATOM     25  C   UNL     1       0.834   2.996  19.889  0.00  0.00    +0.000 A 
ATOM     26  C   UNL     1       1.807   3.748  20.545  0.00  0.00    +0.000 A 
ATOM     27  C   UNL     1       3.090   3.876  19.996  0.00  0.00    +0.000 A 
ENDBRANCH  20  22
ENDBRANCH  17  18
ENDBRANCH  16  17
ENDBRANCH   4  16
TORSDOF 7
ENDMDL
MODEL 2
REMARK VINA RESULT:      -8.1      1.025      2.245
REMARK  Name = 
REMARK  9 active torsions:
REMARK  status: ('A' for Active; 'I' for Inactive)
REMARK    1  A    between atoms: C_1  and  C_2
REMARK    2  A    between atoms: C_4  and  C_5
REMARK    3  A    between atoms: C_7  and  O_8
REMARK    4  A    between atoms: O_8  and  C_9
REMARK    5  A    between atoms: C_9  and  C_10
REMARK    6  A    between atoms: C_13  and  S_14
REMARK    7  A    between atoms: S_14  and  C_15
REMARK    8  A    between atoms: C_15  and  C_16
REMARK    9  A    between atoms: N_18  and  C_19
REMARK                            x       y       z     vdW  Elec       q    Type
REMARK                         _______ _______ _______ _____ _____    ______ ____
ROOT
ATOM      1  C   UNL     1       8.147   8.439  18.185  0.00  0.00    +0.000 A 
ATOM      2  N   UNL     1       7.440   8.445  17.069  0.00  0.00    +0.000 NA
ATOM      3  N   UNL     1       7.084   7.138  16.827  0.00  0.00    +0.000 NA
ATOM      4  C   UNL     1       7.608   6.408  17.792  0.00  0.00    +0.000 A 
ATOM      5  O   UNL     1       8.308   7.174  18.695  0.00  0.00    +0.000 OA
ENDROOT
BRANCH   1   6
ATOM      6  C   UNL     1       8.847   9.562  18.865  0.00  0.00    +0.000 C 
BRANCH   6   7
ATOM      7  O   UNL     1       9.390  10.426  17.859  0.00  0.00    +0.000 OA
BRANCH   7  14
ATOM      8  C   UNL     1      11.881  14.687  17.257  0.00  0.00    +0.000 C 
ATOM      9  C   UNL     1      11.073  13.738  18.096  0.00  0.00    +0.000 A 
ATOM     10  C   UNL     1      10.796  14.027  19.437  0.00  0.00    +0.000 A 
ATOM     11  C   UNL     1      10.066  13.125  20.221  0.00  0.00    +0.000 A 
ATOM     12  C   UNL     1       9.766  13.428  21.661  0.00  0.00    +0.000 C 
ATOM     13  C   UNL     1       9.611  11.930  19.646  0.00  0.00    +0.000 A 
ATOM     14  C   UNL     1       9.860  11.635  18.306  0.00  0.00    +0.000 A 
ATOM     15  C   UNL     1      10.605  12.538  17.535  0.00  0.00    +0.000 A 
ENDBRANCH   7  14
ENDBRANCH   6   7
ENDBRANCH   1   6
BRANCH   4  16
ATOM     16  S   UNL     1       7.477   4.682  17.891  0.00  0.00    +0.000 S 
BRANCH  16  17
ATOM     17  C   UNL     1       6.147   4.359  16.693  0.00  0.00    +0.000 C 
BRANCH  17  18
ATOM     18  C   UNL     1       4.793   4.428  17.373  0.00  0.00    +0.000 C 
ATOM     19  O   UNL     1       4.152   5.480  17.335  0.00  0.00    +0.000 OA
ATOM     20  N   UNL     1       4.412   3.267  18.032  0.00  0.00    +0.000 N 
ATOM     21  H   UNL     1       5.125   2.551  18.169  0.00  0.00    +0.000 HD
BRANCH  20  22
ATOM     22  C   UNL     1       3.215   3.106  18.766  0.00  0.00    +0.000 A 
ATOM     23  C   UNL     1       3.163   3.233  20.156  0.00  0.00    +0.000 A 
ATOM     24  C   UNL     1       1.975   3.010  20.853  0.00  0.00    +0.000 A 
ATOM     25  C   UNL     1       0.818   2.671  20.163  0.00  0.00    +0.000 A 
ATOM     26  C   UNL     1       0.845   2.573  18.773  0.00  0.00    +0.000 A 
ATOM     27  C   UNL     1       2.038   2.797  18.072  0.00  0.00    +0.000 A 
ENDBRANCH  20  22
ENDBRANCH  17  18
ENDBRANCH  16  17
ENDBRANCH   4  16
TORSDOF 7
ENDMDL
MODEL 3
REMARK VINA RESULT:      -8.1      1.250      1.681
REMARK  Name = 
REMARK  9 active torsions:
REMARK  status: ('A' for Active; 'I' for Inactive)
REMARK    1  A    between atoms: C_1  and  C_2
REMARK    2  A    between atoms: C_4  and  C_5
REMARK    3  A    between atoms: C_7  and  O_8
REMARK    4  A    between atoms: O_8  and  C_9
REMARK    5  A    between atoms: C_9  and  C_10
REMARK    6  A    between atoms: C_13  and  S_14
REMARK    7  A    between atoms: S_14  and  C_15
REMARK    8  A    between atoms: C_15  and  C_16
REMARK    9  A    between atoms: N_18  and  C_19
REMARK                            x       y       z     vdW  Elec       q    Type
REMARK                         _______ _______ _______ _____ _____    ______ ____
ROOT
ATOM      1  C   UNL     1       8.204   8.491  18.244  0.00  0.00    +0.000 A 
ATOM      2  N   UNL     1       7.504   8.531  17.124  0.00  0.00    +0.000 NA
ATOM      3  N   UNL     1       7.128   7.236  16.854  0.00  0.00    +0.000 NA
ATOM      4  C   UNL     1       7.634   6.478  17.807  0.00  0.00    +0.000 A 
ATOM      5  O   UNL     1       8.340   7.214  18.729  0.00  0.00    +0.000 OA
ENDROOT
BRANCH   1   6
ATOM      6  C   UNL     1       8.918   9.589  18.950  0.00  0.00    +0.000 C 
BRANCH   6   7
ATOM      7  O   UNL     1       9.468  10.472  17.965  0.00  0.00    +0.000 OA
BRANCH   7  14
ATOM      8  C   UNL     1      10.085  13.936  21.478  0.00  0.00    +0.000 C 
ATOM      9  C   UNL     1      10.369  13.375  20.114  0.00  0.00    +0.000 A 
ATOM     10  C   UNL     1      11.203  14.057  19.220  0.00  0.00    +0.000 A 
ATOM     11  C   UNL     1      11.442  13.542  17.940  0.00  0.00    +0.000 A 
ATOM     12  C   UNL     1      12.333  14.269  16.975  0.00  0.00    +0.000 C 
ATOM     13  C   UNL     1      10.840  12.332  17.565  0.00  0.00    +0.000 A 
ATOM     14  C   UNL     1      10.023  11.629  18.450  0.00  0.00    +0.000 A 
ATOM     15  C   UNL     1       9.779  12.162  19.723  0.00  0.00    +0.000 A 
ENDBRANCH   7  14
ENDBRANCH   6   7
ENDBRANCH   1   6
BRANCH   4  16
ATOM     16  S   UNL     1       7.474   4.753  17.870  0.00  0.00    +0.000 S 
BRANCH  16  17
ATOM     17  C   UNL     1       6.178   4.472  16.626  0.00  0.00    +0.000 C 
BRANCH  17  18
ATOM     18  C   UNL     1       4.847   4.195  17.300  0.00  0.00    +0.000 C 
ATOM     19  O   UNL     1       3.844   4.019  16.605  0.00  0.00    +0.000 OA
ATOM     20  N   UNL     1       4.883   4.209  18.688  0.00  0.00    +0.000 N 
ATOM     21  H   UNL     1       5.723   4.581  19.131  0.00  0.00    +0.000 HD
BRANCH  20  22
ATOM     22  C   UNL     1       3.764   4.017  19.530  0.00  0.00    +0.000 A 
ATOM     23  C   UNL     1       2.810   5.011  19.751  0.00  0.00    +0.000 A 
ATOM     24  C   UNL     1       1.750   4.806  20.635  0.00  0.00    +0.000 A 
ATOM     25  C   UNL     1       1.625   3.592  21.299  0.00  0.00    +0.000 A 
ATOM     26  C   UNL     1       2.550   2.577  21.065  0.00  0.00    +0.000 A 
ATOM     27  C   UNL     1       3.615   2.783  20.177  0.00  0.00    +0.000 A 
ENDBRANCH  20  22
ENDBRANCH  17  18
ENDBRANCH  16  17
ENDBRANCH   4  16
TORSDOF 7
ENDMDL
MODEL 4
REMARK VINA RESULT:      -8.1      6.332      8.570
REMARK  Name = 
REMARK  9 active torsions:
REMARK  status: ('A' for Active; 'I' for Inactive)
REMARK    1  A    between atoms: C_1  and  C_2
REMARK    2  A    between atoms: C_4  and  C_5
REMARK    3  A    between atoms: C_7  and  O_8
REMARK    4  A    between atoms: O_8  and  C_9
REMARK    5  A    between atoms: C_9  and  C_10
REMARK    6  A    between atoms: C_13  and  S_14
REMARK    7  A    between atoms: S_14  and  C_15
REMARK    8  A    between atoms: C_15  and  C_16
REMARK    9  A    between atoms: N_18  and  C_19
REMARK                            x       y       z     vdW  Elec       q    Type
REMARK                         _______ _______ _______ _____ _____    ______ ____
ROOT
ATOM      1  C   UNL     1       3.597   3.958  17.265  0.00  0.00    +0.000 A 
ATOM      2  N   UNL     1       2.593   3.270  16.752  0.00  0.00    +0.000 NA
ATOM      3  N   UNL     1       1.980   2.632  17.805  0.00  0.00    +0.000 NA
ATOM      4  C   UNL     1       2.654   2.947  18.895  0.00  0.00    +0.000 A 
ATOM      5  O   UNL     1       3.707   3.789  18.623  0.00  0.00    +0.000 OA
ENDROOT
BRANCH   1   6
ATOM      6  C   UNL     1       4.639   4.765  16.573  0.00  0.00    +0.000 C 
BRANCH   6   7
ATOM      7  O   UNL     1       5.696   3.885  16.172  0.00  0.00    +0.000 OA
BRANCH   7  14
ATOM      8  C   UNL     1       8.710   5.943  12.797  0.00  0.00    +0.000 C 
ATOM      9  C   UNL     1       7.583   5.026  13.173  0.00  0.00    +0.000 A 
ATOM     10  C   UNL     1       6.885   4.310  12.193  0.00  0.00    +0.000 A 
ATOM     11  C   UNL     1       5.817   3.477  12.548  0.00  0.00    +0.000 A 
ATOM     12  C   UNL     1       5.063   2.708  11.501  0.00  0.00    +0.000 C 
ATOM     13  C   UNL     1       5.457   3.363  13.897  0.00  0.00    +0.000 A 
ATOM     14  C   UNL     1       6.153   4.052  14.890  0.00  0.00    +0.000 A 
ATOM     15  C   UNL     1       7.211   4.895  14.521  0.00  0.00    +0.000 A 
ENDBRANCH   7  14
ENDBRANCH   6   7
ENDBRANCH   1   6
BRANCH   4  16
ATOM     16  S   UNL     1       2.291   2.338  20.477  0.00  0.00    +0.000 S 
BRANCH  16  17
ATOM     17  C   UNL     1       2.416   3.853  21.476  0.00  0.00    +0.000 C 
BRANCH  17  18
ATOM     18  C   UNL     1       1.744   5.013  20.767  0.00  0.00    +0.000 C 
ATOM     19  O   UNL     1       0.558   4.918  20.444  0.00  0.00    +0.000 OA
ATOM     20  N   UNL     1       2.574   6.095  20.505  0.00  0.00    +0.000 N 
ATOM     21  H   UNL     1       3.576   5.957  20.628  0.00  0.00    +0.000 HD
BRANCH  20  22
ATOM     22  C   UNL     1       2.183   7.271  19.823  0.00  0.00    +0.000 A 
ATOM     23  C   UNL     1       1.443   8.284  20.435  0.00  0.00    +0.000 A 
ATOM     24  C   UNL     1       1.025   9.403  19.714  0.00  0.00    +0.000 A 
ATOM     25  C   UNL     1       1.358   9.528  18.371  0.00  0.00    +0.000 A 
ATOM     26  C   UNL     1       2.125   8.541  17.754  0.00  0.00    +0.000 A 
ATOM     27  C   UNL     1       2.545   7.417  18.478  0.00  0.00    +0.000 A 
ENDBRANCH  20  22
ENDBRANCH  17  18
ENDBRANCH  16  17
ENDBRANCH   4  16
TORSDOF 7
ENDMDL
MODEL 5
REMARK VINA RESULT:      -8.0      4.885      7.528
REMARK  Name = 
REMARK  9 active torsions:
REMARK  status: ('A' for Active; 'I' for Inactive)
REMARK    1  A    between atoms: C_1  and  C_2
REMARK    2  A    between atoms: C_4  and  C_5
REMARK    3  A    between atoms: C_7  and  O_8
REMARK    4  A    between atoms: O_8  and  C_9
REMARK    5  A    between atoms: C_9  and  C_10
REMARK    6  A    between atoms: C_13  and  S_14
REMARK    7  A    between atoms: S_14  and  C_15
REMARK    8  A    between atoms: C_15  and  C_16
REMARK    9  A    between atoms: N_18  and  C_19
REMARK                            x       y       z     vdW  Elec       q    Type
REMARK                         _______ _______ _______ _____ _____    ______ ____
ROOT
ATOM      1  C   UNL     1       3.597   4.850  19.423  0.00  0.00    +0.000 A 
ATOM      2  N   UNL     1       4.020   3.622  19.661  0.00  0.00    +0.000 NA
ATOM      3  N   UNL     1       5.385   3.639  19.485  0.00  0.00    +0.000 NA
ATOM      4  C   UNL     1       5.714   4.866  19.131  0.00  0.00    +0.000 A 
ATOM      5  O   UNL     1       4.619   5.695  19.066  0.00  0.00    +0.000 OA
ENDROOT
BRANCH   1   6
ATOM      6  C   UNL     1       2.207   5.379  19.391  0.00  0.00    +0.000 C 
BRANCH   6   7
ATOM      7  O   UNL     1       1.943   6.026  20.641  0.00  0.00    +0.000 OA
BRANCH   7  14
ATOM      8  C   UNL     1      -0.370  10.056  22.410  0.00  0.00    +0.000 C 
ATOM      9  C   UNL     1       0.427   9.351  21.350  0.00  0.00    +0.000 A 
ATOM     10  C   UNL     1       0.773  10.006  20.162  0.00  0.00    +0.000 A 
ATOM     11  C   UNL     1       1.493   9.334  19.166  0.00  0.00    +0.000 A 
ATOM     12  C   UNL     1       1.867  10.029  17.889  0.00  0.00    +0.000 C 
ATOM     13  C   UNL     1       1.868   7.999  19.374  0.00  0.00    +0.000 A 
ATOM     14  C   UNL     1       1.549   7.338  20.559  0.00  0.00    +0.000 A 
ATOM     15  C   UNL     1       0.815   8.015  21.543  0.00  0.00    +0.000 A 
ENDBRANCH   7  14
ENDBRANCH   6   7
ENDBRANCH   1   6
BRANCH   4  16
ATOM     16  S   UNL     1       7.328   5.370  18.745  0.00  0.00    +0.000 S 
BRANCH  16  17
ATOM     17  C   UNL     1       7.004   6.817  17.691  0.00  0.00    +0.000 C 
BRANCH  17  18
ATOM     18  C   UNL     1       6.547   6.378  16.313  0.00  0.00    +0.000 C 
ATOM     19  O   UNL     1       5.492   6.822  15.857  0.00  0.00    +0.000 OA
ATOM     20  N   UNL     1       7.374   5.450  15.694  0.00  0.00    +0.000 N 
ATOM     21  H   UNL     1       8.090   5.005  16.267  0.00  0.00    +0.000 HD
BRANCH  20  22
ATOM     22  C   UNL     1       7.134   4.867  14.428  0.00  0.00    +0.000 A 
ATOM     23  C   UNL     1       7.794   5.285  13.271  0.00  0.00    +0.000 A 
ATOM     24  C   UNL     1       7.489   4.726  12.030  0.00  0.00    +0.000 A 
ATOM     25  C   UNL     1       6.527   3.729  11.934  0.00  0.00    +0.000 A 
ATOM     26  C   UNL     1       5.882   3.278  13.084  0.00  0.00    +0.000 A 
ATOM     27  C   UNL     1       6.189   3.838  14.332  0.00  0.00    +0.000 A 
ENDBRANCH  20  22
ENDBRANCH  17  18
ENDBRANCH  16  17
ENDBRANCH   4  16
TORSDOF 7
ENDMDL
MODEL 6
REMARK VINA RESULT:      -8.0      1.866      2.387
REMARK  Name = 
REMARK  9 active torsions:
REMARK  status: ('A' for Active; 'I' for Inactive)
REMARK    1  A    between atoms: C_1  and  C_2
REMARK    2  A    between atoms: C_4  and  C_5
REMARK    3  A    between atoms: C_7  and  O_8
REMARK    4  A    between atoms: O_8  and  C_9
REMARK    5  A    between atoms: C_9  and  C_10
REMARK    6  A    between atoms: C_13  and  S_14
REMARK    7  A    between atoms: S_14  and  C_15
REMARK    8  A    between atoms: C_15  and  C_16
REMARK    9  A    between atoms: N_18  and  C_19
REMARK                            x       y       z     vdW  Elec       q    Type
REMARK                         _______ _______ _______ _____ _____    ______ ____
ROOT
ATOM      1  C   UNL     1       7.822   7.228  17.710  0.00  0.00    +0.000 A 
ATOM      2  N   UNL     1       7.810   6.485  18.802  0.00  0.00    +0.000 NA
ATOM      3  N   UNL     1       7.432   5.222  18.409  0.00  0.00    +0.000 NA
ATOM      4  C   UNL     1       7.214   5.269  17.109  0.00  0.00    +0.000 A 
ATOM      5  O   UNL     1       7.440   6.524  16.595  0.00  0.00    +0.000 OA
ENDROOT
BRANCH   1   6
ATOM      6  C   UNL     1       8.081   8.686  17.564  0.00  0.00    +0.000 C 
BRANCH   6   7
ATOM      7  O   UNL     1       8.617   9.172  18.800  0.00  0.00    +0.000 OA
BRANCH   7  14
ATOM      8  C   UNL     1      12.333  12.364  19.650  0.00  0.00    +0.000 C 
ATOM      9  C   UNL     1      10.954  12.049  19.145  0.00  0.00    +0.000 A 
ATOM     10  C   UNL     1      10.134  13.058  18.627  0.00  0.00    +0.000 A 
ATOM     11  C   UNL     1       8.840  12.762  18.182  0.00  0.00    +0.000 A 
ATOM     12  C   UNL     1       7.954  13.840  17.627  0.00  0.00    +0.000 C 
ATOM     13  C   UNL     1       8.375  11.442  18.256  0.00  0.00    +0.000 A 
ATOM     14  C   UNL     1       9.186  10.420  18.750  0.00  0.00    +0.000 A 
ATOM     15  C   UNL     1      10.474  10.731  19.207  0.00  0.00    +0.000 A 
ENDBRANCH   7  14
ENDBRANCH   6   7
ENDBRANCH   1   6
BRANCH   4  16
ATOM     16  S   UNL     1       6.663   3.925  16.163  0.00  0.00    +0.000 S 
BRANCH  16  17
ATOM     17  C   UNL     1       4.971   4.451  15.752  0.00  0.00    +0.000 C 
BRANCH  17  18
ATOM     18  C   UNL     1       4.121   4.529  17.006  0.00  0.00    +0.000 C 
ATOM     19  O   UNL     1       3.965   5.617  17.563  0.00  0.00    +0.000 OA
ATOM     20  N   UNL     1       3.616   3.311  17.442  0.00  0.00    +0.000 N 
ATOM     21  H   UNL     1       3.998   2.466  17.019  0.00  0.00    +0.000 HD
BRANCH  20  22
ATOM     22  C   UNL     1       2.831   3.128  18.604  0.00  0.00    +0.000 A 
ATOM     23  C   UNL     1       1.436   3.140  18.579  0.00  0.00    +0.000 A 
ATOM     24  C   UNL     1       0.696   3.015  19.755  0.00  0.00    +0.000 A 
ATOM     25  C   UNL     1       1.347   2.860  20.973  0.00  0.00    +0.000 A 
ATOM     26  C   UNL     1       2.739   2.812  21.011  0.00  0.00    +0.000 A 
ATOM     27  C   UNL     1       3.483   2.938  19.830  0.00  0.00    +0.000 A 
ENDBRANCH  20  22
ENDBRANCH  17  18
ENDBRANCH  16  17
ENDBRANCH   4  16
TORSDOF 7
ENDMDL
MODEL 7
REMARK VINA RESULT:      -8.0      0.322      1.704
REMARK  Name = 
REMARK  9 active torsions:
REMARK  status: ('A' for Active; 'I' for Inactive)
REMARK    1  A    between atoms: C_1  and  C_2
REMARK    2  A    between atoms: C_4  and  C_5
REMARK    3  A    between atoms: C_7  and  O_8
REMARK    4  A    between atoms: O_8  and  C_9
REMARK    5  A    between atoms: C_9  and  C_10
REMARK    6  A    between atoms: C_13  and  S_14
REMARK    7  A    between atoms: S_14  and  C_15
REMARK    8  A    between atoms: C_15  and  C_16
REMARK    9  A    between atoms: N_18  and  C_19
REMARK                            x       y       z     vdW  Elec       q    Type
REMARK                         _______ _______ _______ _____ _____    ______ ____
ROOT
ATOM      1  C   UNL     1       8.225   8.839  18.122  0.00  0.00    +0.000 A 
ATOM      2  N   UNL     1       7.235   8.774  17.250  0.00  0.00    +0.000 NA
ATOM      3  N   UNL     1       6.834   7.459  17.215  0.00  0.00    +0.000 NA
ATOM      4  C   UNL     1       7.612   6.793  18.046  0.00  0.00    +0.000 A 
ATOM      5  O   UNL     1       8.531   7.613  18.658  0.00  0.00    +0.000 OA
ENDROOT
BRANCH   1   6
ATOM      6  C   UNL     1       9.080  10.000  18.494  0.00  0.00    +0.000 C 
BRANCH   6   7
ATOM      7  O   UNL     1       9.070  10.125  19.920  0.00  0.00    +0.000 OA
BRANCH   7  14
ATOM      8  C   UNL     1      11.544  14.435  19.766  0.00  0.00    +0.000 C 
ATOM      9  C   UNL     1      10.563  13.499  20.412  0.00  0.00    +0.000 A 
ATOM     10  C   UNL     1       9.935  13.841  21.616  0.00  0.00    +0.000 A 
ATOM     11  C   UNL     1       9.042  12.952  22.228  0.00  0.00    +0.000 A 
ATOM     12  C   UNL     1       8.367  13.312  23.520  0.00  0.00    +0.000 C 
ATOM     13  C   UNL     1       8.780  11.717  21.619  0.00  0.00    +0.000 A 
ATOM     14  C   UNL     1       9.381  11.368  20.409  0.00  0.00    +0.000 A 
ATOM     15  C   UNL     1      10.284  12.259  19.814  0.00  0.00    +0.000 A 
ENDBRANCH   7  14
ENDBRANCH   6   7
ENDBRANCH   1   6
BRANCH   4  16
ATOM     16  S   UNL     1       7.526   5.081  18.305  0.00  0.00    +0.000 S 
BRANCH  16  17
ATOM     17  C   UNL     1       6.522   4.559  16.881  0.00  0.00    +0.000 C 
BRANCH  17  18
ATOM     18  C   UNL     1       5.054   4.495  17.261  0.00  0.00    +0.000 C 
ATOM     19  O   UNL     1       4.267   5.305  16.768  0.00  0.00    +0.000 OA
ATOM     20  N   UNL     1       4.738   3.518  18.197  0.00  0.00    +0.000 N 
ATOM     21  H   UNL     1       5.511   3.067  18.683  0.00  0.00    +0.000 HD
BRANCH  20  22
ATOM     22  C   UNL     1       3.448   3.296  18.731  0.00  0.00    +0.000 A 
ATOM     23  C   UNL     1       2.557   2.370  18.185  0.00  0.00    +0.000 A 
ATOM     24  C   UNL     1       1.271   2.219  18.703  0.00  0.00    +0.000 A 
ATOM     25  C   UNL     1       0.865   2.985  19.789  0.00  0.00    +0.000 A 
ATOM     26  C   UNL     1       1.753   3.890  20.367  0.00  0.00    +0.000 A 
ATOM     27  C   UNL     1       3.046   4.042  19.847  0.00  0.00    +0.000 A 
ENDBRANCH  20  22
ENDBRANCH  17  18
ENDBRANCH  16  17
ENDBRANCH   4  16
TORSDOF 7
ENDMDL
MODEL 8
REMARK VINA RESULT:      -7.9      4.774      7.702
REMARK  Name = 
REMARK  9 active torsions:
REMARK  status: ('A' for Active; 'I' for Inactive)
REMARK    1  A    between atoms: C_1  and  C_2
REMARK    2  A    between atoms: C_4  and  C_5
REMARK    3  A    between atoms: C_7  and  O_8
REMARK    4  A    between atoms: O_8  and  C_9
REMARK    5  A    between atoms: C_9  and  C_10
REMARK    6  A    between atoms: C_13  and  S_14
REMARK    7  A    between atoms: S_14  and  C_15
REMARK    8  A    between atoms: C_15  and  C_16
REMARK    9  A    between atoms: N_18  and  C_19
REMARK                            x       y       z     vdW  Elec       q    Type
REMARK                         _______ _______ _______ _____ _____    ______ ____
ROOT
ATOM      1  C   UNL     1       3.449   4.617  18.970  0.00  0.00    +0.000 A 
ATOM      2  N   UNL     1       3.786   3.851  17.947  0.00  0.00    +0.000 NA
ATOM      3  N   UNL     1       5.143   3.998  17.781  0.00  0.00    +0.000 NA
ATOM      4  C   UNL     1       5.555   4.858  18.693  0.00  0.00    +0.000 A 
ATOM      5  O   UNL     1       4.523   5.300  19.486  0.00  0.00    +0.000 OA
ENDROOT
BRANCH   1   6
ATOM      6  C   UNL     1       2.101   4.900  19.533  0.00  0.00    +0.000 C 
BRANCH   6   7
ATOM      7  O   UNL     1       2.250   5.845  20.599  0.00  0.00    +0.000 OA
BRANCH   7  14
ATOM      8  C   UNL     1       1.857   9.953  17.826  0.00  0.00    +0.000 C 
ATOM      9  C   UNL     1       1.531   9.155  19.056  0.00  0.00    +0.000 A 
ATOM     10  C   UNL     1       0.728   9.697  20.067  0.00  0.00    +0.000 A 
ATOM     11  C   UNL     1       0.450   8.958  21.224  0.00  0.00    +0.000 A 
ATOM     12  C   UNL     1      -0.409   9.533  22.313  0.00  0.00    +0.000 C 
ATOM     13  C   UNL     1       0.980   7.667  21.356  0.00  0.00    +0.000 A 
ATOM     14  C   UNL     1       1.764   7.103  20.349  0.00  0.00    +0.000 A 
ATOM     15  C   UNL     1       2.049   7.858  19.203  0.00  0.00    +0.000 A 
ENDBRANCH   7  14
ENDBRANCH   6   7
ENDBRANCH   1   6
BRANCH   4  16
ATOM     16  S   UNL     1       7.192   5.407  18.847  0.00  0.00    +0.000 S 
BRANCH  16  17
ATOM     17  C   UNL     1       7.198   6.826  17.709  0.00  0.00    +0.000 C 
BRANCH  17  18
ATOM     18  C   UNL     1       6.679   6.413  16.344  0.00  0.00    +0.000 C 
ATOM     19  O   UNL     1       5.648   6.929  15.910  0.00  0.00    +0.000 OA
ATOM     20  N   UNL     1       7.425   5.426  15.713  0.00  0.00    +0.000 N 
ATOM     21  H   UNL     1       8.121   4.935  16.272  0.00  0.00    +0.000 HD
BRANCH  20  22
ATOM     22  C   UNL     1       7.115   4.855  14.456  0.00  0.00    +0.000 A 
ATOM     23  C   UNL     1       7.775   5.220  13.282  0.00  0.00    +0.000 A 
ATOM     24  C   UNL     1       7.402   4.679  12.051  0.00  0.00    +0.000 A 
ATOM     25  C   UNL     1       6.371   3.750  11.985  0.00  0.00    +0.000 A 
ATOM     26  C   UNL     1       5.725   3.350  13.152  0.00  0.00    +0.000 A 
ATOM     27  C   UNL     1       6.099   3.894  14.389  0.00  0.00    +0.000 A 
ENDBRANCH  20  22
ENDBRANCH  17  18
ENDBRANCH  16  17
ENDBRANCH   4  16
TORSDOF 7
ENDMDL
MODEL 9
REMARK VINA RESULT:      -7.7      6.261      8.490
REMARK  Name = 
REMARK  9 active torsions:
REMARK  status: ('A' for Active; 'I' for Inactive)
REMARK    1  A    between atoms: C_1  and  C_2
REMARK    2  A    between atoms: C_4  and  C_5
REMARK    3  A    between atoms: C_7  and  O_8
REMARK    4  A    between atoms: O_8  and  C_9
REMARK    5  A    between atoms: C_9  and  C_10
REMARK    6  A    between atoms: C_13  and  S_14
REMARK    7  A    between atoms: S_14  and  C_15
REMARK    8  A    between atoms: C_15  and  C_16
REMARK    9  A    between atoms: N_18  and  C_19
REMARK                            x       y       z     vdW  Elec       q    Type
REMARK                         _______ _______ _______ _____ _____    ______ ____
ROOT
ATOM      1  C   UNL     1       4.158   3.478  17.594  0.00  0.00    +0.000 A 
ATOM      2  N   UNL     1       3.174   2.834  16.991  0.00  0.00    +0.000 NA
ATOM      3  N   UNL     1       2.357   2.353  17.987  0.00  0.00    +0.000 NA
ATOM      4  C   UNL     1       2.896   2.709  19.137  0.00  0.00    +0.000 A 
ATOM      5  O   UNL     1       4.055   3.427  18.962  0.00  0.00    +0.000 OA
ENDROOT
BRANCH   1   6
ATOM      6  C   UNL     1       5.362   4.124  17.005  0.00  0.00    +0.000 C 
BRANCH   6   7
ATOM      7  O   UNL     1       4.954   4.865  15.849  0.00  0.00    +0.000 OA
BRANCH   7  14
ATOM      8  C   UNL     1       8.853   5.818  12.915  0.00  0.00    +0.000 C 
ATOM      9  C   UNL     1       7.580   5.082  13.220  0.00  0.00    +0.000 A 
ATOM     10  C   UNL     1       7.052   4.159  12.309  0.00  0.00    +0.000 A 
ATOM     11  C   UNL     1       5.850   3.496  12.587  0.00  0.00    +0.000 A 
ATOM     12  C   UNL     1       5.278   2.506  11.614  0.00  0.00    +0.000 C 
ATOM     13  C   UNL     1       5.184   3.762  13.791  0.00  0.00    +0.000 A 
ATOM     14  C   UNL     1       5.706   4.664  14.719  0.00  0.00    +0.000 A 
ATOM     15  C   UNL     1       6.901   5.333  14.423  0.00  0.00    +0.000 A 
ENDBRANCH   7  14
ENDBRANCH   6   7
ENDBRANCH   1   6
BRANCH   4  16
ATOM     16  S   UNL     1       2.252   2.283  20.690  0.00  0.00    +0.000 S 
BRANCH  16  17
ATOM     17  C   UNL     1       2.406   3.862  21.581  0.00  0.00    +0.000 C 
BRANCH  17  18
ATOM     18  C   UNL     1       1.762   4.983  20.788  0.00  0.00    +0.000 C 
ATOM     19  O   UNL     1       0.581   4.882  20.449  0.00  0.00    +0.000 OA
ATOM     20  N   UNL     1       2.611   6.036  20.475  0.00  0.00    +0.000 N 
ATOM     21  H   UNL     1       3.609   5.894  20.624  0.00  0.00    +0.000 HD
BRANCH  20  22
ATOM     22  C   UNL     1       2.248   7.171  19.713  0.00  0.00    +0.000 A 
ATOM     23  C   UNL     1       2.602   7.320  18.371  0.00  0.00    +0.000 A 
ATOM     24  C   UNL     1       2.277   8.481  17.668  0.00  0.00    +0.000 A 
ATOM     25  C   UNL     1       1.579   9.502  18.298  0.00  0.00    +0.000 A 
ATOM     26  C   UNL     1       1.189   9.356  19.628  0.00  0.00    +0.000 A 
ATOM     27  C   UNL     1       1.515   8.190  20.335  0.00  0.00    +0.000 A 
ENDBRANCH  20  22
ENDBRANCH  17  18
ENDBRANCH  16  17
ENDBRANCH   4  16
TORSDOF 7
ENDMDL
