MODEL 1
REMARK VINA RESULT:      -8.0      0.000      0.000
REMARK  Name = 
REMARK  9 active torsions:
REMARK  status: ('A' for Active; 'I' for Inactive)
REMARK    1  A    between atoms: C_1  and  C_2
REMARK    2  A    between atoms: N_4  and  C_5
REMARK    3  A    between atoms: C_5  and  C_6
REMARK    4  A    between atoms: C_5  and  C_7
REMARK    5  A    between atoms: C_10  and  O_11
REMARK    6  A    between atoms: O_11  and  C_12
REMARK    7  A    between atoms: C_20  and  N_21
REMARK    8  A    between atoms: C_24  and  C_25
REMARK    9  A    between atoms: C_24  and  O_26
REMARK                            x       y       z     vdW  Elec       q    Type
REMARK                         _______ _______ _______ _____ _____    ______ ____
ROOT
ATOM      1  C   UNL     1       0.349  10.010  19.639  0.00  0.00    +0.000 C 
ATOM      2  C   UNL     1       1.228  11.227  19.353  0.00  0.00    +0.000 C 
ATOM      3  C   UNL     1       0.856  12.255  20.411  0.00  0.00    +0.000 C 
ATOM      4  N   UNL     1      -0.518  11.947  20.757  0.00  0.00    +0.000 N 
ATOM      5  C   UNL     1      -1.360  12.777  21.466  0.00  0.00    +0.000 A 
ATOM      6  C   UNL     1      -0.913  14.031  21.884  0.00  0.00    +0.000 A 
ATOM      7  C   UNL     1      -1.765  14.897  22.546  0.00  0.00    +0.000 A 
ATOM      8  C   UNL     1      -3.065  14.490  22.788  0.00  0.00    +0.000 A 
ATOM      9  C   UNL     1      -3.499  13.234  22.369  0.00  0.00    +0.000 A 
ATOM     10  N   UNL     1      -2.641  12.390  21.726  0.00  0.00    +0.000 NA
ATOM     11  C   UNL     1      -0.864  10.572  20.427  0.00  0.00    +0.000 C 
ENDROOT
BRANCH   9  12
ATOM     12  N   UNL     1      -4.811  12.862  22.594  0.00  0.00    +0.000 N 
ATOM     13  C   UNL     1      -5.748  12.577  21.527  0.00  0.00    +0.000 C 
ATOM     14  C   UNL     1      -7.072  13.129  22.063  0.00  0.00    +0.000 C 
ATOM     15  C   UNL     1      -6.999  12.860  23.569  0.00  0.00    +0.000 C 
ATOM     16  C   UNL     1      -7.843  13.835  24.385  0.00  0.00    +0.000 C 
ATOM     17  C   UNL     1      -5.490  12.983  23.888  0.00  0.00    +0.000 C 
BRANCH  15  18
ATOM     18  O   UNL     1      -7.460  11.531  23.839  0.00  0.00    +0.000 OA
ATOM     19  H   UNL     1      -6.690  10.989  24.080  0.00  0.00    +0.000 HD
ENDBRANCH  15  18
ENDBRANCH   9  12
BRANCH   1  20
ATOM     20  O   UNL     1       1.131   9.052  20.377  0.00  0.00    +0.000 OA
BRANCH  20  24
ATOM     21  C   UNL     1       3.237   6.207  18.118  0.00  0.00    +0.000 A 
ATOM     22  C   UNL     1       2.854   5.957  19.447  0.00  0.00    +0.000 A 
ATOM     23  C   UNL     1       2.164   6.932  20.183  0.00  0.00    +0.000 A 
ATOM     24  C   UNL     1       1.854   8.169  19.611  0.00  0.00    +0.000 A 
ATOM     25  C   UNL     1       2.239   8.422  18.297  0.00  0.00    +0.000 A 
ATOM     26  C   UNL     1       2.924   7.456  17.564  0.00  0.00    +0.000 A 
BRANCH  21  27
ATOM     27  C   UNL     1       3.919   5.143  17.276  0.00  0.00    +0.000 C 
ATOM     28  C   UNL     1       3.122   3.834  17.284  0.00  0.00    +0.000 C 
BRANCH  27  32
ATOM     29  C   UNL     1       7.642   5.208  17.996  0.00  0.00    +0.000 C 
ATOM     30  C   UNL     1       6.359   5.638  17.336  0.00  0.00    +0.000 C 
ATOM     31  O   UNL     1       6.310   6.524  16.492  0.00  0.00    +0.000 OA
ATOM     32  N   UNL     1       5.269   4.935  17.782  0.00  0.00    +0.000 N 
ATOM     33  H   UNL     1       5.409   4.216  18.479  0.00  0.00    +0.000 HD
ENDBRANCH  27  32
ENDBRANCH  21  27
ENDBRANCH  20  24
ENDBRANCH   1  20
TORSDOF 6
ENDMDL
MODEL 2
REMARK VINA RESULT:      -7.8      1.378      1.946
REMARK  Name = 
REMARK  9 active torsions:
REMARK  status: ('A' for Active; 'I' for Inactive)
REMARK    1  A    between atoms: C_1  and  C_2
REMARK    2  A    between atoms: N_4  and  C_5
REMARK    3  A    between atoms: C_5  and  C_6
REMARK    4  A    between atoms: C_5  and  C_7
REMARK    5  A    between atoms: C_10  and  O_11
REMARK    6  A    between atoms: O_11  and  C_12
REMARK    7  A    between atoms: C_20  and  N_21
REMARK    8  A    between atoms: C_24  and  C_25
REMARK    9  A    between atoms: C_24  and  O_26
REMARK                            x       y       z     vdW  Elec       q    Type
REMARK                         _______ _______ _______ _____ _____    ______ ____
ROOT
ATOM      1  C   UNL     1       0.120  10.002  19.274  0.00  0.00    +0.000 C 
ATOM      2  C   UNL     1       0.749  11.187  18.543  0.00  0.00    +0.000 C 
ATOM      3  C   UNL     1       0.317  12.421  19.320  0.00  0.00    +0.000 C 
ATOM      4  N   UNL     1      -0.945  12.049  19.930  0.00  0.00    +0.000 N 
ATOM      5  C   UNL     1      -1.841  12.931  20.498  0.00  0.00    +0.000 A 
ATOM      6  C   UNL     1      -1.571  14.300  20.487  0.00  0.00    +0.000 A 
ATOM      7  C   UNL     1      -2.487  15.201  21.001  0.00  0.00    +0.000 A 
ATOM      8  C   UNL     1      -3.669  14.714  21.529  0.00  0.00    +0.000 A 
ATOM      9  C   UNL     1      -3.926  13.344  21.538  0.00  0.00    +0.000 A 
ATOM     10  N   UNL     1      -3.006  12.470  21.035  0.00  0.00    +0.000 NA
ATOM     11  C   UNL     1      -1.086  10.604  20.043  0.00  0.00    +0.000 C 
ENDROOT
BRANCH   9  12
ATOM     12  N   UNL     1      -5.127  12.885  22.041  0.00  0.00    +0.000 N 
ATOM     13  C   UNL     1      -6.203  12.397  21.202  0.00  0.00    +0.000 C 
ATOM     14  C   UNL     1      -7.462  12.886  21.925  0.00  0.00    +0.000 C 
ATOM     15  C   UNL     1      -7.092  12.797  23.408  0.00  0.00    +0.000 C 
ATOM     16  C   UNL     1      -7.878  13.779  24.273  0.00  0.00    +0.000 C 
ATOM     17  C   UNL     1      -5.573  13.091  23.422  0.00  0.00    +0.000 C 
BRANCH  15  18
ATOM     18  O   UNL     1      -7.350  11.472  23.886  0.00  0.00    +0.000 OA
ATOM     19  H   UNL     1      -8.214  11.475  24.332  0.00  0.00    +0.000 HD
ENDBRANCH  15  18
ENDBRANCH   9  12
BRANCH   1  20
ATOM     20  O   UNL     1       1.121   9.415  20.127  0.00  0.00    +0.000 OA
BRANCH  20  24
ATOM     21  C   UNL     1       3.449   6.417  18.331  0.00  0.00    +0.000 A 
ATOM     22  C   UNL     1       3.180   7.632  17.678  0.00  0.00    +0.000 A 
ATOM     23  C   UNL     1       2.386   8.611  18.296  0.00  0.00    +0.000 A 
ATOM     24  C   UNL     1       1.843   8.390  19.565  0.00  0.00    +0.000 A 
ATOM     25  C   UNL     1       2.103   7.184  20.211  0.00  0.00    +0.000 A 
ATOM     26  C   UNL     1       2.890   6.211  19.599  0.00  0.00    +0.000 A 
BRANCH  21  27
ATOM     27  C   UNL     1       4.364   5.372  17.716  0.00  0.00    +0.000 C 
ATOM     28  C   UNL     1       4.795   5.776  16.301  0.00  0.00    +0.000 C 
BRANCH  27  32
ATOM     29  C   UNL     1       3.169   1.819  18.291  0.00  0.00    +0.000 C 
ATOM     30  C   UNL     1       4.016   3.043  18.525  0.00  0.00    +0.000 C 
ATOM     31  O   UNL     1       4.909   3.084  19.361  0.00  0.00    +0.000 OA
ATOM     32  N   UNL     1       3.675   4.090  17.706  0.00  0.00    +0.000 N 
ATOM     33  H   UNL     1       2.925   3.959  17.040  0.00  0.00    +0.000 HD
ENDBRANCH  27  32
ENDBRANCH  21  27
ENDBRANCH  20  24
ENDBRANCH   1  20
TORSDOF 6
ENDMDL
MODEL 3
REMARK VINA RESULT:      -7.8      4.664      8.360
REMARK  Name = 
REMARK  9 active torsions:
REMARK  status: ('A' for Active; 'I' for Inactive)
REMARK    1  A    between atoms: C_1  and  C_2
REMARK    2  A    between atoms: N_4  and  C_5
REMARK    3  A    between atoms: C_5  and  C_6
REMARK    4  A    between atoms: C_5  and  C_7
REMARK    5  A    between atoms: C_10  and  O_11
REMARK    6  A    between atoms: O_11  and  C_12
REMARK    7  A    between atoms: C_20  and  N_21
REMARK    8  A    between atoms: C_24  and  C_25
REMARK    9  A    between atoms: C_24  and  O_26
REMARK                            x       y       z     vdW  Elec       q    Type
REMARK                         _______ _______ _______ _____ _____    ______ ____
ROOT
ATOM      1  C   UNL     1       0.457  11.734  20.036  0.00  0.00    +0.000 C 
ATOM      2  C   UNL     1      -0.588  12.847  19.975  0.00  0.00    +0.000 C 
ATOM      3  C   UNL     1       0.011  13.920  19.079  0.00  0.00    +0.000 C 
ATOM      4  N   UNL     1       1.445  13.765  19.227  0.00  0.00    +0.000 N 
ATOM      5  C   UNL     1       2.387  14.688  18.822  0.00  0.00    +0.000 A 
ATOM      6  C   UNL     1       1.979  15.891  18.245  0.00  0.00    +0.000 A 
ATOM      7  C   UNL     1       2.910  16.850  17.888  0.00  0.00    +0.000 A 
ATOM      8  C   UNL     1       4.250  16.588  18.111  0.00  0.00    +0.000 A 
ATOM      9  C   UNL     1       4.645  15.380  18.684  0.00  0.00    +0.000 A 
ATOM     10  N   UNL     1       3.713  14.443  19.021  0.00  0.00    +0.000 NA
ATOM     11  C   UNL     1       1.800  12.431  19.690  0.00  0.00    +0.000 C 
ENDROOT
BRANCH   9  12
ATOM     12  N   UNL     1       5.986  15.154  18.926  0.00  0.00    +0.000 N 
ATOM     13  C   UNL     1       6.594  15.311  20.232  0.00  0.00    +0.000 C 
ATOM     14  C   UNL     1       7.979  15.879  19.911  0.00  0.00    +0.000 C 
ATOM     15  C   UNL     1       8.358  15.198  18.592  0.00  0.00    +0.000 C 
ATOM     16  C   UNL     1       9.338  16.023  17.762  0.00  0.00    +0.000 C 
ATOM     17  C   UNL     1       6.999  15.012  17.876  0.00  0.00    +0.000 C 
BRANCH  15  18
ATOM     18  O   UNL     1       8.958  13.928  18.865  0.00  0.00    +0.000 OA
ATOM     19  H   UNL     1       9.721  14.075  19.450  0.00  0.00    +0.000 HD
ENDBRANCH  15  18
ENDBRANCH   9  12
BRANCH   1  20
ATOM     20  O   UNL     1       0.077  10.706  19.103  0.00  0.00    +0.000 OA
BRANCH  20  24
ATOM     21  C   UNL     1       2.421   7.223  19.198  0.00  0.00    +0.000 A 
ATOM     22  C   UNL     1       1.793   7.721  20.353  0.00  0.00    +0.000 A 
ATOM     23  C   UNL     1       1.027   8.896  20.295  0.00  0.00    +0.000 A 
ATOM     24  C   UNL     1       0.884   9.594  19.092  0.00  0.00    +0.000 A 
ATOM     25  C   UNL     1       1.511   9.106  17.949  0.00  0.00    +0.000 A 
ATOM     26  C   UNL     1       2.272   7.940  18.004  0.00  0.00    +0.000 A 
BRANCH  21  27
ATOM     27  C   UNL     1       3.193   5.916  19.217  0.00  0.00    +0.000 C 
ATOM     28  C   UNL     1       4.228   5.867  18.087  0.00  0.00    +0.000 C 
BRANCH  27  32
ATOM     29  C   UNL     1       0.879   2.968  19.801  0.00  0.00    +0.000 C 
ATOM     30  C   UNL     1       1.826   4.075  20.187  0.00  0.00    +0.000 C 
ATOM     31  O   UNL     1       2.168   4.283  21.343  0.00  0.00    +0.000 OA
ATOM     32  N   UNL     1       2.251   4.810  19.110  0.00  0.00    +0.000 N 
ATOM     33  H   UNL     1       1.917   4.559  18.189  0.00  0.00    +0.000 HD
ENDBRANCH  27  32
ENDBRANCH  21  27
ENDBRANCH  20  24
ENDBRANCH   1  20
TORSDOF 6
ENDMDL
MODEL 4
REMARK VINA RESULT:      -7.8      4.450     10.667
REMARK  Name = 
REMARK  9 active torsions:
REMARK  status: ('A' for Active; 'I' for Inactive)
REMARK    1  A    between atoms: C_1  and  C_2
REMARK    2  A    between atoms: N_4  and  C_5
REMARK    3  A    between atoms: C_5  and  C_6
REMARK    4  A    between atoms: C_5  and  C_7
REMARK    5  A    between atoms: C_10  and  O_11
REMARK    6  A    between atoms: O_11  and  C_12
REMARK    7  A    between atoms: C_20  and  N_21
REMARK    8  A    between atoms: C_24  and  C_25
REMARK    9  A    between atoms: C_24  and  O_26
REMARK                            x       y       z     vdW  Elec       q    Type
REMARK                         _______ _______ _______ _____ _____    ______ ____
ROOT
ATOM      1  C   UNL     1       0.734  10.831  19.987  0.00  0.00    +0.000 C 
ATOM      2  C   UNL     1      -0.397  10.055  20.660  0.00  0.00    +0.000 C 
ATOM      3  C   UNL     1       0.223   8.741  21.111  0.00  0.00    +0.000 C 
ATOM      4  N   UNL     1       1.315   8.512  20.184  0.00  0.00    +0.000 N 
ATOM      5  C   UNL     1       1.985   7.317  20.029  0.00  0.00    +0.000 A 
ATOM      6  C   UNL     1       1.604   6.203  20.780  0.00  0.00    +0.000 A 
ATOM      7  C   UNL     1       2.228   4.983  20.593  0.00  0.00    +0.000 A 
ATOM      8  C   UNL     1       3.239   4.893  19.653  0.00  0.00    +0.000 A 
ATOM      9  C   UNL     1       3.614   6.013  18.913  0.00  0.00    +0.000 A 
ATOM     10  N   UNL     1       2.992   7.211  19.117  0.00  0.00    +0.000 NA
ATOM     11  C   UNL     1       1.757   9.748  19.553  0.00  0.00    +0.000 C 
ENDROOT
BRANCH   9  12
ATOM     12  N   UNL     1       4.604   5.892  17.957  0.00  0.00    +0.000 N 
ATOM     13  C   UNL     1       4.855   6.896  16.943  0.00  0.00    +0.000 C 
ATOM     14  C   UNL     1       5.234   6.067  15.713  0.00  0.00    +0.000 C 
ATOM     15  C   UNL     1       5.995   4.873  16.294  0.00  0.00    +0.000 C 
ATOM     16  C   UNL     1       5.921   3.635  15.405  0.00  0.00    +0.000 C 
ATOM     17  C   UNL     1       5.320   4.646  17.668  0.00  0.00    +0.000 C 
BRANCH  15  18
ATOM     18  O   UNL     1       7.373   5.222  16.465  0.00  0.00    +0.000 OA
ATOM     19  H   UNL     1       7.429   5.882  17.177  0.00  0.00    +0.000 HD
ENDBRANCH  15  18
ENDBRANCH   9  12
BRANCH   1  20
ATOM     20  O   UNL     1       1.258  11.780  20.936  0.00  0.00    +0.000 OA
BRANCH  20  24
ATOM     21  C   UNL     1       2.983  15.178  19.175  0.00  0.00    +0.000 A 
ATOM     22  C   UNL     1       2.054  14.382  18.484  0.00  0.00    +0.000 A 
ATOM     23  C   UNL     1       1.504  13.242  19.092  0.00  0.00    +0.000 A 
ATOM     24  C   UNL     1       1.878  12.877  20.389  0.00  0.00    +0.000 A 
ATOM     25  C   UNL     1       2.804  13.661  21.072  0.00  0.00    +0.000 A 
ATOM     26  C   UNL     1       3.351  14.792  20.470  0.00  0.00    +0.000 A 
BRANCH  21  27
ATOM     27  C   UNL     1       3.537  16.456  18.568  0.00  0.00    +0.000 C 
ATOM     28  C   UNL     1       2.864  16.771  17.228  0.00  0.00    +0.000 C 
BRANCH  27  32
ATOM     29  C   UNL     1       7.312  16.814  18.642  0.00  0.00    +0.000 C 
ATOM     30  C   UNL     1       5.888  17.157  18.994  0.00  0.00    +0.000 C 
ATOM     31  O   UNL     1       5.592  18.090  19.728  0.00  0.00    +0.000 OA
ATOM     32  N   UNL     1       4.978  16.315  18.408  0.00  0.00    +0.000 N 
ATOM     33  H   UNL     1       5.319  15.573  17.811  0.00  0.00    +0.000 HD
ENDBRANCH  27  32
ENDBRANCH  21  27
ENDBRANCH  20  24
ENDBRANCH   1  20
TORSDOF 6
ENDMDL
MODEL 5
REMARK VINA RESULT:      -7.8      4.314     11.069
REMARK  Name = 
REMARK  9 active torsions:
REMARK  status: ('A' for Active; 'I' for Inactive)
REMARK    1  A    between atoms: C_1  and  C_2
REMARK    2  A    between atoms: N_4  and  C_5
REMARK    3  A    between atoms: C_5  and  C_6
REMARK    4  A    between atoms: C_5  and  C_7
REMARK    5  A    between atoms: C_10  and  O_11
REMARK    6  A    between atoms: O_11  and  C_12
REMARK    7  A    between atoms: C_20  and  N_21
REMARK    8  A    between atoms: C_24  and  C_25
REMARK    9  A    between atoms: C_24  and  O_26
REMARK                            x       y       z     vdW  Elec       q    Type
REMARK                         _______ _______ _______ _____ _____    ______ ____
ROOT
ATOM      1  C   UNL     1       0.663  10.697  20.151  0.00  0.00    +0.000 C 
ATOM      2  C   UNL     1      -0.452   9.887  20.812  0.00  0.00    +0.000 C 
ATOM      3  C   UNL     1       0.192   8.574  21.230  0.00  0.00    +0.000 C 
ATOM      4  N   UNL     1       1.283   8.385  20.294  0.00  0.00    +0.000 N 
ATOM      5  C   UNL     1       1.972   7.204  20.111  0.00  0.00    +0.000 A 
ATOM      6  C   UNL     1       1.613   6.068  20.838  0.00  0.00    +0.000 A 
ATOM      7  C   UNL     1       2.257   4.863  20.622  0.00  0.00    +0.000 A 
ATOM      8  C   UNL     1       3.265   4.811  19.676  0.00  0.00    +0.000 A 
ATOM      9  C   UNL     1       3.617   5.953  18.958  0.00  0.00    +0.000 A 
ATOM     10  N   UNL     1       2.977   7.135  19.192  0.00  0.00    +0.000 NA
ATOM     11  C   UNL     1       1.701   9.641  19.688  0.00  0.00    +0.000 C 
ENDROOT
BRANCH   9  12
ATOM     12  N   UNL     1       4.605   5.869  17.997  0.00  0.00    +0.000 N 
ATOM     13  C   UNL     1       4.825   6.893  16.995  0.00  0.00    +0.000 C 
ATOM     14  C   UNL     1       5.217   6.091  15.751  0.00  0.00    +0.000 C 
ATOM     15  C   UNL     1       6.011   4.908  16.312  0.00  0.00    +0.000 C 
ATOM     16  C   UNL     1       5.963   3.681  15.406  0.00  0.00    +0.000 C 
ATOM     17  C   UNL     1       5.349   4.645  17.686  0.00  0.00    +0.000 C 
BRANCH  15  18
ATOM     18  O   UNL     1       7.381   5.288  16.481  0.00  0.00    +0.000 OA
ATOM     19  H   UNL     1       7.851   5.095  15.652  0.00  0.00    +0.000 HD
ENDBRANCH  15  18
ENDBRANCH   9  12
BRANCH   1  20
ATOM     20  O   UNL     1       1.175  11.633  21.118  0.00  0.00    +0.000 OA
BRANCH  20  24
ATOM     21  C   UNL     1       1.884  15.577  19.861  0.00  0.00    +0.000 A 
ATOM     22  C   UNL     1       1.320  15.293  21.117  0.00  0.00    +0.000 A 
ATOM     23  C   UNL     1       1.081  13.966  21.506  0.00  0.00    +0.000 A 
ATOM     24  C   UNL     1       1.389  12.906  20.647  0.00  0.00    +0.000 A 
ATOM     25  C   UNL     1       1.941  13.186  19.400  0.00  0.00    +0.000 A 
ATOM     26  C   UNL     1       2.179  14.502  19.012  0.00  0.00    +0.000 A 
BRANCH  21  27
ATOM     27  C   UNL     1       2.222  16.998  19.446  0.00  0.00    +0.000 C 
ATOM     28  C   UNL     1       2.438  17.896  20.670  0.00  0.00    +0.000 C 
BRANCH  27  32
ATOM     29  C   UNL     1       0.066  18.413  16.665  0.00  0.00    +0.000 C 
ATOM     30  C   UNL     1       1.326  17.884  17.298  0.00  0.00    +0.000 C 
ATOM     31  O   UNL     1       2.388  17.802  16.696  0.00  0.00    +0.000 OA
ATOM     32  N   UNL     1       1.148  17.511  18.606  0.00  0.00    +0.000 N 
ATOM     33  H   UNL     1       0.232  17.622  19.021  0.00  0.00    +0.000 HD
ENDBRANCH  27  32
ENDBRANCH  21  27
ENDBRANCH  20  24
ENDBRANCH   1  20
TORSDOF 6
ENDMDL
MODEL 6
REMARK VINA RESULT:      -7.7      1.512      1.643
REMARK  Name = 
REMARK  9 active torsions:
REMARK  status: ('A' for Active; 'I' for Inactive)
REMARK    1  A    between atoms: C_1  and  C_2
REMARK    2  A    between atoms: N_4  and  C_5
REMARK    3  A    between atoms: C_5  and  C_6
REMARK    4  A    between atoms: C_5  and  C_7
REMARK    5  A    between atoms: C_10  and  O_11
REMARK    6  A    between atoms: O_11  and  C_12
REMARK    7  A    between atoms: C_20  and  N_21
REMARK    8  A    between atoms: C_24  and  C_25
REMARK    9  A    between atoms: C_24  and  O_26
REMARK                            x       y       z     vdW  Elec       q    Type
REMARK                         _______ _______ _______ _____ _____    ______ ____
ROOT
ATOM      1  C   UNL     1       0.419  10.099  19.321  0.00  0.00    +0.000 C 
ATOM      2  C   UNL     1       1.121  11.339  18.767  0.00  0.00    +0.000 C 
ATOM      3  C   UNL     1       0.687  12.487  19.665  0.00  0.00    +0.000 C 
ATOM      4  N   UNL     1      -0.616  12.092  20.164  0.00  0.00    +0.000 N 
ATOM      5  C   UNL     1      -1.513  12.933  20.789  0.00  0.00    +0.000 A 
ATOM      6  C   UNL     1      -1.201  14.283  20.955  0.00  0.00    +0.000 A 
ATOM      7  C   UNL     1      -2.115  15.150  21.528  0.00  0.00    +0.000 A 
ATOM      8  C   UNL     1      -3.338  14.648  21.936  0.00  0.00    +0.000 A 
ATOM      9  C   UNL     1      -3.636  13.296  21.769  0.00  0.00    +0.000 A 
ATOM     10  N   UNL     1      -2.718  12.455  21.210  0.00  0.00    +0.000 NA
ATOM     11  C   UNL     1      -0.806  10.650  20.097  0.00  0.00    +0.000 C 
ENDROOT
BRANCH   9  12
ATOM     12  N   UNL     1      -4.875  12.825  22.155  0.00  0.00    +0.000 N 
ATOM     13  C   UNL     1      -5.835  12.263  21.226  0.00  0.00    +0.000 C 
ATOM     14  C   UNL     1      -7.180  12.747  21.774  0.00  0.00    +0.000 C 
ATOM     15  C   UNL     1      -6.982  12.742  23.292  0.00  0.00    +0.000 C 
ATOM     16  C   UNL     1      -7.887  13.740  24.009  0.00  0.00    +0.000 C 
ATOM     17  C   UNL     1      -5.483  13.084  23.464  0.00  0.00    +0.000 C 
BRANCH  15  18
ATOM     18  O   UNL     1      -7.259  11.435  23.806  0.00  0.00    +0.000 OA
ATOM     19  H   UNL     1      -8.224  11.340  23.883  0.00  0.00    +0.000 HD
ENDBRANCH  15  18
ENDBRANCH   9  12
BRANCH   1  20
ATOM     20  O   UNL     1       1.356   9.380  20.144  0.00  0.00    +0.000 OA
BRANCH  20  24
ATOM     21  C   UNL     1       2.568   5.641  18.666  0.00  0.00    +0.000 A 
ATOM     22  C   UNL     1       2.146   5.806  19.997  0.00  0.00    +0.000 A 
ATOM     23  C   UNL     1       1.760   7.071  20.468  0.00  0.00    +0.000 A 
ATOM     24  C   UNL     1       1.798   8.186  19.626  0.00  0.00    +0.000 A 
ATOM     25  C   UNL     1       2.223   8.026  18.310  0.00  0.00    +0.000 A 
ATOM     26  C   UNL     1       2.606   6.772  17.840  0.00  0.00    +0.000 A 
BRANCH  21  27
ATOM     27  C   UNL     1       2.920   4.272  18.110  0.00  0.00    +0.000 C 
ATOM     28  C   UNL     1       1.799   3.733  17.215  0.00  0.00    +0.000 C 
BRANCH  27  32
ATOM     29  C   UNL     1       4.441   2.098  20.820  0.00  0.00    +0.000 C 
ATOM     30  C   UNL     1       4.442   3.092  19.688  0.00  0.00    +0.000 C 
ATOM     31  O   UNL     1       5.467   3.594  19.246  0.00  0.00    +0.000 OA
ATOM     32  N   UNL     1       3.182   3.366  19.220  0.00  0.00    +0.000 N 
ATOM     33  H   UNL     1       2.395   2.897  19.647  0.00  0.00    +0.000 HD
ENDBRANCH  27  32
ENDBRANCH  21  27
ENDBRANCH  20  24
ENDBRANCH   1  20
TORSDOF 6
ENDMDL
MODEL 7
REMARK VINA RESULT:      -7.6      3.031      5.245
REMARK  Name = 
REMARK  9 active torsions:
REMARK  status: ('A' for Active; 'I' for Inactive)
REMARK    1  A    between atoms: C_1  and  C_2
REMARK    2  A    between atoms: N_4  and  C_5
REMARK    3  A    between atoms: C_5  and  C_6
REMARK    4  A    between atoms: C_5  and  C_7
REMARK    5  A    between atoms: C_10  and  O_11
REMARK    6  A    between atoms: O_11  and  C_12
REMARK    7  A    between atoms: C_20  and  N_21
REMARK    8  A    between atoms: C_24  and  C_25
REMARK    9  A    between atoms: C_24  and  O_26
REMARK                            x       y       z     vdW  Elec       q    Type
REMARK                         _______ _______ _______ _____ _____    ______ ____
ROOT
ATOM      1  C   UNL     1       1.011   9.494  21.730  0.00  0.00    +0.000 C 
ATOM      2  C   UNL     1       0.122   9.438  22.971  0.00  0.00    +0.000 C 
ATOM      3  C   UNL     1      -0.813  10.633  22.857  0.00  0.00    +0.000 C 
ATOM      4  N   UNL     1      -0.073  11.606  22.077  0.00  0.00    +0.000 N 
ATOM      5  C   UNL     1      -0.405  12.939  21.954  0.00  0.00    +0.000 A 
ATOM      6  C   UNL     1      -1.514  13.446  22.634  0.00  0.00    +0.000 A 
ATOM      7  C   UNL     1      -1.825  14.792  22.565  0.00  0.00    +0.000 A 
ATOM      8  C   UNL     1      -1.017  15.620  21.806  0.00  0.00    +0.000 A 
ATOM      9  C   UNL     1       0.085  15.102  21.129  0.00  0.00    +0.000 A 
ATOM     10  N   UNL     1       0.370  13.769  21.201  0.00  0.00    +0.000 NA
ATOM     11  C   UNL     1       0.971  10.979  21.279  0.00  0.00    +0.000 C 
ENDROOT
BRANCH   9  12
ATOM     12  N   UNL     1       0.895  15.954  20.403  0.00  0.00    +0.000 N 
ATOM     13  C   UNL     1       0.421  17.192  19.820  0.00  0.00    +0.000 C 
ATOM     14  C   UNL     1       1.188  17.275  18.497  0.00  0.00    +0.000 C 
ATOM     15  C   UNL     1       2.552  16.661  18.824  0.00  0.00    +0.000 C 
ATOM     16  C   UNL     1       3.237  16.057  17.602  0.00  0.00    +0.000 C 
ATOM     17  C   UNL     1       2.222  15.594  19.896  0.00  0.00    +0.000 C 
BRANCH  15  18
ATOM     18  O   UNL     1       3.412  17.668  19.369  0.00  0.00    +0.000 OA
ATOM     19  H   UNL     1       4.224  17.234  19.681  0.00  0.00    +0.000 HD
ENDBRANCH  15  18
ENDBRANCH   9  12
BRANCH   1  20
ATOM     20  O   UNL     1       0.484   8.575  20.755  0.00  0.00    +0.000 OA
BRANCH  20  24
ATOM     21  C   UNL     1       3.263   6.448  18.434  0.00  0.00    +0.000 A 
ATOM     22  C   UNL     1       2.748   5.924  19.633  0.00  0.00    +0.000 A 
ATOM     23  C   UNL     1       1.831   6.663  20.396  0.00  0.00    +0.000 A 
ATOM     24  C   UNL     1       1.422   7.935  19.983  0.00  0.00    +0.000 A 
ATOM     25  C   UNL     1       1.937   8.459  18.799  0.00  0.00    +0.000 A 
ATOM     26  C   UNL     1       2.846   7.727  18.040  0.00  0.00    +0.000 A 
BRANCH  21  27
ATOM     27  C   UNL     1       4.198   5.640  17.552  0.00  0.00    +0.000 C 
ATOM     28  C   UNL     1       3.728   4.185  17.433  0.00  0.00    +0.000 C 
BRANCH  27  32
ATOM     29  C   UNL     1       7.823   6.413  18.359  0.00  0.00    +0.000 C 
ATOM     30  C   UNL     1       6.509   6.564  17.637  0.00  0.00    +0.000 C 
ATOM     31  O   UNL     1       6.336   7.370  16.733  0.00  0.00    +0.000 OA
ATOM     32  N   UNL     1       5.544   5.709  18.106  0.00  0.00    +0.000 N 
ATOM     33  H   UNL     1       5.782   5.073  18.855  0.00  0.00    +0.000 HD
ENDBRANCH  27  32
ENDBRANCH  21  27
ENDBRANCH  20  24
ENDBRANCH   1  20
TORSDOF 6
ENDMDL
MODEL 8
REMARK VINA RESULT:      -7.6      2.705      4.335
REMARK  Name = 
REMARK  9 active torsions:
REMARK  status: ('A' for Active; 'I' for Inactive)
REMARK    1  A    between atoms: C_1  and  C_2
REMARK    2  A    between atoms: N_4  and  C_5
REMARK    3  A    between atoms: C_5  and  C_6
REMARK    4  A    between atoms: C_5  and  C_7
REMARK    5  A    between atoms: C_10  and  O_11
REMARK    6  A    between atoms: O_11  and  C_12
REMARK    7  A    between atoms: C_20  and  N_21
REMARK    8  A    between atoms: C_24  and  C_25
REMARK    9  A    between atoms: C_24  and  O_26
REMARK                            x       y       z     vdW  Elec       q    Type
REMARK                         _______ _______ _______ _____ _____    ______ ____
ROOT
ATOM      1  C   UNL     1       0.984   9.868  21.387  0.00  0.00    +0.000 C 
ATOM      2  C   UNL     1       0.431   9.451  22.749  0.00  0.00    +0.000 C 
ATOM      3  C   UNL     1      -0.757  10.365  23.004  0.00  0.00    +0.000 C 
ATOM      4  N   UNL     1      -0.457  11.575  22.263  0.00  0.00    +0.000 N 
ATOM      5  C   UNL     1      -1.109  12.780  22.417  0.00  0.00    +0.000 A 
ATOM      6  C   UNL     1      -2.126  12.905  23.365  0.00  0.00    +0.000 A 
ATOM      7  C   UNL     1      -2.749  14.123  23.570  0.00  0.00    +0.000 A 
ATOM      8  C   UNL     1      -2.346  15.209  22.814  0.00  0.00    +0.000 A 
ATOM      9  C   UNL     1      -1.332  15.071  21.868  0.00  0.00    +0.000 A 
ATOM     10  N   UNL     1      -0.735  13.859  21.673  0.00  0.00    +0.000 NA
ATOM     11  C   UNL     1       0.501  11.330  21.193  0.00  0.00    +0.000 C 
ENDROOT
BRANCH   9  12
ATOM     12  N   UNL     1      -0.925  16.177  21.147  0.00  0.00    +0.000 N 
ATOM     13  C   UNL     1      -1.409  17.517  21.410  0.00  0.00    +0.000 C 
ATOM     14  C   UNL     1      -1.508  18.136  20.013  0.00  0.00    +0.000 C 
ATOM     15  C   UNL     1      -0.332  17.518  19.253  0.00  0.00    +0.000 C 
ATOM     16  C   UNL     1      -0.566  17.461  17.746  0.00  0.00    +0.000 C 
ATOM     17  C   UNL     1      -0.196  16.108  19.878  0.00  0.00    +0.000 C 
BRANCH  15  18
ATOM     18  O   UNL     1       0.851  18.288  19.495  0.00  0.00    +0.000 OA
ATOM     19  H   UNL     1       1.461  18.143  18.752  0.00  0.00    +0.000 HD
ENDBRANCH  15  18
ENDBRANCH   9  12
BRANCH   1  20
ATOM     20  O   UNL     1       0.483   8.952  20.396  0.00  0.00    +0.000 OA
BRANCH  20  24
ATOM     21  C   UNL     1       3.330   6.704  18.282  0.00  0.00    +0.000 A 
ATOM     22  C   UNL     1       2.830   6.279  19.525  0.00  0.00    +0.000 A 
ATOM     23  C   UNL     1       1.889   7.058  20.217  0.00  0.00    +0.000 A 
ATOM     24  C   UNL     1       1.442   8.272  19.686  0.00  0.00    +0.000 A 
ATOM     25  C   UNL     1       1.942   8.698  18.458  0.00  0.00    +0.000 A 
ATOM     26  C   UNL     1       2.875   7.926  17.770  0.00  0.00    +0.000 A 
BRANCH  21  27
ATOM     27  C   UNL     1       4.291   5.845  17.479  0.00  0.00    +0.000 C 
ATOM     28  C   UNL     1       3.741   4.426  17.290  0.00  0.00    +0.000 C 
BRANCH  27  32
ATOM     29  C   UNL     1       7.884   6.318  18.598  0.00  0.00    +0.000 C 
ATOM     30  C   UNL     1       6.665   6.549  17.744  0.00  0.00    +0.000 C 
ATOM     31  O   UNL     1       6.659   7.312  16.787  0.00  0.00    +0.000 OA
ATOM     32  N   UNL     1       5.579   5.819  18.158  0.00  0.00    +0.000 N 
ATOM     33  H   UNL     1       5.682   5.210  18.958  0.00  0.00    +0.000 HD
ENDBRANCH  27  32
ENDBRANCH  21  27
ENDBRANCH  20  24
ENDBRANCH   1  20
TORSDOF 6
ENDMDL
MODEL 9
REMARK VINA RESULT:      -7.6      3.087      5.116
REMARK  Name = 
REMARK  9 active torsions:
REMARK  status: ('A' for Active; 'I' for Inactive)
REMARK    1  A    between atoms: C_1  and  C_2
REMARK    2  A    between atoms: N_4  and  C_5
REMARK    3  A    between atoms: C_5  and  C_6
REMARK    4  A    between atoms: C_5  and  C_7
REMARK    5  A    between atoms: C_10  and  O_11
REMARK    6  A    between atoms: O_11  and  C_12
REMARK    7  A    between atoms: C_20  and  N_21
REMARK    8  A    between atoms: C_24  and  C_25
REMARK    9  A    between atoms: C_24  and  O_26
REMARK                            x       y       z     vdW  Elec       q    Type
REMARK                         _______ _______ _______ _____ _____    ______ ____
ROOT
ATOM      1  C   UNL     1       1.008   9.610  21.688  0.00  0.00    +0.000 C 
ATOM      2  C   UNL     1       0.283   9.471  23.026  0.00  0.00    +0.000 C 
ATOM      3  C   UNL     1      -0.806  10.533  23.012  0.00  0.00    +0.000 C 
ATOM      4  N   UNL     1      -0.293  11.574  22.141  0.00  0.00    +0.000 N 
ATOM      5  C   UNL     1      -0.807  12.850  22.046  0.00  0.00    +0.000 A 
ATOM      6  C   UNL     1      -1.887  13.228  22.846  0.00  0.00    +0.000 A 
ATOM      7  C   UNL     1      -2.375  14.521  22.803  0.00  0.00    +0.000 A 
ATOM      8  C   UNL     1      -1.775  15.427  21.947  0.00  0.00    +0.000 A 
ATOM      9  C   UNL     1      -0.700  15.037  21.150  0.00  0.00    +0.000 A 
ATOM     10  N   UNL     1      -0.238  13.754  21.200  0.00  0.00    +0.000 NA
ATOM     11  C   UNL     1       0.724  11.066  21.232  0.00  0.00    +0.000 C 
ENDROOT
BRANCH   9  12
ATOM     12  N   UNL     1      -0.097  15.968  20.326  0.00  0.00    +0.000 N 
ATOM     13  C   UNL     1      -0.834  16.801  19.397  0.00  0.00    +0.000 C 
ATOM     14  C   UNL     1       0.105  16.900  18.191  0.00  0.00    +0.000 C 
ATOM     15  C   UNL     1       1.503  16.913  18.814  0.00  0.00    +0.000 C 
ATOM     16  C   UNL     1       2.576  16.378  17.870  0.00  0.00    +0.000 C 
ATOM     17  C   UNL     1       1.346  16.034  20.079  0.00  0.00    +0.000 C 
BRANCH  15  18
ATOM     18  O   UNL     1       1.852  18.254  19.178  0.00  0.00    +0.000 OA
ATOM     19  H   UNL     1       1.936  18.291  20.145  0.00  0.00    +0.000 HD
ENDBRANCH  15  18
ENDBRANCH   9  12
BRANCH   1  20
ATOM     20  O   UNL     1       0.495   8.608  20.790  0.00  0.00    +0.000 OA
BRANCH  20  24
ATOM     21  C   UNL     1       3.302   6.156  18.855  0.00  0.00    +0.000 A 
ATOM     22  C   UNL     1       2.691   5.769  20.060  0.00  0.00    +0.000 A 
ATOM     23  C   UNL     1       1.767   6.615  20.693  0.00  0.00    +0.000 A 
ATOM     24  C   UNL     1       1.446   7.859  20.141  0.00  0.00    +0.000 A 
ATOM     25  C   UNL     1       2.056   8.247  18.951  0.00  0.00    +0.000 A 
ATOM     26  C   UNL     1       2.973   7.410  18.321  0.00  0.00    +0.000 A 
BRANCH  21  27
ATOM     27  C   UNL     1       4.248   5.230  18.112  0.00  0.00    +0.000 C 
ATOM     28  C   UNL     1       4.543   5.754  16.702  0.00  0.00    +0.000 C 
BRANCH  27  32
ATOM     29  C   UNL     1       3.335   1.577  18.572  0.00  0.00    +0.000 C 
ATOM     30  C   UNL     1       4.085   2.855  18.843  0.00  0.00    +0.000 C 
ATOM     31  O   UNL     1       4.977   2.938  19.678  0.00  0.00    +0.000 OA
ATOM     32  N   UNL     1       3.660   3.898  18.060  0.00  0.00    +0.000 N 
ATOM     33  H   UNL     1       2.919   3.732  17.393  0.00  0.00    +0.000 HD
ENDBRANCH  27  32
ENDBRANCH  21  27
ENDBRANCH  20  24
ENDBRANCH   1  20
TORSDOF 6
ENDMDL
