MODEL 1
REMARK VINA RESULT:      -8.7      0.000      0.000
REMARK  Name = 
REMARK  5 active torsions:
REMARK  status: ('A' for Active; 'I' for Inactive)
REMARK    1  A    between atoms: C_2  and  C_14
REMARK    2  A    between atoms: N_3  and  N_4
REMARK    3  A    between atoms: N_4  and  C_5
REMARK    4  A    between atoms: C_8  and  N_9
REMARK    5  A    between atoms: C_14  and  C_16
REMARK                            x       y       z     vdW  Elec       q    Type
REMARK                         _______ _______ _______ _____ _____    ______ ____
ROOT
ATOM      1  O   UNL     1       8.234   4.306  17.538  0.00  0.00    +0.000 OA
ATOM      2  C   UNL     1       7.393   5.191  17.587  0.00  0.00    +0.000 C 
ATOM      3  N   UNL     1       7.246   6.169  16.583  0.00  0.00    +0.000 N 
ATOM      4  H   UNL     1       6.360   6.675  16.547  0.00  0.00    +0.000 HD
ENDROOT
BRANCH   3   5
ATOM      5  N   UNL     1       7.846   5.851  15.323  0.00  0.00    +0.000 N 
ATOM      6  H   UNL     1       8.220   6.714  14.906  0.00  0.00    +0.000 HD
BRANCH   5   7
ATOM      7  C   UNL     1       7.053   5.132  14.377  0.00  0.00    +0.000 A 
ATOM      8  C   UNL     1       7.605   4.865  13.105  0.00  0.00    +0.000 A 
ATOM      9  C   UNL     1       6.970   4.040  12.166  0.00  0.00    +0.000 A 
ATOM     10  C   UNL     1       5.762   3.440  12.502  0.00  0.00    +0.000 A 
ATOM     11  C   UNL     1       5.183   3.672  13.775  0.00  0.00    +0.000 A 
ATOM     12  C   UNL     1       5.843   4.505  14.698  0.00  0.00    +0.000 A 
BRANCH  10  13
ATOM     13  N   UNL     1       5.088   2.558  11.540  0.00  0.00    +0.000 N 
ATOM     14  O   UNL     1       3.999   2.954  11.069  0.00  0.00    +0.000 OA
ATOM     15  O   UNL     1       5.637   1.481  11.265  0.00  0.00    +0.000 OA
ENDBRANCH  10  13
ENDBRANCH   5   7
ENDBRANCH   3   5
BRANCH   2  16
ATOM     16  C   UNL     1       6.380   5.289  18.743  0.00  0.00    +0.000 C 
ATOM     17  O   UNL     1       6.906   5.278  19.866  0.00  0.00    +0.000 OA
BRANCH  16  18
ATOM     18  C   UNL     1       4.903   5.297  18.619  0.00  0.00    +0.000 A 
ATOM     19  C   UNL     1       4.310   5.847  17.485  0.00  0.00    +0.000 A 
ATOM     20  N   UNL     1       3.074   6.268  17.873  0.00  0.00    +0.000 N 
ATOM     21  C   UNL     1       2.616   5.374  18.804  0.00  0.00    +0.000 A 
ATOM     22  C   UNL     1       1.295   5.092  19.171  0.00  0.00    +0.000 A 
ATOM     23  C   UNL     1       1.111   4.078  20.108  0.00  0.00    +0.000 A 
ATOM     24  C   UNL     1       2.212   3.472  20.714  0.00  0.00    +0.000 A 
ATOM     25 CL   UNL     1       1.933   2.211  21.857  0.00  0.00    +0.000 Cl
ATOM     26  C   UNL     1       3.537   3.834  20.387  0.00  0.00    +0.000 A 
ATOM     27  C   UNL     1       3.764   4.770  19.354  0.00  0.00    +0.000 A 
ATOM     28  H   UNL     1       2.517   6.982  17.421  0.00  0.00    +0.000 HD
ENDBRANCH  16  18
ENDBRANCH   2  16
TORSDOF 5
ENDMDL
MODEL 2
REMARK VINA RESULT:      -8.4      4.211      8.061
REMARK  Name = 
REMARK  5 active torsions:
REMARK  status: ('A' for Active; 'I' for Inactive)
REMARK    1  A    between atoms: C_2  and  C_14
REMARK    2  A    between atoms: N_3  and  N_4
REMARK    3  A    between atoms: N_4  and  C_5
REMARK    4  A    between atoms: C_8  and  N_9
REMARK    5  A    between atoms: C_14  and  C_16
REMARK                            x       y       z     vdW  Elec       q    Type
REMARK                         _______ _______ _______ _____ _____    ______ ____
ROOT
ATOM      1  O   UNL     1       5.539   5.691  18.992  0.00  0.00    +0.000 OA
ATOM      2  C   UNL     1       4.588   5.121  18.478  0.00  0.00    +0.000 C 
ATOM      3  N   UNL     1       3.297   5.116  19.043  0.00  0.00    +0.000 N 
ATOM      4  H   UNL     1       2.517   4.884  18.428  0.00  0.00    +0.000 HD
ENDROOT
BRANCH   3   5
ATOM      5  N   UNL     1       3.052   6.130  20.023  0.00  0.00    +0.000 N 
ATOM      6  H   UNL     1       2.649   5.691  20.862  0.00  0.00    +0.000 HD
BRANCH   5   7
ATOM      7  C   UNL     1       2.280   7.263  19.623  0.00  0.00    +0.000 A 
ATOM      8  C   UNL     1       1.579   7.981  20.616  0.00  0.00    +0.000 A 
ATOM      9  C   UNL     1       0.920   9.189  20.348  0.00  0.00    +0.000 A 
ATOM     10  C   UNL     1       0.974   9.718  19.063  0.00  0.00    +0.000 A 
ATOM     11  C   UNL     1       1.681   9.034  18.042  0.00  0.00    +0.000 A 
ATOM     12  C   UNL     1       2.334   7.822  18.341  0.00  0.00    +0.000 A 
BRANCH  10  13
ATOM     13  N   UNL     1       0.306  10.991  18.765  0.00  0.00    +0.000 N 
ATOM     14  O   UNL     1      -0.940  11.020  18.869  0.00  0.00    +0.000 OA
ATOM     15  O   UNL     1       1.018  11.948  18.423  0.00  0.00    +0.000 OA
ENDBRANCH  10  13
ENDBRANCH   5   7
ENDBRANCH   3   5
BRANCH   2  16
ATOM     16  C   UNL     1       4.710   4.388  17.129  0.00  0.00    +0.000 C 
ATOM     17  O   UNL     1       3.865   3.494  16.971  0.00  0.00    +0.000 OA
BRANCH  16  18
ATOM     18  C   UNL     1       5.763   4.597  16.107  0.00  0.00    +0.000 A 
ATOM     19  C   UNL     1       7.003   5.104  16.490  0.00  0.00    +0.000 A 
ATOM     20  N   UNL     1       7.505   5.738  15.393  0.00  0.00    +0.000 N 
ATOM     21  C   UNL     1       7.107   5.022  14.295  0.00  0.00    +0.000 A 
ATOM     22  C   UNL     1       7.689   4.975  13.023  0.00  0.00    +0.000 A 
ATOM     23  C   UNL     1       7.110   4.103  12.104  0.00  0.00    +0.000 A 
ATOM     24  C   UNL     1       5.942   3.412  12.430  0.00  0.00    +0.000 A 
ATOM     25 CL   UNL     1       5.272   2.333  11.263  0.00  0.00    +0.000 Cl
ATOM     26  C   UNL     1       5.326   3.542  13.693  0.00  0.00    +0.000 A 
ATOM     27  C   UNL     1       5.952   4.321  14.692  0.00  0.00    +0.000 A 
ATOM     28  H   UNL     1       8.200   6.472  15.394  0.00  0.00    +0.000 HD
ENDBRANCH  16  18
ENDBRANCH   2  16
TORSDOF 5
ENDMDL
MODEL 3
REMARK VINA RESULT:      -8.4      4.335      8.060
REMARK  Name = 
REMARK  5 active torsions:
REMARK  status: ('A' for Active; 'I' for Inactive)
REMARK    1  A    between atoms: C_2  and  C_14
REMARK    2  A    between atoms: N_3  and  N_4
REMARK    3  A    between atoms: N_4  and  C_5
REMARK    4  A    between atoms: C_8  and  N_9
REMARK    5  A    between atoms: C_14  and  C_16
REMARK                            x       y       z     vdW  Elec       q    Type
REMARK                         _______ _______ _______ _____ _____    ______ ____
ROOT
ATOM      1  O   UNL     1       5.231   4.977  19.314  0.00  0.00    +0.000 OA
ATOM      2  C   UNL     1       4.280   4.896  18.552  0.00  0.00    +0.000 C 
ATOM      3  N   UNL     1       2.995   5.380  18.871  0.00  0.00    +0.000 N 
ATOM      4  H   UNL     1       2.350   5.543  18.097  0.00  0.00    +0.000 HD
ENDROOT
BRANCH   3   5
ATOM      5  N   UNL     1       2.944   6.321  19.948  0.00  0.00    +0.000 N 
ATOM      6  H   UNL     1       2.568   5.851  20.783  0.00  0.00    +0.000 HD
BRANCH   5   7
ATOM      7  C   UNL     1       2.267   7.557  19.714  0.00  0.00    +0.000 A 
ATOM      8  C   UNL     1       2.262   8.080  18.403  0.00  0.00    +0.000 A 
ATOM      9  C   UNL     1       1.501   9.201  18.042  0.00  0.00    +0.000 A 
ATOM     10  C   UNL     1       0.702   9.812  19.002  0.00  0.00    +0.000 A 
ATOM     11  C   UNL     1       0.669   9.307  20.326  0.00  0.00    +0.000 A 
ATOM     12  C   UNL     1       1.444   8.179  20.660  0.00  0.00    +0.000 A 
BRANCH  10  13
ATOM     13  N   UNL     1      -0.117  10.978  18.641  0.00  0.00    +0.000 N 
ATOM     14  O   UNL     1       0.450  12.092  18.636  0.00  0.00    +0.000 OA
ATOM     15  O   UNL     1      -1.312  10.780  18.375  0.00  0.00    +0.000 OA
ENDBRANCH  10  13
ENDBRANCH   5   7
ENDBRANCH   3   5
BRANCH   2  16
ATOM     16  C   UNL     1       4.415   4.291  17.142  0.00  0.00    +0.000 C 
ATOM     17  O   UNL     1       3.520   3.479  16.862  0.00  0.00    +0.000 OA
BRANCH  16  18
ATOM     18  C   UNL     1       5.526   4.522  16.189  0.00  0.00    +0.000 A 
ATOM     19  C   UNL     1       6.741   5.021  16.654  0.00  0.00    +0.000 A 
ATOM     20  N   UNL     1       7.305   5.679  15.603  0.00  0.00    +0.000 N 
ATOM     21  C   UNL     1       6.973   4.989  14.468  0.00  0.00    +0.000 A 
ATOM     22  C   UNL     1       7.628   4.970  13.232  0.00  0.00    +0.000 A 
ATOM     23  C   UNL     1       7.105   4.118  12.261  0.00  0.00    +0.000 A 
ATOM     24  C   UNL     1       5.921   3.420  12.502  0.00  0.00    +0.000 A 
ATOM     25 CL   UNL     1       5.322   2.368  11.275  0.00  0.00    +0.000 Cl
ATOM     26  C   UNL     1       5.232   3.522  13.730  0.00  0.00    +0.000 A 
ATOM     27  C   UNL     1       5.797   4.278  14.781  0.00  0.00    +0.000 A 
ATOM     28  H   UNL     1       7.998   6.414  15.662  0.00  0.00    +0.000 HD
ENDBRANCH  16  18
ENDBRANCH   2  16
TORSDOF 5
ENDMDL
MODEL 4
REMARK VINA RESULT:      -8.2      5.038      7.462
REMARK  Name = 
REMARK  5 active torsions:
REMARK  status: ('A' for Active; 'I' for Inactive)
REMARK    1  A    between atoms: C_2  and  C_14
REMARK    2  A    between atoms: N_3  and  N_4
REMARK    3  A    between atoms: N_4  and  C_5
REMARK    4  A    between atoms: C_8  and  N_9
REMARK    5  A    between atoms: C_14  and  C_16
REMARK                            x       y       z     vdW  Elec       q    Type
REMARK                         _______ _______ _______ _____ _____    ______ ____
ROOT
ATOM      1  O   UNL     1       7.656   6.196  19.397  0.00  0.00    +0.000 OA
ATOM      2  C   UNL     1       7.585   6.754  18.313  0.00  0.00    +0.000 C 
ATOM      3  N   UNL     1       8.011   8.080  18.100  0.00  0.00    +0.000 N 
ATOM      4  H   UNL     1       8.193   8.366  17.137  0.00  0.00    +0.000 HD
ENDROOT
BRANCH   3   5
ATOM      5  N   UNL     1       8.894   8.608  19.096  0.00  0.00    +0.000 N 
ATOM      6  H   UNL     1       8.554   8.325  20.025  0.00  0.00    +0.000 HD
BRANCH   5   7
ATOM      7  C   UNL     1       9.167  10.009  19.060  0.00  0.00    +0.000 A 
ATOM      8  C   UNL     1       8.816  10.731  17.898  0.00  0.00    +0.000 A 
ATOM      9  C   UNL     1       8.903  12.128  17.825  0.00  0.00    +0.000 A 
ATOM     10  C   UNL     1       9.327  12.839  18.942  0.00  0.00    +0.000 A 
ATOM     11  C   UNL     1       9.674  12.151  20.133  0.00  0.00    +0.000 A 
ATOM     12  C   UNL     1       9.577  10.746  20.177  0.00  0.00    +0.000 A 
BRANCH  10  13
ATOM     13  N   UNL     1       9.408  14.304  18.893  0.00  0.00    +0.000 N 
ATOM     14  O   UNL     1       8.528  14.903  18.237  0.00  0.00    +0.000 OA
ATOM     15  O   UNL     1      10.345  14.849  19.498  0.00  0.00    +0.000 OA
ENDBRANCH  10  13
ENDBRANCH   5   7
ENDBRANCH   3   5
BRANCH   2  16
ATOM     16  C   UNL     1       7.056   6.032  17.058  0.00  0.00    +0.000 C 
ATOM     17  O   UNL     1       7.651   6.348  16.017  0.00  0.00    +0.000 OA
BRANCH  16  18
ATOM     18  C   UNL     1       5.894   5.114  16.996  0.00  0.00    +0.000 A 
ATOM     19  C   UNL     1       5.960   3.972  16.200  0.00  0.00    +0.000 A 
ATOM     20  N   UNL     1       4.675   3.681  15.853  0.00  0.00    +0.000 N 
ATOM     21  C   UNL     1       3.883   4.009  16.921  0.00  0.00    +0.000 A 
ATOM     22  C   UNL     1       2.615   3.520  17.252  0.00  0.00    +0.000 A 
ATOM     23  C   UNL     1       2.060   3.981  18.444  0.00  0.00    +0.000 A 
ATOM     24  C   UNL     1       2.711   4.967  19.188  0.00  0.00    +0.000 A 
ATOM     25 CL   UNL     1       1.991   5.495  20.663  0.00  0.00    +0.000 Cl
ATOM     26  C   UNL     1       3.952   5.506  18.787  0.00  0.00    +0.000 A 
ATOM     27  C   UNL     1       4.603   4.975  17.651  0.00  0.00    +0.000 A 
ATOM     28  H   UNL     1       4.382   3.144  15.048  0.00  0.00    +0.000 HD
ENDBRANCH  16  18
ENDBRANCH   2  16
TORSDOF 5
ENDMDL
MODEL 5
REMARK VINA RESULT:      -8.2      4.875      7.981
REMARK  Name = 
REMARK  5 active torsions:
REMARK  status: ('A' for Active; 'I' for Inactive)
REMARK    1  A    between atoms: C_2  and  C_14
REMARK    2  A    between atoms: N_3  and  N_4
REMARK    3  A    between atoms: N_4  and  C_5
REMARK    4  A    between atoms: C_8  and  N_9
REMARK    5  A    between atoms: C_14  and  C_16
REMARK                            x       y       z     vdW  Elec       q    Type
REMARK                         _______ _______ _______ _____ _____    ______ ____
ROOT
ATOM      1  O   UNL     1       1.004   5.094  20.674  0.00  0.00    +0.000 OA
ATOM      2  C   UNL     1       2.127   5.306  20.243  0.00  0.00    +0.000 C 
ATOM      3  N   UNL     1       2.684   6.597  20.150  0.00  0.00    +0.000 N 
ATOM      4  H   UNL     1       3.699   6.665  20.066  0.00  0.00    +0.000 HD
ENDROOT
BRANCH   3   5
ATOM      5  N   UNL     1       2.045   7.600  20.946  0.00  0.00    +0.000 N 
ATOM      6  H   UNL     1       1.471   7.138  21.665  0.00  0.00    +0.000 HD
BRANCH   5   7
ATOM      7  C   UNL     1       1.292   8.604  20.264  0.00  0.00    +0.000 A 
ATOM      8  C   UNL     1       1.531   8.801  18.887  0.00  0.00    +0.000 A 
ATOM      9  C   UNL     1       0.743   9.651  18.099  0.00  0.00    +0.000 A 
ATOM     10  C   UNL     1      -0.332  10.311  18.685  0.00  0.00    +0.000 A 
ATOM     11  C   UNL     1      -0.614  10.127  20.062  0.00  0.00    +0.000 A 
ATOM     12  C   UNL     1       0.196   9.267  20.829  0.00  0.00    +0.000 A 
BRANCH  10  13
ATOM     13  N   UNL     1      -1.183  11.193  17.875  0.00  0.00    +0.000 N 
ATOM     14  O   UNL     1      -1.036  12.425  18.028  0.00  0.00    +0.000 OA
ATOM     15  O   UNL     1      -1.991  10.658  17.100  0.00  0.00    +0.000 OA
ENDBRANCH  10  13
ENDBRANCH   5   7
ENDBRANCH   3   5
BRANCH   2  16
ATOM     16  C   UNL     1       3.059   4.162  19.800  0.00  0.00    +0.000 C 
ATOM     17  O   UNL     1       3.183   3.266  20.648  0.00  0.00    +0.000 OA
BRANCH  16  18
ATOM     18  C   UNL     1       3.846   4.107  18.545  0.00  0.00    +0.000 A 
ATOM     19  C   UNL     1       3.389   3.336  17.478  0.00  0.00    +0.000 A 
ATOM     20  N   UNL     1       4.497   2.980  16.769  0.00  0.00    +0.000 N 
ATOM     21  C   UNL     1       5.372   4.032  16.831  0.00  0.00    +0.000 A 
ATOM     22  C   UNL     1       6.410   4.358  15.952  0.00  0.00    +0.000 A 
ATOM     23  C   UNL     1       7.109   5.533  16.221  0.00  0.00    +0.000 A 
ATOM     24  C   UNL     1       6.838   6.263  17.379  0.00  0.00    +0.000 A 
ATOM     25 CL   UNL     1       7.720   7.718  17.660  0.00  0.00    +0.000 Cl
ATOM     26  C   UNL     1       5.841   5.865  18.295  0.00  0.00    +0.000 A 
ATOM     27  C   UNL     1       5.029   4.749  17.994  0.00  0.00    +0.000 A 
ATOM     28  H   UNL     1       4.579   2.183  16.152  0.00  0.00    +0.000 HD
ENDBRANCH  16  18
ENDBRANCH   2  16
TORSDOF 5
ENDMDL
MODEL 6
REMARK VINA RESULT:      -8.2      4.993      8.585
REMARK  Name = 
REMARK  5 active torsions:
REMARK  status: ('A' for Active; 'I' for Inactive)
REMARK    1  A    between atoms: C_2  and  C_14
REMARK    2  A    between atoms: N_3  and  N_4
REMARK    3  A    between atoms: N_4  and  C_5
REMARK    4  A    between atoms: C_8  and  N_9
REMARK    5  A    between atoms: C_14  and  C_16
REMARK                            x       y       z     vdW  Elec       q    Type
REMARK                         _______ _______ _______ _____ _____    ______ ____
ROOT
ATOM      1  O   UNL     1       0.883   4.559  20.449  0.00  0.00    +0.000 OA
ATOM      2  C   UNL     1       1.836   4.964  19.800  0.00  0.00    +0.000 C 
ATOM      3  N   UNL     1       2.318   6.285  19.885  0.00  0.00    +0.000 N 
ATOM      4  H   UNL     1       3.268   6.460  19.553  0.00  0.00    +0.000 HD
ENDROOT
BRANCH   3   5
ATOM      5  N   UNL     1       1.908   7.015  21.045  0.00  0.00    +0.000 N 
ATOM      6  H   UNL     1       1.304   6.413  21.621  0.00  0.00    +0.000 HD
BRANCH   5   7
ATOM      7  C   UNL     1       1.303   8.293  20.842  0.00  0.00    +0.000 A 
ATOM      8  C   UNL     1       1.399   8.884  19.563  0.00  0.00    +0.000 A 
ATOM      9  C   UNL     1       0.713  10.059  19.223  0.00  0.00    +0.000 A 
ATOM     10  C   UNL     1      -0.113  10.657  20.167  0.00  0.00    +0.000 A 
ATOM     11  C   UNL     1      -0.248  10.084  21.458  0.00  0.00    +0.000 A 
ATOM     12  C   UNL     1       0.453   8.904  21.772  0.00  0.00    +0.000 A 
BRANCH  10  13
ATOM     13  N   UNL     1      -0.855  11.877  19.826  0.00  0.00    +0.000 N 
ATOM     14  O   UNL     1      -2.103  11.804  19.823  0.00  0.00    +0.000 OA
ATOM     15  O   UNL     1      -0.197  12.894  19.558  0.00  0.00    +0.000 OA
ENDBRANCH  10  13
ENDBRANCH   5   7
ENDBRANCH   3   5
BRANCH   2  16
ATOM     16  C   UNL     1       2.629   4.041  18.855  0.00  0.00    +0.000 C 
ATOM     17  O   UNL     1       1.957   3.107  18.393  0.00  0.00    +0.000 OA
BRANCH  16  18
ATOM     18  C   UNL     1       4.077   4.130  18.552  0.00  0.00    +0.000 A 
ATOM     19  C   UNL     1       5.007   3.957  19.575  0.00  0.00    +0.000 A 
ATOM     20  N   UNL     1       6.116   4.653  19.197  0.00  0.00    +0.000 N 
ATOM     21  C   UNL     1       6.220   4.541  17.837  0.00  0.00    +0.000 A 
ATOM     22  C   UNL     1       7.357   4.674  17.033  0.00  0.00    +0.000 A 
ATOM     23  C   UNL     1       7.188   4.441  15.669  0.00  0.00    +0.000 A 
ATOM     24  C   UNL     1       5.915   4.202  15.149  0.00  0.00    +0.000 A 
ATOM     25 CL   UNL     1       5.759   3.905  13.458  0.00  0.00    +0.000 Cl
ATOM     26  C   UNL     1       4.769   4.157  15.972  0.00  0.00    +0.000 A 
ATOM     27  C   UNL     1       4.918   4.266  17.373  0.00  0.00    +0.000 A 
ATOM     28  H   UNL     1       6.833   5.013  19.814  0.00  0.00    +0.000 HD
ENDBRANCH  16  18
ENDBRANCH   2  16
TORSDOF 5
ENDMDL
MODEL 7
REMARK VINA RESULT:      -8.2      5.480      9.366
REMARK  Name = 
REMARK  5 active torsions:
REMARK  status: ('A' for Active; 'I' for Inactive)
REMARK    1  A    between atoms: C_2  and  C_14
REMARK    2  A    between atoms: N_3  and  N_4
REMARK    3  A    between atoms: N_4  and  C_5
REMARK    4  A    between atoms: C_8  and  N_9
REMARK    5  A    between atoms: C_14  and  C_16
REMARK                            x       y       z     vdW  Elec       q    Type
REMARK                         _______ _______ _______ _____ _____    ______ ____
ROOT
ATOM      1  O   UNL     1       1.547   5.028  20.988  0.00  0.00    +0.000 OA
ATOM      2  C   UNL     1       1.949   5.754  20.092  0.00  0.00    +0.000 C 
ATOM      3  N   UNL     1       1.903   7.161  20.162  0.00  0.00    +0.000 N 
ATOM      4  H   UNL     1       2.510   7.682  19.528  0.00  0.00    +0.000 HD
ENDROOT
BRANCH   3   5
ATOM      5  N   UNL     1       1.742   7.705  21.476  0.00  0.00    +0.000 N 
ATOM      6  H   UNL     1       1.391   6.966  22.100  0.00  0.00    +0.000 HD
BRANCH   5   7
ATOM      7  C   UNL     1       0.961   8.894  21.607  0.00  0.00    +0.000 A 
ATOM      8  C   UNL     1       0.528   9.545  20.431  0.00  0.00    +0.000 A 
ATOM      9  C   UNL     1      -0.364  10.625  20.454  0.00  0.00    +0.000 A 
ATOM     10  C   UNL     1      -0.864  11.064  21.675  0.00  0.00    +0.000 A 
ATOM     11  C   UNL     1      -0.464  10.426  22.877  0.00  0.00    +0.000 A 
ATOM     12  C   UNL     1       0.434   9.343  22.824  0.00  0.00    +0.000 A 
BRANCH  10  13
ATOM     13  N   UNL     1      -1.814  12.183  21.720  0.00  0.00    +0.000 N 
ATOM     14  O   UNL     1      -2.787  12.074  22.498  0.00  0.00    +0.000 OA
ATOM     15  O   UNL     1      -1.593  13.155  20.981  0.00  0.00    +0.000 OA
ENDBRANCH  10  13
ENDBRANCH   5   7
ENDBRANCH   3   5
BRANCH   2  16
ATOM     16  C   UNL     1       2.588   5.188  18.810  0.00  0.00    +0.000 C 
ATOM     17  O   UNL     1       1.761   4.855  17.948  0.00  0.00    +0.000 OA
BRANCH  16  18
ATOM     18  C   UNL     1       4.032   4.938  18.584  0.00  0.00    +0.000 A 
ATOM     19  C   UNL     1       4.861   4.663  19.669  0.00  0.00    +0.000 A 
ATOM     20  N   UNL     1       6.109   5.070  19.302  0.00  0.00    +0.000 N 
ATOM     21  C   UNL     1       6.239   4.817  17.963  0.00  0.00    +0.000 A 
ATOM     22  C   UNL     1       7.408   4.631  17.217  0.00  0.00    +0.000 A 
ATOM     23  C   UNL     1       7.245   4.318  15.869  0.00  0.00    +0.000 A 
ATOM     24  C   UNL     1       5.972   4.311  15.298  0.00  0.00    +0.000 A 
ATOM     25 CL   UNL     1       5.821   3.904  13.629  0.00  0.00    +0.000 Cl
ATOM     26  C   UNL     1       4.813   4.585  16.054  0.00  0.00    +0.000 A 
ATOM     27  C   UNL     1       4.928   4.785  17.449  0.00  0.00    +0.000 A 
ATOM     28  H   UNL     1       6.862   5.322  19.928  0.00  0.00    +0.000 HD
ENDBRANCH  16  18
ENDBRANCH   2  16
TORSDOF 5
ENDMDL
MODEL 8
REMARK VINA RESULT:      -8.2      4.887      8.196
REMARK  Name = 
REMARK  5 active torsions:
REMARK  status: ('A' for Active; 'I' for Inactive)
REMARK    1  A    between atoms: C_2  and  C_14
REMARK    2  A    between atoms: N_3  and  N_4
REMARK    3  A    between atoms: N_4  and  C_5
REMARK    4  A    between atoms: C_8  and  N_9
REMARK    5  A    between atoms: C_14  and  C_16
REMARK                            x       y       z     vdW  Elec       q    Type
REMARK                         _______ _______ _______ _____ _____    ______ ____
ROOT
ATOM      1  O   UNL     1       1.038   4.887  20.651  0.00  0.00    +0.000 OA
ATOM      2  C   UNL     1       2.161   5.137  20.241  0.00  0.00    +0.000 C 
ATOM      3  N   UNL     1       2.679   6.445  20.163  0.00  0.00    +0.000 N 
ATOM      4  H   UNL     1       3.693   6.546  20.098  0.00  0.00    +0.000 HD
ENDROOT
BRANCH   3   5
ATOM      5  N   UNL     1       1.994   7.424  20.952  0.00  0.00    +0.000 N 
ATOM      6  H   UNL     1       1.345   6.942  21.589  0.00  0.00    +0.000 HD
BRANCH   5   7
ATOM      7  C   UNL     1       1.333   8.485  20.261  0.00  0.00    +0.000 A 
ATOM      8  C   UNL     1       0.509   9.358  21.004  0.00  0.00    +0.000 A 
ATOM      9  C   UNL     1      -0.059  10.513  20.449  0.00  0.00    +0.000 A 
ATOM     10  C   UNL     1       0.214  10.830  19.123  0.00  0.00    +0.000 A 
ATOM     11  C   UNL     1       1.050   9.986  18.348  0.00  0.00    +0.000 A 
ATOM     12  C   UNL     1       1.607   8.832  18.933  0.00  0.00    +0.000 A 
BRANCH  10  13
ATOM     13  N   UNL     1      -0.356  12.044  18.525  0.00  0.00    +0.000 N 
ATOM     14  O   UNL     1       0.404  13.030  18.404  0.00  0.00    +0.000 OA
ATOM     15  O   UNL     1      -1.549  12.014  18.189  0.00  0.00    +0.000 OA
ENDBRANCH  10  13
ENDBRANCH   5   7
ENDBRANCH   3   5
BRANCH   2  16
ATOM     16  C   UNL     1       3.136   4.025  19.809  0.00  0.00    +0.000 C 
ATOM     17  O   UNL     1       3.276   3.131  20.656  0.00  0.00    +0.000 OA
BRANCH  16  18
ATOM     18  C   UNL     1       3.946   3.999  18.568  0.00  0.00    +0.000 A 
ATOM     19  C   UNL     1       3.535   3.212  17.494  0.00  0.00    +0.000 A 
ATOM     20  N   UNL     1       4.667   2.898  16.803  0.00  0.00    +0.000 N 
ATOM     21  C   UNL     1       5.500   3.982  16.878  0.00  0.00    +0.000 A 
ATOM     22  C   UNL     1       6.539   4.348  16.015  0.00  0.00    +0.000 A 
ATOM     23  C   UNL     1       7.188   5.549  16.295  0.00  0.00    +0.000 A 
ATOM     24  C   UNL     1       6.871   6.269  17.447  0.00  0.00    +0.000 A 
ATOM     25 CL   UNL     1       7.691   7.756  17.741  0.00  0.00    +0.000 Cl
ATOM     26  C   UNL     1       5.875   5.833  18.348  0.00  0.00    +0.000 A 
ATOM     27  C   UNL     1       5.111   4.686  18.035  0.00  0.00    +0.000 A 
ATOM     28  H   UNL     1       4.790   2.104  16.188  0.00  0.00    +0.000 HD
ENDBRANCH  16  18
ENDBRANCH   2  16
TORSDOF 5
ENDMDL
MODEL 9
REMARK VINA RESULT:      -8.1      6.180      8.458
REMARK  Name = 
REMARK  5 active torsions:
REMARK  status: ('A' for Active; 'I' for Inactive)
REMARK    1  A    between atoms: C_2  and  C_14
REMARK    2  A    between atoms: N_3  and  N_4
REMARK    3  A    between atoms: N_4  and  C_5
REMARK    4  A    between atoms: C_8  and  N_9
REMARK    5  A    between atoms: C_14  and  C_16
REMARK                            x       y       z     vdW  Elec       q    Type
REMARK                         _______ _______ _______ _____ _____    ______ ____
ROOT
ATOM      1  O   UNL     1      -0.550   8.766  21.413  0.00  0.00    +0.000 OA
ATOM      2  C   UNL     1       0.362   9.080  20.663  0.00  0.00    +0.000 C 
ATOM      3  N   UNL     1       1.612   8.429  20.656  0.00  0.00    +0.000 N 
ATOM      4  H   UNL     1       2.196   8.544  19.827  0.00  0.00    +0.000 HD
ENDROOT
BRANCH   3   5
ATOM      5  N   UNL     1       1.635   7.138  21.274  0.00  0.00    +0.000 N 
ATOM      6  H   UNL     1       2.203   7.191  22.131  0.00  0.00    +0.000 HD
BRANCH   5   7
ATOM      7  C   UNL     1       2.032   6.027  20.469  0.00  0.00    +0.000 A 
ATOM      8  C   UNL     1       1.291   4.829  20.568  0.00  0.00    +0.000 A 
ATOM      9  C   UNL     1       1.506   3.739  19.714  0.00  0.00    +0.000 A 
ATOM     10  C   UNL     1       2.467   3.842  18.715  0.00  0.00    +0.000 A 
ATOM     11  C   UNL     1       3.221   5.034  18.574  0.00  0.00    +0.000 A 
ATOM     12  C   UNL     1       2.984   6.114  19.446  0.00  0.00    +0.000 A 
BRANCH  10  13
ATOM     13  N   UNL     1       2.696   2.717  17.797  0.00  0.00    +0.000 N 
ATOM     14  O   UNL     1       3.260   1.705  18.266  0.00  0.00    +0.000 OA
ATOM     15  O   UNL     1       2.322   2.849  16.622  0.00  0.00    +0.000 OA
ENDBRANCH  10  13
ENDBRANCH   5   7
ENDBRANCH   3   5
BRANCH   2  16
ATOM     16  C   UNL     1       0.206  10.200  19.617  0.00  0.00    +0.000 C 
ATOM     17  O   UNL     1       1.286  10.616  19.171  0.00  0.00    +0.000 OA
BRANCH  16  18
ATOM     18  C   UNL     1      -1.062  10.843  19.200  0.00  0.00    +0.000 A 
ATOM     19  C   UNL     1      -1.568  11.911  19.937  0.00  0.00    +0.000 A 
ATOM     20  N   UNL     1      -2.917  11.896  19.745  0.00  0.00    +0.000 N 
ATOM     21  C   UNL     1      -3.137  11.486  18.457  0.00  0.00    +0.000 A 
ATOM     22  C   UNL     1      -4.252  11.718  17.644  0.00  0.00    +0.000 A 
ATOM     23  C   UNL     1      -4.183  11.237  16.338  0.00  0.00    +0.000 A 
ATOM     24  C   UNL     1      -3.092  10.470  15.928  0.00  0.00    +0.000 A 
ATOM     25 CL   UNL     1      -3.045   9.910  14.298  0.00  0.00    +0.000 Cl
ATOM     26  C   UNL     1      -2.017  10.179  16.795  0.00  0.00    +0.000 A 
ATOM     27  C   UNL     1      -1.994  10.752  18.087  0.00  0.00    +0.000 A 
ATOM     28  H   UNL     1      -3.612  12.298  20.360  0.00  0.00    +0.000 HD
ENDBRANCH  16  18
ENDBRANCH   2  16
TORSDOF 5
ENDMDL
