MODEL 1
REMARK VINA RESULT:      -9.1      0.000      0.000
REMARK  Name = 
REMARK  4 active torsions:
REMARK  status: ('A' for Active; 'I' for Inactive)
REMARK    1  A    between atoms: C_2  and  C_23
REMARK    2  A    between atoms: N_3  and  C_4
REMARK    3  A    between atoms: C_11  and  C_13
REMARK    4  A    between atoms: C_17  and  C_18
REMARK                            x       y       z     vdW  Elec       q    Type
REMARK                         _______ _______ _______ _____ _____    ______ ____
ROOT
ATOM      1  C   UNL     1       6.955   5.374  16.591  0.00  0.00    +0.000 C 
ATOM      2  C   UNL     1       6.169   6.672  16.876  0.00  0.00    +0.000 C 
ATOM      3  C   UNL     1       5.752   6.489  18.347  0.00  0.00    +0.000 C 
ATOM      4  C   UNL     1       6.973   5.768  18.925  0.00  0.00    +0.000 C 
ATOM      5  C   UNL     1       6.862   4.606  17.932  0.00  0.00    +0.000 C 
ATOM      6  C   UNL     1       5.416   4.156  18.209  0.00  0.00    +0.000 C 
ATOM      7  N   UNL     1       4.731   5.435  18.376  0.00  0.00    +0.000 N 
ATOM      8  C   UNL     1       3.371   5.486  18.618  0.00  0.00    +0.000 C 
ATOM      9  O   UNL     1       2.699   4.463  18.737  0.00  0.00    +0.000 OA
ENDROOT
BRANCH   8  10
ATOM     10  C   UNL     1       2.671   6.797  18.747  0.00  0.00    +0.000 A 
ATOM     11  C   UNL     1       2.689   7.677  17.659  0.00  0.00    +0.000 A 
ATOM     12  C   UNL     1       2.081   8.933  17.754  0.00  0.00    +0.000 A 
ATOM     13  C   UNL     1       1.444   9.318  18.935  0.00  0.00    +0.000 A 
ATOM     14  C   UNL     1       1.434   8.461  20.041  0.00  0.00    +0.000 A 
ATOM     15  C   UNL     1       2.073   7.215  19.939  0.00  0.00    +0.000 A 
BRANCH  14  16
ATOM     16  C   UNL     1       0.758   8.829  21.338  0.00  0.00    +0.000 C 
ATOM     17  F   UNL     1       0.265  10.099  21.363  0.00  0.00    +0.000 F 
ATOM     18  F   UNL     1      -0.293   8.010  21.616  0.00  0.00    +0.000 F 
ATOM     19  F   UNL     1       1.598   8.729  22.406  0.00  0.00    +0.000 F 
ENDBRANCH  14  16
ENDBRANCH   8  10
BRANCH   1  22
ATOM     20  O   UNL     1       7.913   5.523  13.934  0.00  0.00    +0.000 OA
ATOM     21  C   UNL     1       6.990   4.760  14.196  0.00  0.00    +0.000 C 
ATOM     22  N   UNL     1       6.436   4.644  15.453  0.00  0.00    +0.000 N 
ATOM     23  H   UNL     1       5.649   4.025  15.596  0.00  0.00    +0.000 HD
BRANCH  21  24
ATOM     24  C   UNL     1       6.384   3.919  13.125  0.00  0.00    +0.000 A 
ATOM     25  C   UNL     1       7.163   3.117  12.281  0.00  0.00    +0.000 A 
ATOM     26  C   UNL     1       6.553   2.361  11.276  0.00  0.00    +0.000 A 
ATOM     27  C   UNL     1       5.169   2.407  11.110  0.00  0.00    +0.000 A 
ATOM     28  C   UNL     1       4.389   3.209  11.944  0.00  0.00    +0.000 A 
ATOM     29  C   UNL     1       4.996   3.966  12.947  0.00  0.00    +0.000 A 
ENDBRANCH  21  24
ENDBRANCH   1  22
TORSDOF 4
ENDMDL
MODEL 2
REMARK VINA RESULT:      -9.1      0.082      1.153
REMARK  Name = 
REMARK  4 active torsions:
REMARK  status: ('A' for Active; 'I' for Inactive)
REMARK    1  A    between atoms: C_2  and  C_23
REMARK    2  A    between atoms: N_3  and  C_4
REMARK    3  A    between atoms: C_11  and  C_13
REMARK    4  A    between atoms: C_17  and  C_18
REMARK                            x       y       z     vdW  Elec       q    Type
REMARK                         _______ _______ _______ _____ _____    ______ ____
ROOT
ATOM      1  C   UNL     1       6.973   5.388  16.634  0.00  0.00    +0.000 C 
ATOM      2  C   UNL     1       6.189   6.688  16.918  0.00  0.00    +0.000 C 
ATOM      3  C   UNL     1       5.762   6.501  18.386  0.00  0.00    +0.000 C 
ATOM      4  C   UNL     1       6.976   5.774  18.970  0.00  0.00    +0.000 C 
ATOM      5  C   UNL     1       6.867   4.616  17.972  0.00  0.00    +0.000 C 
ATOM      6  C   UNL     1       5.418   4.169  18.237  0.00  0.00    +0.000 C 
ATOM      7  N   UNL     1       4.737   5.450  18.404  0.00  0.00    +0.000 N 
ATOM      8  C   UNL     1       3.375   5.505  18.637  0.00  0.00    +0.000 C 
ATOM      9  O   UNL     1       2.699   4.484  18.748  0.00  0.00    +0.000 OA
ENDROOT
BRANCH   8  10
ATOM     10  C   UNL     1       2.678   6.818  18.766  0.00  0.00    +0.000 A 
ATOM     11  C   UNL     1       2.713   7.705  17.684  0.00  0.00    +0.000 A 
ATOM     12  C   UNL     1       2.108   8.962  17.780  0.00  0.00    +0.000 A 
ATOM     13  C   UNL     1       1.459   9.342  18.956  0.00  0.00    +0.000 A 
ATOM     14  C   UNL     1       1.433   8.478  20.056  0.00  0.00    +0.000 A 
ATOM     15  C   UNL     1       2.068   7.231  19.954  0.00  0.00    +0.000 A 
BRANCH  14  16
ATOM     16  C   UNL     1       0.743   8.841  21.347  0.00  0.00    +0.000 C 
ATOM     17  F   UNL     1      -0.362   8.090  21.612  0.00  0.00    +0.000 F 
ATOM     18  F   UNL     1       1.565   8.698  22.423  0.00  0.00    +0.000 F 
ATOM     19  F   UNL     1       0.330  10.139  21.367  0.00  0.00    +0.000 F 
ENDBRANCH  14  16
ENDBRANCH   8  10
BRANCH   1  22
ATOM     20  O   UNL     1       7.904   5.595  13.972  0.00  0.00    +0.000 OA
ATOM     21  C   UNL     1       6.999   4.810  14.230  0.00  0.00    +0.000 C 
ATOM     22  N   UNL     1       6.458   4.664  15.490  0.00  0.00    +0.000 N 
ATOM     23  H   UNL     1       5.686   4.028  15.631  0.00  0.00    +0.000 HD
BRANCH  21  24
ATOM     24  C   UNL     1       6.402   3.973  13.153  0.00  0.00    +0.000 A 
ATOM     25  C   UNL     1       5.020   3.929  12.925  0.00  0.00    +0.000 A 
ATOM     26  C   UNL     1       4.503   3.112  11.916  0.00  0.00    +0.000 A 
ATOM     27  C   UNL     1       5.360   2.336  11.137  0.00  0.00    +0.000 A 
ATOM     28  C   UNL     1       6.736   2.370  11.363  0.00  0.00    +0.000 A 
ATOM     29  C   UNL     1       7.255   3.184  12.371  0.00  0.00    +0.000 A 
ENDBRANCH  21  24
ENDBRANCH   1  22
TORSDOF 4
ENDMDL
MODEL 3
REMARK VINA RESULT:      -8.2      1.506      2.065
REMARK  Name = 
REMARK  4 active torsions:
REMARK  status: ('A' for Active; 'I' for Inactive)
REMARK    1  A    between atoms: C_2  and  C_23
REMARK    2  A    between atoms: N_3  and  C_4
REMARK    3  A    between atoms: C_11  and  C_13
REMARK    4  A    between atoms: C_17  and  C_18
REMARK                            x       y       z     vdW  Elec       q    Type
REMARK                         _______ _______ _______ _____ _____    ______ ____
ROOT
ATOM      1  C   UNL     1       7.019   5.632  16.421  0.00  0.00    +0.000 C 
ATOM      2  C   UNL     1       6.058   6.712  16.962  0.00  0.00    +0.000 C 
ATOM      3  C   UNL     1       5.981   6.365  18.460  0.00  0.00    +0.000 C 
ATOM      4  C   UNL     1       7.410   5.894  18.741  0.00  0.00    +0.000 C 
ATOM      5  C   UNL     1       7.345   4.790  17.680  0.00  0.00    +0.000 C 
ATOM      6  C   UNL     1       6.101   4.025  18.166  0.00  0.00    +0.000 C 
ATOM      7  N   UNL     1       5.219   5.115  18.572  0.00  0.00    +0.000 N 
ATOM      8  C   UNL     1       3.949   4.859  19.057  0.00  0.00    +0.000 C 
ATOM      9  O   UNL     1       3.534   3.710  19.197  0.00  0.00    +0.000 OA
ENDROOT
BRANCH   8  10
ATOM     10  C   UNL     1       3.038   5.978  19.431  0.00  0.00    +0.000 A 
ATOM     11  C   UNL     1       2.366   5.915  20.657  0.00  0.00    +0.000 A 
ATOM     12  C   UNL     1       1.471   6.925  21.026  0.00  0.00    +0.000 A 
ATOM     13  C   UNL     1       1.243   8.008  20.176  0.00  0.00    +0.000 A 
ATOM     14  C   UNL     1       1.889   8.078  18.937  0.00  0.00    +0.000 A 
ATOM     15  C   UNL     1       2.764   7.043  18.569  0.00  0.00    +0.000 A 
BRANCH  14  16
ATOM     16  C   UNL     1       1.679   9.228  17.985  0.00  0.00    +0.000 C 
ATOM     17  F   UNL     1       0.405   9.330  17.514  0.00  0.00    +0.000 F 
ATOM     18  F   UNL     1       1.966  10.428  18.562  0.00  0.00    +0.000 F 
ATOM     19  F   UNL     1       2.481   9.145  16.887  0.00  0.00    +0.000 F 
ENDBRANCH  14  16
ENDBRANCH   8  10
BRANCH   1  22
ATOM     20  O   UNL     1       8.028   5.475  13.784  0.00  0.00    +0.000 OA
ATOM     21  C   UNL     1       7.029   4.831  14.082  0.00  0.00    +0.000 C 
ATOM     22  N   UNL     1       6.446   4.870  15.331  0.00  0.00    +0.000 N 
ATOM     23  H   UNL     1       5.599   4.346  15.503  0.00  0.00    +0.000 HD
BRANCH  21  24
ATOM     24  C   UNL     1       6.359   3.973  13.065  0.00  0.00    +0.000 A 
ATOM     25  C   UNL     1       7.081   3.122  12.218  0.00  0.00    +0.000 A 
ATOM     26  C   UNL     1       6.411   2.351  11.265  0.00  0.00    +0.000 A 
ATOM     27  C   UNL     1       5.023   2.429  11.152  0.00  0.00    +0.000 A 
ATOM     28  C   UNL     1       4.300   3.279  11.989  0.00  0.00    +0.000 A 
ATOM     29  C   UNL     1       4.966   4.052  12.940  0.00  0.00    +0.000 A 
ENDBRANCH  21  24
ENDBRANCH   1  22
TORSDOF 4
ENDMDL
MODEL 4
REMARK VINA RESULT:      -8.1      1.474      2.241
REMARK  Name = 
REMARK  4 active torsions:
REMARK  status: ('A' for Active; 'I' for Inactive)
REMARK    1  A    between atoms: C_2  and  C_23
REMARK    2  A    between atoms: N_3  and  C_4
REMARK    3  A    between atoms: C_11  and  C_13
REMARK    4  A    between atoms: C_17  and  C_18
REMARK                            x       y       z     vdW  Elec       q    Type
REMARK                         _______ _______ _______ _____ _____    ______ ____
ROOT
ATOM      1  C   UNL     1       6.960   5.675  16.498  0.00  0.00    +0.000 C 
ATOM      2  C   UNL     1       6.018   6.765  17.053  0.00  0.00    +0.000 C 
ATOM      3  C   UNL     1       5.912   6.385  18.541  0.00  0.00    +0.000 C 
ATOM      4  C   UNL     1       7.326   5.874  18.829  0.00  0.00    +0.000 C 
ATOM      5  C   UNL     1       7.249   4.797  17.741  0.00  0.00    +0.000 C 
ATOM      6  C   UNL     1       5.981   4.050  18.193  0.00  0.00    +0.000 C 
ATOM      7  N   UNL     1       5.119   5.152  18.614  0.00  0.00    +0.000 N 
ATOM      8  C   UNL     1       3.838   4.914  19.076  0.00  0.00    +0.000 C 
ATOM      9  O   UNL     1       3.393   3.773  19.184  0.00  0.00    +0.000 OA
ENDROOT
BRANCH   8  10
ATOM     10  C   UNL     1       2.949   6.047  19.465  0.00  0.00    +0.000 A 
ATOM     11  C   UNL     1       2.296   5.993  20.702  0.00  0.00    +0.000 A 
ATOM     12  C   UNL     1       1.421   7.015  21.086  0.00  0.00    +0.000 A 
ATOM     13  C   UNL     1       1.195   8.101  20.240  0.00  0.00    +0.000 A 
ATOM     14  C   UNL     1       1.821   8.162  18.990  0.00  0.00    +0.000 A 
ATOM     15  C   UNL     1       2.675   7.115  18.608  0.00  0.00    +0.000 A 
BRANCH  14  16
ATOM     16  C   UNL     1       1.612   9.316  18.041  0.00  0.00    +0.000 C 
ATOM     17  F   UNL     1       1.779  10.540  18.615  0.00  0.00    +0.000 F 
ATOM     18  F   UNL     1       2.472   9.272  16.987  0.00  0.00    +0.000 F 
ATOM     19  F   UNL     1       0.362   9.320  17.499  0.00  0.00    +0.000 F 
ENDBRANCH  14  16
ENDBRANCH   8  10
BRANCH   1  22
ATOM     20  O   UNL     1       8.094   5.403  13.922  0.00  0.00    +0.000 OA
ATOM     21  C   UNL     1       7.028   4.850  14.169  0.00  0.00    +0.000 C 
ATOM     22  N   UNL     1       6.384   4.953  15.383  0.00  0.00    +0.000 N 
ATOM     23  H   UNL     1       5.487   4.505  15.512  0.00  0.00    +0.000 HD
BRANCH  21  24
ATOM     24  C   UNL     1       6.343   4.041  13.122  0.00  0.00    +0.000 A 
ATOM     25  C   UNL     1       4.947   4.002  13.010  0.00  0.00    +0.000 A 
ATOM     26  C   UNL     1       4.347   3.212  12.026  0.00  0.00    +0.000 A 
ATOM     27  C   UNL     1       5.135   2.458  11.157  0.00  0.00    +0.000 A 
ATOM     28  C   UNL     1       6.526   2.489  11.269  0.00  0.00    +0.000 A 
ATOM     29  C   UNL     1       7.127   3.276  12.251  0.00  0.00    +0.000 A 
ENDBRANCH  21  24
ENDBRANCH   1  22
TORSDOF 4
ENDMDL
MODEL 5
REMARK VINA RESULT:      -8.0      1.122      1.821
REMARK  Name = 
REMARK  4 active torsions:
REMARK  status: ('A' for Active; 'I' for Inactive)
REMARK    1  A    between atoms: C_2  and  C_23
REMARK    2  A    between atoms: N_3  and  C_4
REMARK    3  A    between atoms: C_11  and  C_13
REMARK    4  A    between atoms: C_17  and  C_18
REMARK                            x       y       z     vdW  Elec       q    Type
REMARK                         _______ _______ _______ _____ _____    ______ ____
ROOT
ATOM      1  C   UNL     1       6.180   4.340  17.961  0.00  0.00    +0.000 C 
ATOM      2  C   UNL     1       5.745   5.760  18.385  0.00  0.00    +0.000 C 
ATOM      3  C   UNL     1       4.582   5.474  19.352  0.00  0.00    +0.000 C 
ATOM      4  C   UNL     1       5.064   4.197  20.044  0.00  0.00    +0.000 C 
ATOM      5  C   UNL     1       5.188   3.428  18.724  0.00  0.00    +0.000 C 
ATOM      6  C   UNL     1       3.758   3.596  18.181  0.00  0.00    +0.000 C 
ATOM      7  N   UNL     1       3.462   4.980  18.542  0.00  0.00    +0.000 N 
ATOM      8  C   UNL     1       2.252   5.559  18.204  0.00  0.00    +0.000 C 
ATOM      9  O   UNL     1       1.374   4.924  17.624  0.00  0.00    +0.000 OA
ENDROOT
BRANCH   8  10
ATOM     10  C   UNL     1       1.973   6.985  18.540  0.00  0.00    +0.000 A 
ATOM     11  C   UNL     1       2.221   7.964  17.570  0.00  0.00    +0.000 A 
ATOM     12  C   UNL     1       2.012   9.316  17.859  0.00  0.00    +0.000 A 
ATOM     13  C   UNL     1       1.548   9.702  19.118  0.00  0.00    +0.000 A 
ATOM     14  C   UNL     1       1.315   8.741  20.108  0.00  0.00    +0.000 A 
ATOM     15  C   UNL     1       1.556   7.390  19.811  0.00  0.00    +0.000 A 
BRANCH  14  16
ATOM     16  C   UNL     1       0.812   9.106  21.481  0.00  0.00    +0.000 C 
ATOM     17  F   UNL     1      -0.324   8.449  21.846  0.00  0.00    +0.000 F 
ATOM     18  F   UNL     1       1.731   8.839  22.450  0.00  0.00    +0.000 F 
ATOM     19  F   UNL     1       0.532  10.435  21.594  0.00  0.00    +0.000 F 
ENDBRANCH  14  16
ENDBRANCH   8  10
BRANCH   1  22
ATOM     20  O   UNL     1       7.589   5.900  16.069  0.00  0.00    +0.000 OA
ATOM     21  C   UNL     1       6.914   4.953  15.681  0.00  0.00    +0.000 C 
ATOM     22  N   UNL     1       6.169   4.157  16.525  0.00  0.00    +0.000 N 
ATOM     23  H   UNL     1       5.601   3.415  16.139  0.00  0.00    +0.000 HD
BRANCH  21  24
ATOM     24  C   UNL     1       6.843   4.627  14.229  0.00  0.00    +0.000 A 
ATOM     25  C   UNL     1       5.968   3.655  13.728  0.00  0.00    +0.000 A 
ATOM     26  C   UNL     1       5.951   3.367  12.361  0.00  0.00    +0.000 A 
ATOM     27  C   UNL     1       6.807   4.044  11.493  0.00  0.00    +0.000 A 
ATOM     28  C   UNL     1       7.685   5.009  11.988  0.00  0.00    +0.000 A 
ATOM     29  C   UNL     1       7.706   5.297  13.353  0.00  0.00    +0.000 A 
ENDBRANCH  21  24
ENDBRANCH   1  22
TORSDOF 4
ENDMDL
MODEL 6
REMARK VINA RESULT:      -7.9      3.786      6.280
REMARK  Name = 
REMARK  4 active torsions:
REMARK  status: ('A' for Active; 'I' for Inactive)
REMARK    1  A    between atoms: C_2  and  C_23
REMARK    2  A    between atoms: N_3  and  C_4
REMARK    3  A    between atoms: C_11  and  C_13
REMARK    4  A    between atoms: C_17  and  C_18
REMARK                            x       y       z     vdW  Elec       q    Type
REMARK                         _______ _______ _______ _____ _____    ______ ____
ROOT
ATOM      1  C   UNL     1       7.178   6.344  16.816  0.00  0.00    +0.000 C 
ATOM      2  C   UNL     1       6.389   5.664  17.956  0.00  0.00    +0.000 C 
ATOM      3  C   UNL     1       5.114   5.188  17.237  0.00  0.00    +0.000 C 
ATOM      4  C   UNL     1       5.663   4.793  15.864  0.00  0.00    +0.000 C 
ATOM      5  C   UNL     1       6.234   6.190  15.597  0.00  0.00    +0.000 C 
ATOM      6  C   UNL     1       4.961   7.037  15.777  0.00  0.00    +0.000 C 
ATOM      7  N   UNL     1       4.327   6.386  16.919  0.00  0.00    +0.000 N 
ATOM      8  C   UNL     1       3.139   6.864  17.441  0.00  0.00    +0.000 C 
ATOM      9  O   UNL     1       2.558   7.826  16.941  0.00  0.00    +0.000 OA
ENDROOT
BRANCH   8  10
ATOM     10  C   UNL     1       2.518   6.219  18.633  0.00  0.00    +0.000 A 
ATOM     11  C   UNL     1       2.288   6.998  19.774  0.00  0.00    +0.000 A 
ATOM     12  C   UNL     1       1.747   6.421  20.927  0.00  0.00    +0.000 A 
ATOM     13  C   UNL     1       1.425   5.063  20.949  0.00  0.00    +0.000 A 
ATOM     14  C   UNL     1       1.668   4.264  19.827  0.00  0.00    +0.000 A 
ATOM     15  C   UNL     1       2.237   4.852  18.686  0.00  0.00    +0.000 A 
BRANCH  14  16
ATOM     16  C   UNL     1       1.335   2.793  19.800  0.00  0.00    +0.000 C 
ATOM     17  F   UNL     1       2.295   2.021  19.219  0.00  0.00    +0.000 F 
ATOM     18  F   UNL     1       1.151   2.288  21.052  0.00  0.00    +0.000 F 
ATOM     19  F   UNL     1       0.182   2.535  19.124  0.00  0.00    +0.000 F 
ENDBRANCH  14  16
ENDBRANCH   8  10
BRANCH   1  22
ATOM     20  O   UNL     1       8.607   7.232  19.088  0.00  0.00    +0.000 OA
ATOM     21  C   UNL     1       8.259   8.048  18.243  0.00  0.00    +0.000 C 
ATOM     22  N   UNL     1       7.532   7.715  17.121  0.00  0.00    +0.000 N 
ATOM     23  H   UNL     1       7.241   8.441  16.481  0.00  0.00    +0.000 HD
BRANCH  21  24
ATOM     24  C   UNL     1       8.591   9.491  18.412  0.00  0.00    +0.000 A 
ATOM     25  C   UNL     1       8.134  10.468  17.518  0.00  0.00    +0.000 A 
ATOM     26  C   UNL     1       8.488  11.807  17.705  0.00  0.00    +0.000 A 
ATOM     27  C   UNL     1       9.300  12.172  18.778  0.00  0.00    +0.000 A 
ATOM     28  C   UNL     1       9.763  11.202  19.668  0.00  0.00    +0.000 A 
ATOM     29  C   UNL     1       9.412   9.865  19.483  0.00  0.00    +0.000 A 
ENDBRANCH  21  24
ENDBRANCH   1  22
TORSDOF 4
ENDMDL
MODEL 7
REMARK VINA RESULT:      -7.8      3.763      6.215
REMARK  Name = 
REMARK  4 active torsions:
REMARK  status: ('A' for Active; 'I' for Inactive)
REMARK    1  A    between atoms: C_2  and  C_23
REMARK    2  A    between atoms: N_3  and  C_4
REMARK    3  A    between atoms: C_11  and  C_13
REMARK    4  A    between atoms: C_17  and  C_18
REMARK                            x       y       z     vdW  Elec       q    Type
REMARK                         _______ _______ _______ _____ _____    ______ ____
ROOT
ATOM      1  C   UNL     1       7.193   6.334  16.876  0.00  0.00    +0.000 C 
ATOM      2  C   UNL     1       6.385   5.675  18.014  0.00  0.00    +0.000 C 
ATOM      3  C   UNL     1       5.105   5.220  17.289  0.00  0.00    +0.000 C 
ATOM      4  C   UNL     1       5.655   4.808  15.922  0.00  0.00    +0.000 C 
ATOM      5  C   UNL     1       6.254   6.193  15.652  0.00  0.00    +0.000 C 
ATOM      6  C   UNL     1       4.997   7.065  15.819  0.00  0.00    +0.000 C 
ATOM      7  N   UNL     1       4.343   6.432  16.961  0.00  0.00    +0.000 N 
ATOM      8  C   UNL     1       3.161   6.935  17.472  0.00  0.00    +0.000 C 
ATOM      9  O   UNL     1       2.602   7.906  16.965  0.00  0.00    +0.000 OA
ENDROOT
BRANCH   8  10
ATOM     10  C   UNL     1       2.520   6.308  18.664  0.00  0.00    +0.000 A 
ATOM     11  C   UNL     1       2.254   7.107  19.782  0.00  0.00    +0.000 A 
ATOM     12  C   UNL     1       1.693   6.549  20.934  0.00  0.00    +0.000 A 
ATOM     13  C   UNL     1       1.388   5.188  20.978  0.00  0.00    +0.000 A 
ATOM     14  C   UNL     1       1.666   4.367  19.880  0.00  0.00    +0.000 A 
ATOM     15  C   UNL     1       2.255   4.938  18.740  0.00  0.00    +0.000 A 
BRANCH  14  16
ATOM     16  C   UNL     1       1.353   2.892  19.877  0.00  0.00    +0.000 C 
ATOM     17  F   UNL     1       0.989   2.403  21.095  0.00  0.00    +0.000 F 
ATOM     18  F   UNL     1       0.333   2.588  19.028  0.00  0.00    +0.000 F 
ATOM     19  F   UNL     1       2.411   2.139  19.469  0.00  0.00    +0.000 F 
ENDBRANCH  14  16
ENDBRANCH   8  10
BRANCH   1  22
ATOM     20  O   UNL     1       8.607   7.208  19.164  0.00  0.00    +0.000 OA
ATOM     21  C   UNL     1       8.289   8.025  18.308  0.00  0.00    +0.000 C 
ATOM     22  N   UNL     1       7.571   7.700  17.177  0.00  0.00    +0.000 N 
ATOM     23  H   UNL     1       7.305   8.427  16.528  0.00  0.00    +0.000 HD
BRANCH  21  24
ATOM     24  C   UNL     1       8.649   9.462  18.472  0.00  0.00    +0.000 A 
ATOM     25  C   UNL     1       9.432   9.914  19.542  0.00  0.00    +0.000 A 
ATOM     26  C   UNL     1       9.727  11.274  19.667  0.00  0.00    +0.000 A 
ATOM     27  C   UNL     1       9.239  12.185  18.730  0.00  0.00    +0.000 A 
ATOM     28  C   UNL     1       8.452  11.741  17.667  0.00  0.00    +0.000 A 
ATOM     29  C   UNL     1       8.155  10.383  17.540  0.00  0.00    +0.000 A 
ENDBRANCH  21  24
ENDBRANCH   1  22
TORSDOF 4
ENDMDL
MODEL 8
REMARK VINA RESULT:      -7.8      1.480      2.429
REMARK  Name = 
REMARK  4 active torsions:
REMARK  status: ('A' for Active; 'I' for Inactive)
REMARK    1  A    between atoms: C_2  and  C_23
REMARK    2  A    between atoms: N_3  and  C_4
REMARK    3  A    between atoms: C_11  and  C_13
REMARK    4  A    between atoms: C_17  and  C_18
REMARK                            x       y       z     vdW  Elec       q    Type
REMARK                         _______ _______ _______ _____ _____    ______ ____
ROOT
ATOM      1  C   UNL     1       6.212   6.185  15.715  0.00  0.00    +0.000 C 
ATOM      2  C   UNL     1       4.943   6.541  16.520  0.00  0.00    +0.000 C 
ATOM      3  C   UNL     1       5.390   6.289  17.971  0.00  0.00    +0.000 C 
ATOM      4  C   UNL     1       6.852   6.741  17.926  0.00  0.00    +0.000 C 
ATOM      5  C   UNL     1       7.212   5.749  16.815  0.00  0.00    +0.000 C 
ATOM      6  C   UNL     1       6.764   4.433  17.476  0.00  0.00    +0.000 C 
ATOM      7  N   UNL     1       5.524   4.836  18.133  0.00  0.00    +0.000 N 
ATOM      8  C   UNL     1       4.764   3.921  18.838  0.00  0.00    +0.000 C 
ATOM      9  O   UNL     1       5.120   2.751  18.967  0.00  0.00    +0.000 OA
ENDROOT
BRANCH   8  10
ATOM     10  C   UNL     1       3.477   4.330  19.472  0.00  0.00    +0.000 A 
ATOM     11  C   UNL     1       2.540   3.339  19.788  0.00  0.00    +0.000 A 
ATOM     12  C   UNL     1       1.305   3.685  20.345  0.00  0.00    +0.000 A 
ATOM     13  C   UNL     1       0.997   5.023  20.596  0.00  0.00    +0.000 A 
ATOM     14  C   UNL     1       1.911   6.030  20.266  0.00  0.00    +0.000 A 
ATOM     15  C   UNL     1       3.136   5.668  19.682  0.00  0.00    +0.000 A 
BRANCH  14  16
ATOM     16  C   UNL     1       1.627   7.489  20.519  0.00  0.00    +0.000 C 
ATOM     17  F   UNL     1       1.868   8.293  19.446  0.00  0.00    +0.000 F 
ATOM     18  F   UNL     1       0.328   7.703  20.868  0.00  0.00    +0.000 F 
ATOM     19  F   UNL     1       2.372   7.991  21.543  0.00  0.00    +0.000 F 
ENDBRANCH  14  16
ENDBRANCH   8  10
BRANCH   1  22
ATOM     20  O   UNL     1       7.900   5.572  13.531  0.00  0.00    +0.000 OA
ATOM     21  C   UNL     1       6.868   4.930  13.689  0.00  0.00    +0.000 C 
ATOM     22  N   UNL     1       5.968   5.177  14.704  0.00  0.00    +0.000 N 
ATOM     23  H   UNL     1       5.115   4.638  14.757  0.00  0.00    +0.000 HD
BRANCH  21  24
ATOM     24  C   UNL     1       6.511   3.836  12.741  0.00  0.00    +0.000 A 
ATOM     25  C   UNL     1       5.183   3.456  12.511  0.00  0.00    +0.000 A 
ATOM     26  C   UNL     1       4.897   2.410  11.629  0.00  0.00    +0.000 A 
ATOM     27  C   UNL     1       5.934   1.741  10.980  0.00  0.00    +0.000 A 
ATOM     28  C   UNL     1       7.259   2.111  11.211  0.00  0.00    +0.000 A 
ATOM     29  C   UNL     1       7.547   3.154  12.092  0.00  0.00    +0.000 A 
ENDBRANCH  21  24
ENDBRANCH   1  22
TORSDOF 4
ENDMDL
MODEL 9
REMARK VINA RESULT:      -7.8      4.180      8.355
REMARK  Name = 
REMARK  4 active torsions:
REMARK  status: ('A' for Active; 'I' for Inactive)
REMARK    1  A    between atoms: C_2  and  C_23
REMARK    2  A    between atoms: N_3  and  C_4
REMARK    3  A    between atoms: C_11  and  C_13
REMARK    4  A    between atoms: C_17  and  C_18
REMARK                            x       y       z     vdW  Elec       q    Type
REMARK                         _______ _______ _______ _____ _____    ______ ____
ROOT
ATOM      1  C   UNL     1       3.176   4.534  18.086  0.00  0.00    +0.000 C 
ATOM      2  C   UNL     1       3.469   4.087  16.638  0.00  0.00    +0.000 C 
ATOM      3  C   UNL     1       4.923   3.592  16.732  0.00  0.00    +0.000 C 
ATOM      4  C   UNL     1       4.944   2.960  18.126  0.00  0.00    +0.000 C 
ATOM      5  C   UNL     1       4.516   4.260  18.814  0.00  0.00    +0.000 C 
ATOM      6  C   UNL     1       5.620   5.206  18.309  0.00  0.00    +0.000 C 
ATOM      7  N   UNL     1       5.768   4.778  16.921  0.00  0.00    +0.000 N 
ATOM      8  C   UNL     1       6.665   5.406  16.076  0.00  0.00    +0.000 C 
ATOM      9  O   UNL     1       7.390   6.317  16.469  0.00  0.00    +0.000 OA
ENDROOT
BRANCH   8  10
ATOM     10  C   UNL     1       6.782   4.990  14.649  0.00  0.00    +0.000 A 
ATOM     11  C   UNL     1       7.926   5.363  13.933  0.00  0.00    +0.000 A 
ATOM     12  C   UNL     1       8.055   5.029  12.581  0.00  0.00    +0.000 A 
ATOM     13  C   UNL     1       7.046   4.315  11.934  0.00  0.00    +0.000 A 
ATOM     14  C   UNL     1       5.885   3.953  12.626  0.00  0.00    +0.000 A 
ATOM     15  C   UNL     1       5.758   4.320  13.975  0.00  0.00    +0.000 A 
BRANCH  14  16
ATOM     16  C   UNL     1       4.767   3.180  11.972  0.00  0.00    +0.000 C 
ATOM     17  F   UNL     1       5.133   1.942  11.537  0.00  0.00    +0.000 F 
ATOM     18  F   UNL     1       3.717   2.988  12.817  0.00  0.00    +0.000 F 
ATOM     19  F   UNL     1       4.256   3.825  10.887  0.00  0.00    +0.000 F 
ENDBRANCH  14  16
ENDBRANCH   8  10
BRANCH   1  22
ATOM     20  O   UNL     1       2.166   5.827  20.390  0.00  0.00    +0.000 OA
ATOM     21  C   UNL     1       2.278   6.462  19.347  0.00  0.00    +0.000 C 
ATOM     22  N   UNL     1       2.728   5.909  18.167  0.00  0.00    +0.000 N 
ATOM     23  H   UNL     1       2.760   6.476  17.331  0.00  0.00    +0.000 HD
BRANCH  21  24
ATOM     24  C   UNL     1       1.889   7.899  19.298  0.00  0.00    +0.000 A 
ATOM     25  C   UNL     1       1.314   8.551  20.397  0.00  0.00    +0.000 A 
ATOM     26  C   UNL     1       0.945   9.895  20.299  0.00  0.00    +0.000 A 
ATOM     27  C   UNL     1       1.145  10.589  19.106  0.00  0.00    +0.000 A 
ATOM     28  C   UNL     1       1.711   9.943  18.006  0.00  0.00    +0.000 A 
ATOM     29  C   UNL     1       2.078   8.601  18.101  0.00  0.00    +0.000 A 
ENDBRANCH  21  24
ENDBRANCH   1  22
TORSDOF 4
ENDMDL
