MODEL 1
REMARK VINA RESULT:      -7.2      0.000      0.000
REMARK  Name = 
REMARK  8 active torsions:
REMARK  status: ('A' for Active; 'I' for Inactive)
REMARK    1  A    between atoms: C_1  and  C_2
REMARK    2  A    between atoms: C_2  and  N_3
REMARK    3  A    between atoms: C_2  and  C_19
REMARK    4  A    between atoms: N_3  and  C_4
REMARK    5  A    between atoms: C_4  and  C_5
REMARK    6  A    between atoms: C_5  and  C_6
REMARK    7  A    between atoms: C_6  and  C_7
REMARK    8  A    between atoms: C_6  and  C_13
REMARK                            x       y       z     vdW  Elec       q    Type
REMARK                         _______ _______ _______ _____ _____    ______ ____
ROOT
ATOM      1  C   UNL     1       2.569   6.683  19.461  0.00  0.00    +0.000 C 
ENDROOT
BRANCH   1   2
ATOM      2  C   UNL     1       1.739   7.865  19.956  0.00  0.00    +0.000 A 
ATOM      3  C   UNL     1       1.199   7.892  21.251  0.00  0.00    +0.000 A 
ATOM      4  C   UNL     1       0.368   8.940  21.655  0.00  0.00    +0.000 A 
ATOM      5  C   UNL     1       0.074   9.979  20.775  0.00  0.00    +0.000 A 
ATOM      6  C   UNL     1       0.620   9.978  19.495  0.00  0.00    +0.000 A 
ATOM      7  C   UNL     1       1.450   8.931  19.088  0.00  0.00    +0.000 A 
ENDBRANCH   1   2
BRANCH   1   8
ATOM      8  C   UNL     1       2.051   5.339  19.977  0.00  0.00    +0.000 A 
ATOM      9  C   UNL     1       2.473   4.880  21.237  0.00  0.00    +0.000 A 
ATOM     10  C   UNL     1       2.059   3.638  21.723  0.00  0.00    +0.000 A 
ATOM     11  C   UNL     1       1.208   2.839  20.963  0.00  0.00    +0.000 A 
ATOM     12  C   UNL     1       0.760   3.288  19.724  0.00  0.00    +0.000 A 
ATOM     13  C   UNL     1       1.171   4.533  19.238  0.00  0.00    +0.000 A 
ENDBRANCH   1   8
BRANCH   1  14
ATOM     14  C   UNL     1       2.763   6.707  17.923  0.00  0.00    +0.000 C 
BRANCH  14  15
ATOM     15  C   UNL     1       4.156   7.184  17.508  0.00  0.00    +0.000 C 
BRANCH  15  16
ATOM     16  N   UNL     1       4.924   6.048  16.996  0.00  0.00    +0.000 NA
ATOM     17  H   UNL     1       4.304   5.416  16.489  0.00  0.00    +0.000 HD
BRANCH  16  19
ATOM     18  C   UNL     1       7.099   5.064  17.773  0.00  0.00    +0.000 C 
ATOM     19  C   UNL     1       5.603   5.279  18.050  0.00  0.00    +0.000 C 
BRANCH  19  20
ATOM     20  C   UNL     1       4.963   3.906  18.224  0.00  0.00    +0.000 A 
ATOM     21  C   UNL     1       4.142   3.387  17.211  0.00  0.00    +0.000 A 
ATOM     22  C   UNL     1       3.442   2.195  17.404  0.00  0.00    +0.000 A 
ATOM     23  C   UNL     1       3.560   1.502  18.608  0.00  0.00    +0.000 A 
ATOM     24  C   UNL     1       4.388   1.993  19.615  0.00  0.00    +0.000 A 
ATOM     25  C   UNL     1       5.083   3.188  19.426  0.00  0.00    +0.000 A 
ENDBRANCH  19  20
ENDBRANCH  16  19
ENDBRANCH  15  16
ENDBRANCH  14  15
ENDBRANCH   1  14
TORSDOF 7
ENDMDL
MODEL 2
REMARK VINA RESULT:      -7.2      1.876      3.003
REMARK  Name = 
REMARK  8 active torsions:
REMARK  status: ('A' for Active; 'I' for Inactive)
REMARK    1  A    between atoms: C_1  and  C_2
REMARK    2  A    between atoms: C_2  and  N_3
REMARK    3  A    between atoms: C_2  and  C_19
REMARK    4  A    between atoms: N_3  and  C_4
REMARK    5  A    between atoms: C_4  and  C_5
REMARK    6  A    between atoms: C_5  and  C_6
REMARK    7  A    between atoms: C_6  and  C_7
REMARK    8  A    between atoms: C_6  and  C_13
REMARK                            x       y       z     vdW  Elec       q    Type
REMARK                         _______ _______ _______ _____ _____    ______ ____
ROOT
ATOM      1  C   UNL     1       3.207   6.032  19.578  0.00  0.00    +0.000 C 
ENDROOT
BRANCH   1   2
ATOM      2  C   UNL     1       2.435   7.329  19.351  0.00  0.00    +0.000 A 
ATOM      3  C   UNL     1       1.707   7.942  20.383  0.00  0.00    +0.000 A 
ATOM      4  C   UNL     1       0.934   9.078  20.133  0.00  0.00    +0.000 A 
ATOM      5  C   UNL     1       0.885   9.623  18.851  0.00  0.00    +0.000 A 
ATOM      6  C   UNL     1       1.619   9.041  17.822  0.00  0.00    +0.000 A 
ATOM      7  C   UNL     1       2.391   7.904  18.069  0.00  0.00    +0.000 A 
ENDBRANCH   1   2
BRANCH   1   8
ATOM      8  C   UNL     1       2.312   4.793  19.517  0.00  0.00    +0.000 A 
ATOM      9  C   UNL     1       2.113   4.150  18.284  0.00  0.00    +0.000 A 
ATOM     10  C   UNL     1       1.267   3.044  18.179  0.00  0.00    +0.000 A 
ATOM     11  C   UNL     1       0.613   2.557  19.308  0.00  0.00    +0.000 A 
ATOM     12  C   UNL     1       0.817   3.165  20.542  0.00  0.00    +0.000 A 
ATOM     13  C   UNL     1       1.666   4.270  20.649  0.00  0.00    +0.000 A 
ENDBRANCH   1   8
BRANCH   1  14
ATOM     14  C   UNL     1       4.454   5.924  18.662  0.00  0.00    +0.000 C 
BRANCH  14  15
ATOM     15  C   UNL     1       5.659   5.305  19.372  0.00  0.00    +0.000 C 
BRANCH  15  16
ATOM     16  N   UNL     1       6.221   4.245  18.535  0.00  0.00    +0.000 NA
ATOM     17  H   UNL     1       6.634   3.523  19.127  0.00  0.00    +0.000 HD
BRANCH  16  19
ATOM     18  C   UNL     1       7.644   6.189  17.829  0.00  0.00    +0.000 C 
ATOM     19  C   UNL     1       7.254   4.721  17.603  0.00  0.00    +0.000 C 
BRANCH  19  20
ATOM     20  C   UNL     1       6.790   4.584  16.156  0.00  0.00    +0.000 A 
ATOM     21  C   UNL     1       5.642   3.834  15.862  0.00  0.00    +0.000 A 
ATOM     22  C   UNL     1       5.275   3.585  14.539  0.00  0.00    +0.000 A 
ATOM     23  C   UNL     1       6.046   4.090  13.493  0.00  0.00    +0.000 A 
ATOM     24  C   UNL     1       7.177   4.855  13.769  0.00  0.00    +0.000 A 
ATOM     25  C   UNL     1       7.549   5.098  15.091  0.00  0.00    +0.000 A 
ENDBRANCH  19  20
ENDBRANCH  16  19
ENDBRANCH  15  16
ENDBRANCH  14  15
ENDBRANCH   1  14
TORSDOF 7
ENDMDL
MODEL 3
REMARK VINA RESULT:      -7.2      1.835      3.121
REMARK  Name = 
REMARK  8 active torsions:
REMARK  status: ('A' for Active; 'I' for Inactive)
REMARK    1  A    between atoms: C_1  and  C_2
REMARK    2  A    between atoms: C_2  and  N_3
REMARK    3  A    between atoms: C_2  and  C_19
REMARK    4  A    between atoms: N_3  and  C_4
REMARK    5  A    between atoms: C_4  and  C_5
REMARK    6  A    between atoms: C_5  and  C_6
REMARK    7  A    between atoms: C_6  and  C_7
REMARK    8  A    between atoms: C_6  and  C_13
REMARK                            x       y       z     vdW  Elec       q    Type
REMARK                         _______ _______ _______ _____ _____    ______ ____
ROOT
ATOM      1  C   UNL     1       3.240   6.018  19.594  0.00  0.00    +0.000 C 
ENDROOT
BRANCH   1   2
ATOM      2  C   UNL     1       2.431   7.282  19.315  0.00  0.00    +0.000 A 
ATOM      3  C   UNL     1       2.455   7.908  18.059  0.00  0.00    +0.000 A 
ATOM      4  C   UNL     1       1.780   9.112  17.849  0.00  0.00    +0.000 A 
ATOM      5  C   UNL     1       1.064   9.703  18.889  0.00  0.00    +0.000 A 
ATOM      6  C   UNL     1       1.011   9.083  20.134  0.00  0.00    +0.000 A 
ATOM      7  C   UNL     1       1.686   7.879  20.346  0.00  0.00    +0.000 A 
ENDBRANCH   1   2
BRANCH   1   8
ATOM      8  C   UNL     1       2.373   4.757  19.627  0.00  0.00    +0.000 A 
ATOM      9  C   UNL     1       1.937   4.192  18.416  0.00  0.00    +0.000 A 
ATOM     10  C   UNL     1       1.108   3.069  18.406  0.00  0.00    +0.000 A 
ATOM     11  C   UNL     1       0.707   2.486  19.606  0.00  0.00    +0.000 A 
ATOM     12  C   UNL     1       1.150   3.016  20.814  0.00  0.00    +0.000 A 
ATOM     13  C   UNL     1       1.983   4.138  20.825  0.00  0.00    +0.000 A 
ENDBRANCH   1   8
BRANCH   1  14
ATOM     14  C   UNL     1       4.465   5.886  18.653  0.00  0.00    +0.000 C 
BRANCH  14  15
ATOM     15  C   UNL     1       5.712   5.370  19.372  0.00  0.00    +0.000 C 
BRANCH  15  16
ATOM     16  N   UNL     1       6.312   4.291  18.587  0.00  0.00    +0.000 NA
ATOM     17  H   UNL     1       6.768   3.625  19.211  0.00  0.00    +0.000 HD
BRANCH  16  19
ATOM     18  C   UNL     1       7.591   6.268  17.715  0.00  0.00    +0.000 C 
ATOM     19  C   UNL     1       7.308   4.762  17.612  0.00  0.00    +0.000 C 
BRANCH  19  20
ATOM     20  C   UNL     1       6.855   4.474  16.184  0.00  0.00    +0.000 A 
ATOM     21  C   UNL     1       7.589   4.987  15.104  0.00  0.00    +0.000 A 
ATOM     22  C   UNL     1       7.121   4.849  13.797  0.00  0.00    +0.000 A 
ATOM     23  C   UNL     1       5.919   4.188  13.550  0.00  0.00    +0.000 A 
ATOM     24  C   UNL     1       5.189   3.653  14.610  0.00  0.00    +0.000 A 
ATOM     25  C   UNL     1       5.652   3.798  15.918  0.00  0.00    +0.000 A 
ENDBRANCH  19  20
ENDBRANCH  16  19
ENDBRANCH  15  16
ENDBRANCH  14  15
ENDBRANCH   1  14
TORSDOF 7
ENDMDL
MODEL 4
REMARK VINA RESULT:      -7.2      1.551      3.509
REMARK  Name = 
REMARK  8 active torsions:
REMARK  status: ('A' for Active; 'I' for Inactive)
REMARK    1  A    between atoms: C_1  and  C_2
REMARK    2  A    between atoms: C_2  and  N_3
REMARK    3  A    between atoms: C_2  and  C_19
REMARK    4  A    between atoms: N_3  and  C_4
REMARK    5  A    between atoms: C_4  and  C_5
REMARK    6  A    between atoms: C_5  and  C_6
REMARK    7  A    between atoms: C_6  and  C_7
REMARK    8  A    between atoms: C_6  and  C_13
REMARK                            x       y       z     vdW  Elec       q    Type
REMARK                         _______ _______ _______ _____ _____    ______ ____
ROOT
ATOM      1  C   UNL     1       3.234   5.426  18.765  0.00  0.00    +0.000 C 
ENDROOT
BRANCH   1   2
ATOM      2  C   UNL     1       2.550   6.791  18.813  0.00  0.00    +0.000 A 
ATOM      3  C   UNL     1       2.509   7.632  17.690  0.00  0.00    +0.000 A 
ATOM      4  C   UNL     1       1.958   8.912  17.779  0.00  0.00    +0.000 A 
ATOM      5  C   UNL     1       1.434   9.367  18.987  0.00  0.00    +0.000 A 
ATOM      6  C   UNL     1       1.447   8.537  20.104  0.00  0.00    +0.000 A 
ATOM      7  C   UNL     1       1.998   7.256  20.018  0.00  0.00    +0.000 A 
ENDBRANCH   1   2
BRANCH   1   8
ATOM      8  C   UNL     1       2.558   4.395  19.671  0.00  0.00    +0.000 A 
ATOM      9  C   UNL     1       1.247   3.980  19.379  0.00  0.00    +0.000 A 
ATOM     10  C   UNL     1       0.580   3.076  20.208  0.00  0.00    +0.000 A 
ATOM     11  C   UNL     1       1.215   2.564  21.337  0.00  0.00    +0.000 A 
ATOM     12  C   UNL     1       2.522   2.944  21.628  0.00  0.00    +0.000 A 
ATOM     13  C   UNL     1       3.192   3.846  20.797  0.00  0.00    +0.000 A 
ENDBRANCH   1   8
BRANCH   1  14
ATOM     14  C   UNL     1       3.431   4.920  17.313  0.00  0.00    +0.000 C 
BRANCH  14  15
ATOM     15  C   UNL     1       3.985   3.495  17.252  0.00  0.00    +0.000 C 
BRANCH  15  16
ATOM     16  N   UNL     1       5.340   3.527  16.701  0.00  0.00    +0.000 NA
ATOM     17  H   UNL     1       6.015   3.329  17.441  0.00  0.00    +0.000 HD
BRANCH  16  19
ATOM     18  C   UNL     1       6.346   4.671  14.706  0.00  0.00    +0.000 C 
ATOM     19  C   UNL     1       5.693   4.816  16.088  0.00  0.00    +0.000 C 
BRANCH  19  20
ATOM     20  C   UNL     1       6.658   5.598  16.975  0.00  0.00    +0.000 A 
ATOM     21  C   UNL     1       7.191   4.994  18.124  0.00  0.00    +0.000 A 
ATOM     22  C   UNL     1       7.969   5.732  19.018  0.00  0.00    +0.000 A 
ATOM     23  C   UNL     1       8.230   7.078  18.771  0.00  0.00    +0.000 A 
ATOM     24  C   UNL     1       7.725   7.686  17.624  0.00  0.00    +0.000 A 
ATOM     25  C   UNL     1       6.942   6.952  16.733  0.00  0.00    +0.000 A 
ENDBRANCH  19  20
ENDBRANCH  16  19
ENDBRANCH  15  16
ENDBRANCH  14  15
ENDBRANCH   1  14
TORSDOF 7
ENDMDL
MODEL 5
REMARK VINA RESULT:      -7.1      2.336      7.050
REMARK  Name = 
REMARK  8 active torsions:
REMARK  status: ('A' for Active; 'I' for Inactive)
REMARK    1  A    between atoms: C_1  and  C_2
REMARK    2  A    between atoms: C_2  and  N_3
REMARK    3  A    between atoms: C_2  and  C_19
REMARK    4  A    between atoms: N_3  and  C_4
REMARK    5  A    between atoms: C_4  and  C_5
REMARK    6  A    between atoms: C_5  and  C_6
REMARK    7  A    between atoms: C_6  and  C_7
REMARK    8  A    between atoms: C_6  and  C_13
REMARK                            x       y       z     vdW  Elec       q    Type
REMARK                         _______ _______ _______ _____ _____    ______ ____
ROOT
ATOM      1  C   UNL     1       3.028   6.450  18.675  0.00  0.00    +0.000 C 
ENDROOT
BRANCH   1   2
ATOM      2  C   UNL     1       2.204   5.216  19.038  0.00  0.00    +0.000 A 
ATOM      3  C   UNL     1       1.835   4.942  20.364  0.00  0.00    +0.000 A 
ATOM      4  C   UNL     1       1.160   3.763  20.687  0.00  0.00    +0.000 A 
ATOM      5  C   UNL     1       0.836   2.846  19.689  0.00  0.00    +0.000 A 
ATOM      6  C   UNL     1       1.175   3.113  18.366  0.00  0.00    +0.000 A 
ATOM      7  C   UNL     1       1.852   4.291  18.041  0.00  0.00    +0.000 A 
ENDBRANCH   1   2
BRANCH   1   8
ATOM      8  C   UNL     1       4.407   6.096  18.116  0.00  0.00    +0.000 A 
ATOM      9  C   UNL     1       4.718   6.438  16.789  0.00  0.00    +0.000 A 
ATOM     10  C   UNL     1       5.948   6.092  16.228  0.00  0.00    +0.000 A 
ATOM     11  C   UNL     1       6.893   5.406  16.987  0.00  0.00    +0.000 A 
ATOM     12  C   UNL     1       6.613   5.081  18.310  0.00  0.00    +0.000 A 
ATOM     13  C   UNL     1       5.383   5.430  18.874  0.00  0.00    +0.000 A 
ENDBRANCH   1   8
BRANCH   1  14
ATOM     14  C   UNL     1       2.242   7.434  17.772  0.00  0.00    +0.000 C 
BRANCH  14  15
ATOM     15  C   UNL     1       2.316   8.880  18.265  0.00  0.00    +0.000 C 
BRANCH  15  16
ATOM     16  N   UNL     1       1.200   9.641  17.701  0.00  0.00    +0.000 NA
ATOM     17  H   UNL     1       1.551  10.303  17.008  0.00  0.00    +0.000 HD
BRANCH  16  19
ATOM     18  C   UNL     1       0.494   9.761  20.108  0.00  0.00    +0.000 C 
ATOM     19  C   UNL     1       0.437  10.392  18.709  0.00  0.00    +0.000 C 
BRANCH  19  20
ATOM     20  C   UNL     1      -1.032  10.504  18.312  0.00  0.00    +0.000 A 
ATOM     21  C   UNL     1      -1.513   9.774  17.214  0.00  0.00    +0.000 A 
ATOM     22  C   UNL     1      -2.817   9.961  16.754  0.00  0.00    +0.000 A 
ATOM     23  C   UNL     1      -3.660  10.872  17.389  0.00  0.00    +0.000 A 
ATOM     24  C   UNL     1      -3.203  11.588  18.493  0.00  0.00    +0.000 A 
ATOM     25  C   UNL     1      -1.898  11.408  18.951  0.00  0.00    +0.000 A 
ENDBRANCH  19  20
ENDBRANCH  16  19
ENDBRANCH  15  16
ENDBRANCH  14  15
ENDBRANCH   1  14
TORSDOF 7
ENDMDL
MODEL 6
REMARK VINA RESULT:      -7.1      2.319      7.060
REMARK  Name = 
REMARK  8 active torsions:
REMARK  status: ('A' for Active; 'I' for Inactive)
REMARK    1  A    between atoms: C_1  and  C_2
REMARK    2  A    between atoms: C_2  and  N_3
REMARK    3  A    between atoms: C_2  and  C_19
REMARK    4  A    between atoms: N_3  and  C_4
REMARK    5  A    between atoms: C_4  and  C_5
REMARK    6  A    between atoms: C_5  and  C_6
REMARK    7  A    between atoms: C_6  and  C_7
REMARK    8  A    between atoms: C_6  and  C_13
REMARK                            x       y       z     vdW  Elec       q    Type
REMARK                         _______ _______ _______ _____ _____    ______ ____
ROOT
ATOM      1  C   UNL     1       3.264   6.443  18.436  0.00  0.00    +0.000 C 
ENDROOT
BRANCH   1   2
ATOM      2  C   UNL     1       2.353   5.305  18.891  0.00  0.00    +0.000 A 
ATOM      3  C   UNL     1       1.922   5.197  20.222  0.00  0.00    +0.000 A 
ATOM      4  C   UNL     1       1.163   4.100  20.639  0.00  0.00    +0.000 A 
ATOM      5  C   UNL     1       0.819   3.102  19.730  0.00  0.00    +0.000 A 
ATOM      6  C   UNL     1       1.220   3.206  18.401  0.00  0.00    +0.000 A 
ATOM      7  C   UNL     1       1.979   4.301  17.983  0.00  0.00    +0.000 A 
ENDBRANCH   1   2
BRANCH   1   8
ATOM      8  C   UNL     1       4.581   5.943  17.839  0.00  0.00    +0.000 A 
ATOM      9  C   UNL     1       4.821   6.117  16.465  0.00  0.00    +0.000 A 
ATOM     10  C   UNL     1       5.990   5.634  15.874  0.00  0.00    +0.000 A 
ATOM     11  C   UNL     1       6.943   4.977  16.648  0.00  0.00    +0.000 A 
ATOM     12  C   UNL     1       6.734   4.818  18.015  0.00  0.00    +0.000 A 
ATOM     13  C   UNL     1       5.566   5.304  18.608  0.00  0.00    +0.000 A 
ENDBRANCH   1   8
BRANCH   1  14
ATOM     14  C   UNL     1       2.527   7.452  17.518  0.00  0.00    +0.000 C 
BRANCH  14  15
ATOM     15  C   UNL     1       2.431   8.850  18.130  0.00  0.00    +0.000 C 
BRANCH  15  16
ATOM     16  N   UNL     1       1.256   9.535  17.591  0.00  0.00    +0.000 NA
ATOM     17  H   UNL     1       1.536  10.139  16.817  0.00  0.00    +0.000 HD
BRANCH  16  19
ATOM     18  C   UNL     1       0.570   9.752  19.996  0.00  0.00    +0.000 C 
ATOM     19  C   UNL     1       0.551  10.358  18.585  0.00  0.00    +0.000 C 
BRANCH  19  20
ATOM     20  C   UNL     1      -0.907  10.565  18.190  0.00  0.00    +0.000 A 
ATOM     21  C   UNL     1      -1.680  11.526  18.860  0.00  0.00    +0.000 A 
ATOM     22  C   UNL     1      -3.048  11.640  18.607  0.00  0.00    +0.000 A 
ATOM     23  C   UNL     1      -3.659  10.802  17.677  0.00  0.00    +0.000 A 
ATOM     24  C   UNL     1      -2.902   9.857  16.988  0.00  0.00    +0.000 A 
ATOM     25  C   UNL     1      -1.536   9.737  17.245  0.00  0.00    +0.000 A 
ENDBRANCH  19  20
ENDBRANCH  16  19
ENDBRANCH  15  16
ENDBRANCH  14  15
ENDBRANCH   1  14
TORSDOF 7
ENDMDL
MODEL 7
REMARK VINA RESULT:      -7.1      1.710      4.660
REMARK  Name = 
REMARK  8 active torsions:
REMARK  status: ('A' for Active; 'I' for Inactive)
REMARK    1  A    between atoms: C_1  and  C_2
REMARK    2  A    between atoms: C_2  and  N_3
REMARK    3  A    between atoms: C_2  and  C_19
REMARK    4  A    between atoms: N_3  and  C_4
REMARK    5  A    between atoms: C_4  and  C_5
REMARK    6  A    between atoms: C_5  and  C_6
REMARK    7  A    between atoms: C_6  and  C_7
REMARK    8  A    between atoms: C_6  and  C_13
REMARK                            x       y       z     vdW  Elec       q    Type
REMARK                         _______ _______ _______ _____ _____    ______ ____
ROOT
ATOM      1  C   UNL     1       3.200   5.889  18.800  0.00  0.00    +0.000 C 
ENDROOT
BRANCH   1   2
ATOM      2  C   UNL     1       2.301   4.712  19.171  0.00  0.00    +0.000 A 
ATOM      3  C   UNL     1       2.050   4.373  20.509  0.00  0.00    +0.000 A 
ATOM      4  C   UNL     1       1.299   3.239  20.828  0.00  0.00    +0.000 A 
ATOM      5  C   UNL     1       0.781   2.435  19.815  0.00  0.00    +0.000 A 
ATOM      6  C   UNL     1       1.002   2.771  18.482  0.00  0.00    +0.000 A 
ATOM      7  C   UNL     1       1.754   3.903  18.161  0.00  0.00    +0.000 A 
ENDBRANCH   1   2
BRANCH   1   8
ATOM      8  C   UNL     1       2.477   7.235  18.887  0.00  0.00    +0.000 A 
ATOM      9  C   UNL     1       2.451   8.074  17.760  0.00  0.00    +0.000 A 
ATOM     10  C   UNL     1       1.842   9.329  17.813  0.00  0.00    +0.000 A 
ATOM     11  C   UNL     1       1.240   9.763  18.992  0.00  0.00    +0.000 A 
ATOM     12  C   UNL     1       1.234   8.936  20.111  0.00  0.00    +0.000 A 
ATOM     13  C   UNL     1       1.841   7.678  20.057  0.00  0.00    +0.000 A 
ENDBRANCH   1   8
BRANCH   1  14
ATOM     14  C   UNL     1       4.541   5.871  19.577  0.00  0.00    +0.000 C 
BRANCH  14  15
ATOM     15  C   UNL     1       5.497   4.782  19.085  0.00  0.00    +0.000 C 
BRANCH  15  16
ATOM     16  N   UNL     1       6.868   5.142  19.447  0.00  0.00    +0.000 NA
ATOM     17  H   UNL     1       6.854   5.857  20.175  0.00  0.00    +0.000 HD
BRANCH  16  19
ATOM     18  C   UNL     1       7.964   7.154  18.422  0.00  0.00    +0.000 C 
ATOM     19  C   UNL     1       7.657   5.653  18.316  0.00  0.00    +0.000 C 
BRANCH  19  20
ATOM     20  C   UNL     1       6.932   5.422  16.994  0.00  0.00    +0.000 A 
ATOM     21  C   UNL     1       6.050   6.397  16.504  0.00  0.00    +0.000 A 
ATOM     22  C   UNL     1       5.278   6.151  15.368  0.00  0.00    +0.000 A 
ATOM     23  C   UNL     1       5.383   4.931  14.702  0.00  0.00    +0.000 A 
ATOM     24  C   UNL     1       6.270   3.961  15.164  0.00  0.00    +0.000 A 
ATOM     25  C   UNL     1       7.037   4.203  16.303  0.00  0.00    +0.000 A 
ENDBRANCH  19  20
ENDBRANCH  16  19
ENDBRANCH  15  16
ENDBRANCH  14  15
ENDBRANCH   1  14
TORSDOF 7
ENDMDL
MODEL 8
REMARK VINA RESULT:      -7.1      2.455      3.621
REMARK  Name = 
REMARK  8 active torsions:
REMARK  status: ('A' for Active; 'I' for Inactive)
REMARK    1  A    between atoms: C_1  and  C_2
REMARK    2  A    between atoms: C_2  and  N_3
REMARK    3  A    between atoms: C_2  and  C_19
REMARK    4  A    between atoms: N_3  and  C_4
REMARK    5  A    between atoms: C_4  and  C_5
REMARK    6  A    between atoms: C_5  and  C_6
REMARK    7  A    between atoms: C_6  and  C_7
REMARK    8  A    between atoms: C_6  and  C_13
REMARK                            x       y       z     vdW  Elec       q    Type
REMARK                         _______ _______ _______ _____ _____    ______ ____
ROOT
ATOM      1  C   UNL     1       3.252   6.113  18.821  0.00  0.00    +0.000 C 
ENDROOT
BRANCH   1   2
ATOM      2  C   UNL     1       2.412   7.385  18.902  0.00  0.00    +0.000 A 
ATOM      3  C   UNL     1       2.181   8.187  17.774  0.00  0.00    +0.000 A 
ATOM      4  C   UNL     1       1.486   9.393  17.886  0.00  0.00    +0.000 A 
ATOM      5  C   UNL     1       1.004   9.810  19.125  0.00  0.00    +0.000 A 
ATOM      6  C   UNL     1       1.205   9.016  20.250  0.00  0.00    +0.000 A 
ATOM      7  C   UNL     1       1.901   7.810  20.140  0.00  0.00    +0.000 A 
ENDBRANCH   1   2
BRANCH   1   8
ATOM      8  C   UNL     1       2.458   4.856  19.183  0.00  0.00    +0.000 A 
ATOM      9  C   UNL     1       1.882   4.089  18.156  0.00  0.00    +0.000 A 
ATOM     10  C   UNL     1       1.111   2.962  18.448  0.00  0.00    +0.000 A 
ATOM     11  C   UNL     1       0.911   2.577  19.771  0.00  0.00    +0.000 A 
ATOM     12  C   UNL     1       1.495   3.310  20.801  0.00  0.00    +0.000 A 
ATOM     13  C   UNL     1       2.269   4.436  20.509  0.00  0.00    +0.000 A 
ENDBRANCH   1   8
BRANCH   1  14
ATOM     14  C   UNL     1       3.999   5.989  17.469  0.00  0.00    +0.000 C 
BRANCH  14  15
ATOM     15  C   UNL     1       5.131   7.007  17.321  0.00  0.00    +0.000 C 
BRANCH  15  16
ATOM     16  N   UNL     1       6.017   6.590  16.234  0.00  0.00    +0.000 NA
ATOM     17  H   UNL     1       5.648   6.924  15.343  0.00  0.00    +0.000 HD
BRANCH  16  19
ATOM     18  C   UNL     1       7.301   4.595  17.053  0.00  0.00    +0.000 C 
ATOM     19  C   UNL     1       6.187   5.132  16.143  0.00  0.00    +0.000 C 
BRANCH  19  20
ATOM     20  C   UNL     1       6.511   4.706  14.715  0.00  0.00    +0.000 A 
ATOM     21  C   UNL     1       7.552   5.340  14.019  0.00  0.00    +0.000 A 
ATOM     22  C   UNL     1       7.779   5.060  12.671  0.00  0.00    +0.000 A 
ATOM     23  C   UNL     1       6.976   4.137  12.003  0.00  0.00    +0.000 A 
ATOM     24  C   UNL     1       5.952   3.484  12.686  0.00  0.00    +0.000 A 
ATOM     25  C   UNL     1       5.719   3.768  14.032  0.00  0.00    +0.000 A 
ENDBRANCH  19  20
ENDBRANCH  16  19
ENDBRANCH  15  16
ENDBRANCH  14  15
ENDBRANCH   1  14
TORSDOF 7
ENDMDL
MODEL 9
REMARK VINA RESULT:      -7.1      1.939      6.658
REMARK  Name = 
REMARK  8 active torsions:
REMARK  status: ('A' for Active; 'I' for Inactive)
REMARK    1  A    between atoms: C_1  and  C_2
REMARK    2  A    between atoms: C_2  and  N_3
REMARK    3  A    between atoms: C_2  and  C_19
REMARK    4  A    between atoms: N_3  and  C_4
REMARK    5  A    between atoms: C_4  and  C_5
REMARK    6  A    between atoms: C_5  and  C_6
REMARK    7  A    between atoms: C_6  and  C_7
REMARK    8  A    between atoms: C_6  and  C_13
REMARK                            x       y       z     vdW  Elec       q    Type
REMARK                         _______ _______ _______ _____ _____    ______ ____
ROOT
ATOM      1  C   UNL     1       2.795   6.355  18.156  0.00  0.00    +0.000 C 
ENDROOT
BRANCH   1   2
ATOM      2  C   UNL     1       4.301   6.181  17.973  0.00  0.00    +0.000 A 
ATOM      3  C   UNL     1       4.956   6.622  16.813  0.00  0.00    +0.000 A 
ATOM      4  C   UNL     1       6.318   6.374  16.625  0.00  0.00    +0.000 A 
ATOM      5  C   UNL     1       7.045   5.690  17.597  0.00  0.00    +0.000 A 
ATOM      6  C   UNL     1       6.415   5.266  18.764  0.00  0.00    +0.000 A 
ATOM      7  C   UNL     1       5.054   5.512  18.953  0.00  0.00    +0.000 A 
ENDBRANCH   1   2
BRANCH   1   8
ATOM      8  C   UNL     1       2.132   5.130  18.789  0.00  0.00    +0.000 A 
ATOM      9  C   UNL     1       1.806   4.030  17.978  0.00  0.00    +0.000 A 
ATOM     10  C   UNL     1       1.159   2.913  18.510  0.00  0.00    +0.000 A 
ATOM     11  C   UNL     1       0.834   2.873  19.863  0.00  0.00    +0.000 A 
ATOM     12  C   UNL     1       1.171   3.943  20.687  0.00  0.00    +0.000 A 
ATOM     13  C   UNL     1       1.822   5.060  20.157  0.00  0.00    +0.000 A 
ENDBRANCH   1   8
BRANCH   1  14
ATOM     14  C   UNL     1       2.442   7.678  18.881  0.00  0.00    +0.000 C 
BRANCH  14  15
ATOM     15  C   UNL     1       1.713   8.674  17.977  0.00  0.00    +0.000 C 
BRANCH  15  16
ATOM     16  N   UNL     1       1.444   9.901  18.726  0.00  0.00    +0.000 NA
ATOM     17  H   UNL     1       1.895   9.851  19.640  0.00  0.00    +0.000 HD
BRANCH  16  19
ATOM     18  C   UNL     1      -0.453  11.504  18.360  0.00  0.00    +0.000 C 
ATOM     19  C   UNL     1       0.011  10.157  18.934  0.00  0.00    +0.000 C 
BRANCH  19  20
ATOM     20  C   UNL     1      -0.339  10.143  20.418  0.00  0.00    +0.000 A 
ATOM     21  C   UNL     1      -0.820  11.310  21.031  0.00  0.00    +0.000 A 
ATOM     22  C   UNL     1      -1.020  11.357  22.411  0.00  0.00    +0.000 A 
ATOM     23  C   UNL     1      -0.751  10.237  23.196  0.00  0.00    +0.000 A 
ATOM     24  C   UNL     1      -0.293   9.064  22.600  0.00  0.00    +0.000 A 
ATOM     25  C   UNL     1      -0.085   9.018  21.221  0.00  0.00    +0.000 A 
ENDBRANCH  19  20
ENDBRANCH  16  19
ENDBRANCH  15  16
ENDBRANCH  14  15
ENDBRANCH   1  14
TORSDOF 7
ENDMDL
