MODEL 1
REMARK VINA RESULT:      -8.3      0.000      0.000
REMARK  Name = 
REMARK  2 active torsions:
REMARK  status: ('A' for Active; 'I' for Inactive)
REMARK    1  A    between atoms: C_1  and  S_2
REMARK    2  A    between atoms: S_2  and  N_5
REMARK                            x       y       z     vdW  Elec       q    Type
REMARK                         _______ _______ _______ _____ _____    ______ ____
ROOT
ATOM      1  N   UNL     1       4.625   5.331  17.804  0.00  0.00    +0.000 N 
ATOM      2  C   UNL     1       4.174   6.476  18.645  0.00  0.00    +0.000 C 
ATOM      3  C   UNL     1       2.651   6.240  18.903  0.00  0.00    +0.000 C 
ATOM      4  C   UNL     1       1.801   7.100  17.951  0.00  0.00    +0.000 C 
ATOM      5  C   UNL     1       1.808   8.561  18.378  0.00  0.00    +0.000 C 
ATOM      6  N   UNL     1       1.282   8.634  19.739  0.00  0.00    +0.000 N 
ATOM      7  C   UNL     1       0.430   9.624  20.122  0.00  0.00    +0.000 A 
ATOM      8  N   UNL     1       0.071  10.031  21.323  0.00  0.00    +0.000 NA
ATOM      9  C   UNL     1      -0.815  11.074  21.120  0.00  0.00    +0.000 A 
ATOM     10  C   UNL     1      -1.567  11.850  22.018  0.00  0.00    +0.000 A 
ATOM     11  C   UNL     1      -2.389  12.869  21.507  0.00  0.00    +0.000 A 
ATOM     12  C   UNL     1      -2.423  13.154  20.135  0.00  0.00    +0.000 A 
ATOM     13  C   UNL     1      -1.696  12.391  19.230  0.00  0.00    +0.000 A 
ATOM     14  C   UNL     1      -0.954  11.342  19.767  0.00  0.00    +0.000 A 
ATOM     15  N   UNL     1      -0.272  10.322  19.174  0.00  0.00    +0.000 N 
ATOM     16  C   UNL     1       2.125   7.981  20.742  0.00  0.00    +0.000 C 
ATOM     17  C   UNL     1       2.267   6.494  20.382  0.00  0.00    +0.000 C 
ATOM     18  C   UNL     1       2.507   4.779  18.523  0.00  0.00    +0.000 A 
ATOM     19  C   UNL     1       1.382   3.971  18.660  0.00  0.00    +0.000 A 
ATOM     20  C   UNL     1       1.439   2.656  18.196  0.00  0.00    +0.000 A 
ATOM     21  C   UNL     1       2.601   2.171  17.584  0.00  0.00    +0.000 A 
ATOM     22  C   UNL     1       3.715   2.998  17.416  0.00  0.00    +0.000 A 
ATOM     23  C   UNL     1       3.662   4.290  17.912  0.00  0.00    +0.000 A 
ATOM     24  H   UNL     1      -0.323  10.102  18.195  0.00  0.00    +0.000 HD
ENDROOT
BRANCH   1  26
ATOM     25  C   UNL     1       6.963   6.674  17.661  0.00  0.00    +0.000 C 
ATOM     26  S   UNL     1       6.263   5.031  17.636  0.00  0.00    +0.000 S 
ATOM     27  O   UNL     1       6.469   4.495  16.299  0.00  0.00    +0.000 OA
ATOM     28  O   UNL     1       6.759   4.326  18.795  0.00  0.00    +0.000 OA
ENDBRANCH   1  26
TORSDOF 1
ENDMDL
MODEL 2
REMARK VINA RESULT:      -7.9      4.233      8.607
REMARK  Name = 
REMARK  2 active torsions:
REMARK  status: ('A' for Active; 'I' for Inactive)
REMARK    1  A    between atoms: C_1  and  S_2
REMARK    2  A    between atoms: S_2  and  N_5
REMARK                            x       y       z     vdW  Elec       q    Type
REMARK                         _______ _______ _______ _____ _____    ______ ____
ROOT
ATOM      1  N   UNL     1       0.489  12.361  20.513  0.00  0.00    +0.000 N 
ATOM      2  C   UNL     1       1.448  11.341  20.000  0.00  0.00    +0.000 C 
ATOM      3  C   UNL     1       0.571  10.218  19.359  0.00  0.00    +0.000 C 
ATOM      4  C   UNL     1       0.418   9.032  20.327  0.00  0.00    +0.000 C 
ATOM      5  C   UNL     1       1.699   8.212  20.396  0.00  0.00    +0.000 C 
ATOM      6  N   UNL     1       1.999   7.735  19.047  0.00  0.00    +0.000 N 
ATOM      7  C   UNL     1       2.455   6.473  18.823  0.00  0.00    +0.000 A 
ATOM      8  N   UNL     1       3.037   5.945  17.764  0.00  0.00    +0.000 NA
ATOM      9  C   UNL     1       3.291   4.624  18.091  0.00  0.00    +0.000 A 
ATOM     10  C   UNL     1       3.832   3.565  17.344  0.00  0.00    +0.000 A 
ATOM     11  C   UNL     1       3.984   2.312  17.961  0.00  0.00    +0.000 A 
ATOM     12  C   UNL     1       3.659   2.124  19.311  0.00  0.00    +0.000 A 
ATOM     13  C   UNL     1       3.112   3.155  20.063  0.00  0.00    +0.000 A 
ATOM     14  C   UNL     1       2.906   4.360  19.396  0.00  0.00    +0.000 A 
ATOM     15  N   UNL     1       2.258   5.499  19.768  0.00  0.00    +0.000 N 
ATOM     16  C   UNL     1       2.325   8.798  18.096  0.00  0.00    +0.000 C 
ATOM     17  C   UNL     1       1.128   9.756  17.990  0.00  0.00    +0.000 C 
ATOM     18  C   UNL     1      -0.763  10.925  19.219  0.00  0.00    +0.000 A 
ATOM     19  C   UNL     1      -1.915  10.453  18.595  0.00  0.00    +0.000 A 
ATOM     20  C   UNL     1      -3.064  11.244  18.621  0.00  0.00    +0.000 A 
ATOM     21  C   UNL     1      -3.061  12.477  19.284  0.00  0.00    +0.000 A 
ATOM     22  C   UNL     1      -1.912  12.930  19.940  0.00  0.00    +0.000 A 
ATOM     23  C   UNL     1      -0.766  12.155  19.877  0.00  0.00    +0.000 A 
ATOM     24  H   UNL     1       1.690   5.583  20.593  0.00  0.00    +0.000 HD
ENDROOT
BRANCH   1  26
ATOM     25  C   UNL     1       2.825  13.675  20.845  0.00  0.00    +0.000 C 
ATOM     26  S   UNL     1       1.053  13.882  20.926  0.00  0.00    +0.000 S 
ATOM     27  O   UNL     1       0.709  14.106  22.322  0.00  0.00    +0.000 OA
ATOM     28  O   UNL     1       0.677  14.842  19.913  0.00  0.00    +0.000 OA
ENDBRANCH   1  26
TORSDOF 1
ENDMDL
MODEL 3
REMARK VINA RESULT:      -7.8      0.911      1.035
REMARK  Name = 
REMARK  2 active torsions:
REMARK  status: ('A' for Active; 'I' for Inactive)
REMARK    1  A    between atoms: C_1  and  S_2
REMARK    2  A    between atoms: S_2  and  N_5
REMARK                            x       y       z     vdW  Elec       q    Type
REMARK                         _______ _______ _______ _____ _____    ______ ____
ROOT
ATOM      1  N   UNL     1       4.424   5.937  17.165  0.00  0.00    +0.000 N 
ATOM      2  C   UNL     1       3.986   7.062  18.039  0.00  0.00    +0.000 C 
ATOM      3  C   UNL     1       2.550   6.685  18.529  0.00  0.00    +0.000 C 
ATOM      4  C   UNL     1       1.485   7.421  17.698  0.00  0.00    +0.000 C 
ATOM      5  C   UNL     1       1.403   8.890  18.087  0.00  0.00    +0.000 C 
ATOM      6  N   UNL     1       1.079   8.959  19.511  0.00  0.00    +0.000 N 
ATOM      7  C   UNL     1       0.195   9.873  19.996  0.00  0.00    +0.000 A 
ATOM      8  N   UNL     1      -0.024  10.286  21.229  0.00  0.00    +0.000 NA
ATOM      9  C   UNL     1      -1.034  11.228  21.139  0.00  0.00    +0.000 A 
ATOM     10  C   UNL     1      -1.721  11.957  22.123  0.00  0.00    +0.000 A 
ATOM     11  C   UNL     1      -2.711  12.870  21.720  0.00  0.00    +0.000 A 
ATOM     12  C   UNL     1      -2.976  13.100  20.364  0.00  0.00    +0.000 A 
ATOM     13  C   UNL     1      -2.316  12.381  19.376  0.00  0.00    +0.000 A 
ATOM     14  C   UNL     1      -1.397  11.431  19.817  0.00  0.00    +0.000 A 
ATOM     15  N   UNL     1      -0.709  10.463  19.150  0.00  0.00    +0.000 N 
ATOM     16  C   UNL     1       2.123   8.431  20.389  0.00  0.00    +0.000 C 
ATOM     17  C   UNL     1       2.364   6.953  20.043  0.00  0.00    +0.000 C 
ATOM     18  C   UNL     1       2.504   5.204  18.205  0.00  0.00    +0.000 A 
ATOM     19  C   UNL     1       1.501   4.294  18.527  0.00  0.00    +0.000 A 
ATOM     20  C   UNL     1       1.625   2.975  18.088  0.00  0.00    +0.000 A 
ATOM     21  C   UNL     1       2.728   2.586  17.319  0.00  0.00    +0.000 A 
ATOM     22  C   UNL     1       3.714   3.513  16.967  0.00  0.00    +0.000 A 
ATOM     23  C   UNL     1       3.601   4.810  17.439  0.00  0.00    +0.000 A 
ATOM     24  H   UNL     1      -0.880  10.204  18.194  0.00  0.00    +0.000 HD
ENDROOT
BRANCH   1  26
ATOM     25  C   UNL     1       6.741   5.030  18.213  0.00  0.00    +0.000 C 
ATOM     26  S   UNL     1       6.041   5.796  16.759  0.00  0.00    +0.000 S 
ATOM     27  O   UNL     1       6.586   7.143  16.677  0.00  0.00    +0.000 OA
ATOM     28  O   UNL     1       6.197   4.872  15.659  0.00  0.00    +0.000 OA
ENDBRANCH   1  26
TORSDOF 1
ENDMDL
MODEL 4
REMARK VINA RESULT:      -7.5      4.397      8.896
REMARK  Name = 
REMARK  2 active torsions:
REMARK  status: ('A' for Active; 'I' for Inactive)
REMARK    1  A    between atoms: C_1  and  S_2
REMARK    2  A    between atoms: S_2  and  N_5
REMARK                            x       y       z     vdW  Elec       q    Type
REMARK                         _______ _______ _______ _____ _____    ______ ____
ROOT
ATOM      1  N   UNL     1      -0.493  12.606  21.109  0.00  0.00    +0.000 N 
ATOM      2  C   UNL     1       0.653  11.823  20.564  0.00  0.00    +0.000 C 
ATOM      3  C   UNL     1       0.022  10.735  19.637  0.00  0.00    +0.000 C 
ATOM      4  C   UNL     1      -0.060   9.383  20.367  0.00  0.00    +0.000 C 
ATOM      5  C   UNL     1       1.311   8.729  20.465  0.00  0.00    +0.000 C 
ATOM      6  N   UNL     1       1.820   8.547  19.108  0.00  0.00    +0.000 N 
ATOM      7  C   UNL     1       2.475   7.413  18.739  0.00  0.00    +0.000 A 
ATOM      8  N   UNL     1       3.237   7.163  17.692  0.00  0.00    +0.000 NA
ATOM      9  C   UNL     1       3.643   5.847  17.826  0.00  0.00    +0.000 A 
ATOM     10  C   UNL     1       4.409   5.017  16.991  0.00  0.00    +0.000 A 
ATOM     11  C   UNL     1       4.675   3.700  17.407  0.00  0.00    +0.000 A 
ATOM     12  C   UNL     1       4.238   3.231  18.653  0.00  0.00    +0.000 A 
ATOM     13  C   UNL     1       3.470   4.033  19.487  0.00  0.00    +0.000 A 
ATOM     14  C   UNL     1       3.164   5.304  19.008  0.00  0.00    +0.000 A 
ATOM     15  N   UNL     1       2.322   6.267  19.476  0.00  0.00    +0.000 N 
ATOM     16  C   UNL     1       2.088   9.798  18.396  0.00  0.00    +0.000 C 
ATOM     17  C   UNL     1       0.783  10.603  18.295  0.00  0.00    +0.000 C 
ATOM     18  C   UNL     1      -1.378  11.285  19.443  0.00  0.00    +0.000 A 
ATOM     19  C   UNL     1      -2.376  10.795  18.605  0.00  0.00    +0.000 A 
ATOM     20  C   UNL     1      -3.624  11.419  18.610  0.00  0.00    +0.000 A 
ATOM     21  C   UNL     1      -3.871  12.502  19.463  0.00  0.00    +0.000 A 
ATOM     22  C   UNL     1      -2.876  12.967  20.329  0.00  0.00    +0.000 A 
ATOM     23  C   UNL     1      -1.629  12.365  20.290  0.00  0.00    +0.000 A 
ATOM     24  H   UNL     1       1.662   6.128  20.222  0.00  0.00    +0.000 HD
ENDROOT
BRANCH   1  26
ATOM     25  C   UNL     1      -1.165  13.973  23.339  0.00  0.00    +0.000 C 
ATOM     26  S   UNL     1      -0.203  14.084  21.838  0.00  0.00    +0.000 S 
ATOM     27  O   UNL     1      -0.821  15.106  21.005  0.00  0.00    +0.000 OA
ATOM     28  O   UNL     1       1.188  14.187  22.216  0.00  0.00    +0.000 OA
ENDBRANCH   1  26
TORSDOF 1
ENDMDL
MODEL 5
REMARK VINA RESULT:      -7.5      4.780      8.932
REMARK  Name = 
REMARK  2 active torsions:
REMARK  status: ('A' for Active; 'I' for Inactive)
REMARK    1  A    between atoms: C_1  and  S_2
REMARK    2  A    between atoms: S_2  and  N_5
REMARK                            x       y       z     vdW  Elec       q    Type
REMARK                         _______ _______ _______ _____ _____    ______ ____
ROOT
ATOM      1  N   UNL     1      -1.286  12.561  20.583  0.00  0.00    +0.000 N 
ATOM      2  C   UNL     1      -0.012  11.925  20.141  0.00  0.00    +0.000 C 
ATOM      3  C   UNL     1      -0.428  10.720  19.238  0.00  0.00    +0.000 C 
ATOM      4  C   UNL     1      -0.365   9.403  20.031  0.00  0.00    +0.000 C 
ATOM      5  C   UNL     1       1.075   8.955  20.237  0.00  0.00    +0.000 C 
ATOM      6  N   UNL     1       1.686   8.788  18.920  0.00  0.00    +0.000 N 
ATOM      7  C   UNL     1       2.513   7.743  18.645  0.00  0.00    +0.000 A 
ATOM      8  N   UNL     1       3.365   7.559  17.656  0.00  0.00    +0.000 NA
ATOM      9  C   UNL     1       3.941   6.321  17.878  0.00  0.00    +0.000 A 
ATOM     10  C   UNL     1       4.864   5.572  17.130  0.00  0.00    +0.000 A 
ATOM     11  C   UNL     1       5.284   4.326  17.626  0.00  0.00    +0.000 A 
ATOM     12  C   UNL     1       4.843   3.854  18.869  0.00  0.00    +0.000 A 
ATOM     13  C   UNL     1       3.921   4.574  19.619  0.00  0.00    +0.000 A 
ATOM     14  C   UNL     1       3.471   5.767  19.059  0.00  0.00    +0.000 A 
ATOM     15  N   UNL     1       2.476   6.620  19.431  0.00  0.00    +0.000 N 
ATOM     16  C   UNL     1       1.820  10.032  18.161  0.00  0.00    +0.000 C 
ATOM     17  C   UNL     1       0.424  10.639  17.948  0.00  0.00    +0.000 C 
ATOM     18  C   UNL     1      -1.877  11.057  18.941  0.00  0.00    +0.000 A 
ATOM     19  C   UNL     1      -2.744  10.395  18.076  0.00  0.00    +0.000 A 
ATOM     20  C   UNL     1      -4.065  10.835  17.982  0.00  0.00    +0.000 A 
ATOM     21  C   UNL     1      -4.511  11.908  18.764  0.00  0.00    +0.000 A 
ATOM     22  C   UNL     1      -3.645  12.546  19.657  0.00  0.00    +0.000 A 
ATOM     23  C   UNL     1      -2.326  12.125  19.716  0.00  0.00    +0.000 A 
ATOM     24  H   UNL     1       1.798   6.421  20.146  0.00  0.00    +0.000 HD
ENDROOT
BRANCH   1  26
ATOM     25  C   UNL     1       0.410  14.196  21.901  0.00  0.00    +0.000 C 
ATOM     26  S   UNL     1      -1.250  14.095  21.249  0.00  0.00    +0.000 S 
ATOM     27  O   UNL     1      -2.159  14.094  22.386  0.00  0.00    +0.000 OA
ATOM     28  O   UNL     1      -1.374  15.091  20.210  0.00  0.00    +0.000 OA
ENDBRANCH   1  26
TORSDOF 1
ENDMDL
MODEL 6
REMARK VINA RESULT:      -7.3      4.617      9.027
REMARK  Name = 
REMARK  2 active torsions:
REMARK  status: ('A' for Active; 'I' for Inactive)
REMARK    1  A    between atoms: C_1  and  S_2
REMARK    2  A    between atoms: S_2  and  N_5
REMARK                            x       y       z     vdW  Elec       q    Type
REMARK                         _______ _______ _______ _____ _____    ______ ____
ROOT
ATOM      1  N   UNL     1      -1.191  12.625  21.242  0.00  0.00    +0.000 N 
ATOM      2  C   UNL     1       0.058  12.005  20.714  0.00  0.00    +0.000 C 
ATOM      3  C   UNL     1      -0.405  10.968  19.640  0.00  0.00    +0.000 C 
ATOM      4  C   UNL     1      -0.407   9.546  20.228  0.00  0.00    +0.000 C 
ATOM      5  C   UNL     1       1.009   9.007  20.368  0.00  0.00    +0.000 C 
ATOM      6  N   UNL     1       1.623   9.011  19.042  0.00  0.00    +0.000 N 
ATOM      7  C   UNL     1       2.406   7.982  18.616  0.00  0.00    +0.000 A 
ATOM      8  N   UNL     1       3.256   7.907  17.612  0.00  0.00    +0.000 NA
ATOM      9  C   UNL     1       3.775   6.625  17.649  0.00  0.00    +0.000 A 
ATOM     10  C   UNL     1       4.670   5.955  16.799  0.00  0.00    +0.000 A 
ATOM     11  C   UNL     1       5.030   4.631  17.105  0.00  0.00    +0.000 A 
ATOM     12  C   UNL     1       4.557   4.000  18.263  0.00  0.00    +0.000 A 
ATOM     13  C   UNL     1       3.662   4.642  19.110  0.00  0.00    +0.000 A 
ATOM     14  C   UNL     1       3.270   5.924  18.733  0.00  0.00    +0.000 A 
ATOM     15  N   UNL     1       2.312   6.757  19.226  0.00  0.00    +0.000 N 
ATOM     16  C   UNL     1       1.820  10.346  18.477  0.00  0.00    +0.000 C 
ATOM     17  C   UNL     1       0.454  11.041  18.354  0.00  0.00    +0.000 C 
ATOM     18  C   UNL     1      -1.834  11.411  19.394  0.00  0.00    +0.000 A 
ATOM     19  C   UNL     1      -2.722  10.925  18.438  0.00  0.00    +0.000 A 
ATOM     20  C   UNL     1      -4.021  11.434  18.409  0.00  0.00    +0.000 A 
ATOM     21  C   UNL     1      -4.425  12.398  19.340  0.00  0.00    +0.000 A 
ATOM     22  C   UNL     1      -3.540  12.856  20.321  0.00  0.00    +0.000 A 
ATOM     23  C   UNL     1      -2.242  12.372  20.319  0.00  0.00    +0.000 A 
ATOM     24  H   UNL     1       1.620   6.485  19.902  0.00  0.00    +0.000 HD
ENDROOT
BRANCH   1  26
ATOM     25  C   UNL     1      -1.163  15.299  20.864  0.00  0.00    +0.000 C 
ATOM     26  S   UNL     1      -1.092  14.040  22.130  0.00  0.00    +0.000 S 
ATOM     27  O   UNL     1       0.241  14.092  22.713  0.00  0.00    +0.000 OA
ATOM     28  O   UNL     1      -2.264  14.187  22.962  0.00  0.00    +0.000 OA
ENDBRANCH   1  26
TORSDOF 1
ENDMDL
MODEL 7
REMARK VINA RESULT:      -7.2      7.444     11.026
REMARK  Name = 
REMARK  2 active torsions:
REMARK  status: ('A' for Active; 'I' for Inactive)
REMARK    1  A    between atoms: C_1  and  S_2
REMARK    2  A    between atoms: S_2  and  N_5
REMARK                            x       y       z     vdW  Elec       q    Type
REMARK                         _______ _______ _______ _____ _____    ______ ____
ROOT
ATOM      1  N   UNL     1       9.164  14.631  19.232  0.00  0.00    +0.000 N 
ATOM      2  C   UNL     1       8.782  13.228  19.561  0.00  0.00    +0.000 C 
ATOM      3  C   UNL     1       9.485  12.334  18.489  0.00  0.00    +0.000 C 
ATOM      4  C   UNL     1       8.494  11.939  17.380  0.00  0.00    +0.000 C 
ATOM      5  C   UNL     1       7.525  10.871  17.866  0.00  0.00    +0.000 C 
ATOM      6  N   UNL     1       8.309   9.711  18.287  0.00  0.00    +0.000 N 
ATOM      7  C   UNL     1       7.912   8.441  18.001  0.00  0.00    +0.000 A 
ATOM      8  N   UNL     1       8.298   7.287  18.507  0.00  0.00    +0.000 NA
ATOM      9  C   UNL     1       7.560   6.319  17.849  0.00  0.00    +0.000 A 
ATOM     10  C   UNL     1       7.583   4.917  17.921  0.00  0.00    +0.000 A 
ATOM     11  C   UNL     1       6.686   4.184  17.124  0.00  0.00    +0.000 A 
ATOM     12  C   UNL     1       5.743   4.829  16.313  0.00  0.00    +0.000 A 
ATOM     13  C   UNL     1       5.712   6.215  16.220  0.00  0.00    +0.000 A 
ATOM     14  C   UNL     1       6.665   6.903  16.965  0.00  0.00    +0.000 A 
ATOM     15  N   UNL     1       7.018   8.218  16.985  0.00  0.00    +0.000 N 
ATOM     16  C   UNL     1       9.160   9.956  19.452  0.00  0.00    +0.000 C 
ATOM     17  C   UNL     1      10.148  11.084  19.119  0.00  0.00    +0.000 C 
ATOM     18  C   UNL     1      10.512  13.297  17.925  0.00  0.00    +0.000 A 
ATOM     19  C   UNL     1      11.519  13.023  17.003  0.00  0.00    +0.000 A 
ATOM     20  C   UNL     1      12.333  14.068  16.568  0.00  0.00    +0.000 A 
ATOM     21  C   UNL     1      12.122  15.372  17.034  0.00  0.00    +0.000 A 
ATOM     22  C   UNL     1      11.086  15.648  17.931  0.00  0.00    +0.000 A 
ATOM     23  C   UNL     1      10.306  14.597  18.386  0.00  0.00    +0.000 A 
ATOM     24  H   UNL     1       6.697   8.901  16.321  0.00  0.00    +0.000 HD
ENDROOT
BRANCH   1  26
ATOM     25  C   UNL     1       7.781  15.066  21.510  0.00  0.00    +0.000 C 
ATOM     26  S   UNL     1       8.918  15.836  20.367  0.00  0.00    +0.000 S 
ATOM     27  O   UNL     1       8.199  16.914  19.705  0.00  0.00    +0.000 OA
ATOM     28  O   UNL     1      10.145  16.102  21.082  0.00  0.00    +0.000 OA
ENDBRANCH   1  26
TORSDOF 1
ENDMDL
MODEL 8
REMARK VINA RESULT:      -7.1      4.491      8.735
REMARK  Name = 
REMARK  2 active torsions:
REMARK  status: ('A' for Active; 'I' for Inactive)
REMARK    1  A    between atoms: C_1  and  S_2
REMARK    2  A    between atoms: S_2  and  N_5
REMARK                            x       y       z     vdW  Elec       q    Type
REMARK                         _______ _______ _______ _____ _____    ______ ____
ROOT
ATOM      1  N   UNL     1       0.769  13.150  21.089  0.00  0.00    +0.000 N 
ATOM      2  C   UNL     1       1.543  11.972  20.604  0.00  0.00    +0.000 C 
ATOM      3  C   UNL     1       0.479  10.904  20.192  0.00  0.00    +0.000 C 
ATOM      4  C   UNL     1       0.307   9.854  21.303  0.00  0.00    +0.000 C 
ATOM      5  C   UNL     1       1.488   8.894  21.337  0.00  0.00    +0.000 C 
ATOM      6  N   UNL     1       1.577   8.246  20.030  0.00  0.00    +0.000 N 
ATOM      7  C   UNL     1       1.860   6.920  19.910  0.00  0.00    +0.000 A 
ATOM      8  N   UNL     1       2.254   6.217  18.867  0.00  0.00    +0.000 NA
ATOM      9  C   UNL     1       2.395   4.917  19.319  0.00  0.00    +0.000 A 
ATOM     10  C   UNL     1       2.726   3.727  18.650  0.00  0.00    +0.000 A 
ATOM     11  C   UNL     1       2.808   2.535  19.391  0.00  0.00    +0.000 A 
ATOM     12  C   UNL     1       2.622   2.531  20.780  0.00  0.00    +0.000 A 
ATOM     13  C   UNL     1       2.283   3.695  21.458  0.00  0.00    +0.000 A 
ATOM     14  C   UNL     1       2.136   4.840  20.678  0.00  0.00    +0.000 A 
ATOM     15  N   UNL     1       1.666   6.082  20.978  0.00  0.00    +0.000 N 
ATOM     16  C   UNL     1       1.907   9.155  18.932  0.00  0.00    +0.000 C 
ATOM     17  C   UNL     1       0.820  10.237  18.837  0.00  0.00    +0.000 C 
ATOM     18  C   UNL     1      -0.776  11.753  20.107  0.00  0.00    +0.000 A 
ATOM     19  C   UNL     1      -2.037  11.363  19.663  0.00  0.00    +0.000 A 
ATOM     20  C   UNL     1      -3.081  12.288  19.713  0.00  0.00    +0.000 A 
ATOM     21  C   UNL     1      -2.864  13.574  20.222  0.00  0.00    +0.000 A 
ATOM     22  C   UNL     1      -1.604  13.948  20.700  0.00  0.00    +0.000 A 
ATOM     23  C   UNL     1      -0.566  13.035  20.613  0.00  0.00    +0.000 A 
ATOM     24  H   UNL     1       1.210   6.321  21.841  0.00  0.00    +0.000 HD
ENDROOT
BRANCH   1  26
ATOM     25  C   UNL     1       3.264  14.156  21.317  0.00  0.00    +0.000 C 
ATOM     26  S   UNL     1       1.542  14.625  21.261  0.00  0.00    +0.000 S 
ATOM     27  O   UNL     1       1.193  15.145  22.575  0.00  0.00    +0.000 OA
ATOM     28  O   UNL     1       1.345  15.429  20.076  0.00  0.00    +0.000 OA
ENDBRANCH   1  26
TORSDOF 1
ENDMDL
MODEL 9
REMARK VINA RESULT:      -6.9      5.593     10.240
REMARK  Name = 
REMARK  2 active torsions:
REMARK  status: ('A' for Active; 'I' for Inactive)
REMARK    1  A    between atoms: C_1  and  S_2
REMARK    2  A    between atoms: S_2  and  N_5
REMARK                            x       y       z     vdW  Elec       q    Type
REMARK                         _______ _______ _______ _____ _____    ______ ____
ROOT
ATOM      1  N   UNL     1      -2.091  14.313  23.895  0.00  0.00    +0.000 N 
ATOM      2  C   UNL     1      -1.024  13.744  23.023  0.00  0.00    +0.000 C 
ATOM      3  C   UNL     1      -1.740  12.708  22.097  0.00  0.00    +0.000 C 
ATOM      4  C   UNL     1      -1.537  11.278  22.627  0.00  0.00    +0.000 C 
ATOM      5  C   UNL     1      -0.123  10.786  22.351  0.00  0.00    +0.000 C 
ATOM      6  N   UNL     1       0.093  10.831  20.906  0.00  0.00    +0.000 N 
ATOM      7  C   UNL     1       0.753   9.836  20.253  0.00  0.00    +0.000 A 
ATOM      8  N   UNL     1       1.289   9.806  19.049  0.00  0.00    +0.000 NA
ATOM      9  C   UNL     1       1.833   8.542  18.907  0.00  0.00    +0.000 A 
ATOM     10  C   UNL     1       2.472   7.916  17.824  0.00  0.00    +0.000 A 
ATOM     11  C   UNL     1       2.941   6.601  17.985  0.00  0.00    +0.000 A 
ATOM     12  C   UNL     1       2.830   5.936  19.213  0.00  0.00    +0.000 A 
ATOM     13  C   UNL     1       2.192   6.534  20.292  0.00  0.00    +0.000 A 
ATOM     14  C   UNL     1       1.674   7.807  20.072  0.00  0.00    +0.000 A 
ATOM     15  N   UNL     1       0.869   8.599  20.834  0.00  0.00    +0.000 N 
ATOM     16  C   UNL     1       0.085  12.181  20.341  0.00  0.00    +0.000 C 
ATOM     17  C   UNL     1      -1.279  12.830  20.624  0.00  0.00    +0.000 C 
ATOM     18  C   UNL     1      -3.193  13.106  22.272  0.00  0.00    +0.000 A 
ATOM     19  C   UNL     1      -4.300  12.604  21.593  0.00  0.00    +0.000 A 
ATOM     20  C   UNL     1      -5.568  13.069  21.941  0.00  0.00    +0.000 A 
ATOM     21  C   UNL     1      -5.722  14.004  22.972  0.00  0.00    +0.000 A 
ATOM     22  C   UNL     1      -4.609  14.477  23.676  0.00  0.00    +0.000 A 
ATOM     23  C   UNL     1      -3.351  14.037  23.298  0.00  0.00    +0.000 A 
ATOM     24  H   UNL     1       0.403   8.294  21.671  0.00  0.00    +0.000 HD
ENDROOT
BRANCH   1  26
ATOM     25  C   UNL     1      -1.813  16.966  23.478  0.00  0.00    +0.000 C 
ATOM     26  S   UNL     1      -1.786  15.716  24.754  0.00  0.00    +0.000 S 
ATOM     27  O   UNL     1      -0.419  15.634  25.247  0.00  0.00    +0.000 OA
ATOM     28  O   UNL     1      -2.878  15.990  25.660  0.00  0.00    +0.000 OA
ENDBRANCH   1  26
TORSDOF 1
ENDMDL
