MODEL 1
REMARK VINA RESULT:      -6.6      0.000      0.000
REMARK  Name = 
REMARK  6 active torsions:
REMARK  status: ('A' for Active; 'I' for Inactive)
REMARK    1  A    between atoms: C_1  and  C_2
REMARK    2  A    between atoms: C_2  and  O_3
REMARK    3  A    between atoms: O_3  and  C_4
REMARK    4  A    between atoms: C_8  and  N_9
REMARK    5  A    between atoms: C_10  and  C_12
REMARK    6  A    between atoms: C_14  and  C_15
REMARK                            x       y       z     vdW  Elec       q    Type
REMARK                         _______ _______ _______ _____ _____    ______ ____
ROOT
ATOM      1  N   UNL     1       5.114   3.831  17.391  0.00  0.00    +0.000 N 
ATOM      2  C   UNL     1       4.946   3.833  18.760  0.00  0.00    +0.000 C 
ATOM      3  O   UNL     1       5.767   4.375  19.514  0.00  0.00    +0.000 OA
ATOM      4  H   UNL     1       4.306   3.595  16.820  0.00  0.00    +0.000 HD
ENDROOT
BRANCH   2   5
ATOM      5  C   UNL     1       3.731   3.215  19.245  0.00  0.00    +0.000 A 
ATOM      6  N   UNL     1       3.240   3.386  20.464  0.00  0.00    +0.000 NA
ATOM      7  C   UNL     1       2.113   2.597  20.533  0.00  0.00    +0.000 A 
ATOM      8  C   UNL     1       1.313   2.526  21.775  0.00  0.00    +0.000 C 
ATOM      9  C   UNL     1       1.917   1.934  19.341  0.00  0.00    +0.000 A 
ATOM     10  N   UNL     1       2.935   2.349  18.529  0.00  0.00    +0.000 N 
ATOM     11  H   UNL     1       3.124   2.034  17.585  0.00  0.00    +0.000 HD
ENDBRANCH   2   5
BRANCH   1  16
ATOM     12  C   UNL     1       6.189   5.950  16.657  0.00  0.00    +0.000 C 
ATOM     13  C   UNL     1       5.503   6.092  15.302  0.00  0.00    +0.000 C 
ATOM     14  O   UNL     1       5.771   4.916  14.525  0.00  0.00    +0.000 OA
ATOM     15  C   UNL     1       6.522   4.013  15.342  0.00  0.00    +0.000 C 
ATOM     16  C   UNL     1       6.306   4.431  16.791  0.00  0.00    +0.000 C 
BRANCH  12  17
ATOM     17  O   UNL     1       7.492   6.558  16.653  0.00  0.00    +0.000 OA
BRANCH  17  19
ATOM     18  C   UNL     1       8.026   8.608  17.796  0.00  0.00    +0.000 C 
ATOM     19  C   UNL     1       7.831   7.116  17.922  0.00  0.00    +0.000 C 
ENDBRANCH  17  19
ENDBRANCH  12  17
ENDBRANCH   1  16
TORSDOF 4
ENDMDL
MODEL 2
REMARK VINA RESULT:      -6.4      2.322      6.434
REMARK  Name = 
REMARK  6 active torsions:
REMARK  status: ('A' for Active; 'I' for Inactive)
REMARK    1  A    between atoms: C_1  and  C_2
REMARK    2  A    between atoms: C_2  and  O_3
REMARK    3  A    between atoms: O_3  and  C_4
REMARK    4  A    between atoms: C_8  and  N_9
REMARK    5  A    between atoms: C_10  and  C_12
REMARK    6  A    between atoms: C_14  and  C_15
REMARK                            x       y       z     vdW  Elec       q    Type
REMARK                         _______ _______ _______ _____ _____    ______ ____
ROOT
ATOM      1  N   UNL     1       4.765   4.321  16.924  0.00  0.00    +0.000 N 
ATOM      2  C   UNL     1       6.116   4.482  16.701  0.00  0.00    +0.000 C 
ATOM      3  O   UNL     1       6.927   4.541  17.638  0.00  0.00    +0.000 OA
ATOM      4  H   UNL     1       4.190   4.038  16.134  0.00  0.00    +0.000 HD
ENDROOT
BRANCH   2   5
ATOM      5  C   UNL     1       6.524   4.521  15.314  0.00  0.00    +0.000 A 
ATOM      6  N   UNL     1       6.029   3.739  14.366  0.00  0.00    +0.000 NA
ATOM      7  C   UNL     1       6.710   4.061  13.213  0.00  0.00    +0.000 A 
ATOM      8  C   UNL     1       6.425   3.360  11.943  0.00  0.00    +0.000 C 
ATOM      9  C   UNL     1       7.635   5.051  13.464  0.00  0.00    +0.000 A 
ATOM     10  N   UNL     1       7.493   5.348  14.790  0.00  0.00    +0.000 N 
ATOM     11  H   UNL     1       8.043   6.009  15.326  0.00  0.00    +0.000 HD
ENDBRANCH   2   5
BRANCH   1  16
ATOM     12  C   UNL     1       3.061   3.305  18.423  0.00  0.00    +0.000 C 
ATOM     13  C   UNL     1       1.882   4.205  18.067  0.00  0.00    +0.000 C 
ATOM     14  O   UNL     1       2.251   5.568  18.321  0.00  0.00    +0.000 OA
ATOM     15  C   UNL     1       3.617   5.580  18.744  0.00  0.00    +0.000 C 
ATOM     16  C   UNL     1       4.242   4.267  18.290  0.00  0.00    +0.000 C 
BRANCH  12  17
ATOM     17  O   UNL     1       2.958   2.815  19.772  0.00  0.00    +0.000 OA
BRANCH  17  19
ATOM     18  C   UNL     1       1.479   2.735  21.669  0.00  0.00    +0.000 C 
ATOM     19  C   UNL     1       1.603   2.610  20.169  0.00  0.00    +0.000 C 
ENDBRANCH  17  19
ENDBRANCH  12  17
ENDBRANCH   1  16
TORSDOF 4
ENDMDL
MODEL 3
REMARK VINA RESULT:      -6.4      2.325      6.373
REMARK  Name = 
REMARK  6 active torsions:
REMARK  status: ('A' for Active; 'I' for Inactive)
REMARK    1  A    between atoms: C_1  and  C_2
REMARK    2  A    between atoms: C_2  and  O_3
REMARK    3  A    between atoms: O_3  and  C_4
REMARK    4  A    between atoms: C_8  and  N_9
REMARK    5  A    between atoms: C_10  and  C_12
REMARK    6  A    between atoms: C_14  and  C_15
REMARK                            x       y       z     vdW  Elec       q    Type
REMARK                         _______ _______ _______ _____ _____    ______ ____
ROOT
ATOM      1  N   UNL     1       4.045   4.341  16.789  0.00  0.00    +0.000 N 
ATOM      2  C   UNL     1       5.260   4.984  16.689  0.00  0.00    +0.000 C 
ATOM      3  O   UNL     1       5.742   5.615  17.642  0.00  0.00    +0.000 OA
ATOM      4  H   UNL     1       3.820   3.650  16.078  0.00  0.00    +0.000 HD
ENDROOT
BRANCH   2   5
ATOM      5  C   UNL     1       5.953   4.827  15.429  0.00  0.00    +0.000 A 
ATOM      6  N   UNL     1       5.524   4.070  14.429  0.00  0.00    +0.000 NA
ATOM      7  C   UNL     1       6.484   4.160  13.446  0.00  0.00    +0.000 A 
ATOM      8  C   UNL     1       6.342   3.416  12.176  0.00  0.00    +0.000 C 
ATOM      9  C   UNL     1       7.514   4.980  13.854  0.00  0.00    +0.000 A 
ATOM     10  N   UNL     1       7.156   5.411  15.100  0.00  0.00    +0.000 N 
ATOM     11  H   UNL     1       7.700   6.003  15.717  0.00  0.00    +0.000 HD
ENDBRANCH   2   5
BRANCH   1  16
ATOM     12  C   UNL     1       3.534   3.268  18.973  0.00  0.00    +0.000 C 
ATOM     13  C   UNL     1       2.539   2.220  18.482  0.00  0.00    +0.000 C 
ATOM     14  O   UNL     1       1.462   2.888  17.810  0.00  0.00    +0.000 OA
ATOM     15  C   UNL     1       1.760   4.287  17.787  0.00  0.00    +0.000 C 
ATOM     16  C   UNL     1       3.259   4.432  18.020  0.00  0.00    +0.000 C 
BRANCH  12  17
ATOM     17  O   UNL     1       3.262   3.653  20.333  0.00  0.00    +0.000 OA
BRANCH  17  19
ATOM     18  C   UNL     1       1.404   2.929  21.682  0.00  0.00    +0.000 C 
ATOM     19  C   UNL     1       2.754   2.568  21.109  0.00  0.00    +0.000 C 
ENDBRANCH  17  19
ENDBRANCH  12  17
ENDBRANCH   1  16
TORSDOF 4
ENDMDL
MODEL 4
REMARK VINA RESULT:      -6.3      2.323      6.475
REMARK  Name = 
REMARK  6 active torsions:
REMARK  status: ('A' for Active; 'I' for Inactive)
REMARK    1  A    between atoms: C_1  and  C_2
REMARK    2  A    between atoms: C_2  and  O_3
REMARK    3  A    between atoms: O_3  and  C_4
REMARK    4  A    between atoms: C_8  and  N_9
REMARK    5  A    between atoms: C_10  and  C_12
REMARK    6  A    between atoms: C_14  and  C_15
REMARK                            x       y       z     vdW  Elec       q    Type
REMARK                         _______ _______ _______ _____ _____    ______ ____
ROOT
ATOM      1  N   UNL     1       5.011   3.815  17.019  0.00  0.00    +0.000 N 
ATOM      2  C   UNL     1       6.290   4.255  16.754  0.00  0.00    +0.000 C 
ATOM      3  O   UNL     1       7.090   4.511  17.666  0.00  0.00    +0.000 OA
ATOM      4  H   UNL     1       4.493   3.393  16.252  0.00  0.00    +0.000 HD
ENDROOT
BRANCH   2   5
ATOM      5  C   UNL     1       6.649   4.343  15.356  0.00  0.00    +0.000 A 
ATOM      6  N   UNL     1       7.492   5.234  14.854  0.00  0.00    +0.000 NA
ATOM      7  C   UNL     1       7.520   5.007  13.496  0.00  0.00    +0.000 A 
ATOM      8  C   UNL     1       8.352   5.843  12.604  0.00  0.00    +0.000 C 
ATOM      9  C   UNL     1       6.679   3.966  13.165  0.00  0.00    +0.000 A 
ATOM     10  N   UNL     1       6.152   3.541  14.352  0.00  0.00    +0.000 N 
ATOM     11  H   UNL     1       5.462   2.811  14.482  0.00  0.00    +0.000 HD
ENDBRANCH   2   5
BRANCH   1  16
ATOM     12  C   UNL     1       3.165   3.029  18.488  0.00  0.00    +0.000 C 
ATOM     13  C   UNL     1       2.235   4.230  18.344  0.00  0.00    +0.000 C 
ATOM     14  O   UNL     1       2.942   5.411  18.751  0.00  0.00    +0.000 OA
ATOM     15  C   UNL     1       4.283   5.029  19.071  0.00  0.00    +0.000 C 
ATOM     16  C   UNL     1       4.543   3.686  18.399  0.00  0.00    +0.000 C 
BRANCH  12  17
ATOM     17  O   UNL     1       2.995   2.384  19.763  0.00  0.00    +0.000 OA
BRANCH  17  19
ATOM     18  C   UNL     1       1.678   2.669  21.757  0.00  0.00    +0.000 C 
ATOM     19  C   UNL     1       1.662   2.507  20.256  0.00  0.00    +0.000 C 
ENDBRANCH  17  19
ENDBRANCH  12  17
ENDBRANCH   1  16
TORSDOF 4
ENDMDL
MODEL 5
REMARK VINA RESULT:      -6.3      0.506      1.133
REMARK  Name = 
REMARK  6 active torsions:
REMARK  status: ('A' for Active; 'I' for Inactive)
REMARK    1  A    between atoms: C_1  and  C_2
REMARK    2  A    between atoms: C_2  and  O_3
REMARK    3  A    between atoms: O_3  and  C_4
REMARK    4  A    between atoms: C_8  and  N_9
REMARK    5  A    between atoms: C_10  and  C_12
REMARK    6  A    between atoms: C_14  and  C_15
REMARK                            x       y       z     vdW  Elec       q    Type
REMARK                         _______ _______ _______ _____ _____    ______ ____
ROOT
ATOM      1  N   UNL     1       5.168   3.975  17.450  0.00  0.00    +0.000 N 
ATOM      2  C   UNL     1       5.028   3.907  18.820  0.00  0.00    +0.000 C 
ATOM      3  O   UNL     1       5.882   4.380  19.585  0.00  0.00    +0.000 OA
ATOM      4  H   UNL     1       4.341   3.797  16.886  0.00  0.00    +0.000 HD
ENDROOT
BRANCH   2   5
ATOM      5  C   UNL     1       3.804   3.302  19.298  0.00  0.00    +0.000 A 
ATOM      6  N   UNL     1       2.721   3.118  18.557  0.00  0.00    +0.000 NA
ATOM      7  C   UNL     1       1.779   2.561  19.393  0.00  0.00    +0.000 A 
ATOM      8  C   UNL     1       0.423   2.237  18.899  0.00  0.00    +0.000 C 
ATOM      9  C   UNL     1       2.294   2.406  20.661  0.00  0.00    +0.000 A 
ATOM     10  N   UNL     1       3.581   2.858  20.583  0.00  0.00    +0.000 N 
ATOM     11  H   UNL     1       4.248   2.926  21.343  0.00  0.00    +0.000 HD
ENDBRANCH   2   5
BRANCH   1  16
ATOM     12  C   UNL     1       6.206   6.068  16.599  0.00  0.00    +0.000 C 
ATOM     13  C   UNL     1       5.580   6.081  15.208  0.00  0.00    +0.000 C 
ATOM     14  O   UNL     1       5.922   4.858  14.539  0.00  0.00    +0.000 OA
ATOM     15  C   UNL     1       6.663   4.049  15.457  0.00  0.00    +0.000 C 
ATOM     16  C   UNL     1       6.366   4.570  16.858  0.00  0.00    +0.000 C 
BRANCH  12  17
ATOM     17  O   UNL     1       7.488   6.721  16.604  0.00  0.00    +0.000 OA
BRANCH  17  19
ATOM     18  C   UNL     1       7.987   8.773  17.760  0.00  0.00    +0.000 C 
ATOM     19  C   UNL     1       7.804   7.278  17.879  0.00  0.00    +0.000 C 
ENDBRANCH  17  19
ENDBRANCH  12  17
ENDBRANCH   1  16
TORSDOF 4
ENDMDL
MODEL 6
REMARK VINA RESULT:      -6.2      1.708      2.946
REMARK  Name = 
REMARK  6 active torsions:
REMARK  status: ('A' for Active; 'I' for Inactive)
REMARK    1  A    between atoms: C_1  and  C_2
REMARK    2  A    between atoms: C_2  and  O_3
REMARK    3  A    between atoms: O_3  and  C_4
REMARK    4  A    between atoms: C_8  and  N_9
REMARK    5  A    between atoms: C_10  and  C_12
REMARK    6  A    between atoms: C_14  and  C_15
REMARK                            x       y       z     vdW  Elec       q    Type
REMARK                         _______ _______ _______ _____ _____    ______ ____
ROOT
ATOM      1  N   UNL     1       4.423   4.781  17.501  0.00  0.00    +0.000 N 
ATOM      2  C   UNL     1       3.264   5.311  18.027  0.00  0.00    +0.000 C 
ATOM      3  O   UNL     1       2.959   6.501  17.858  0.00  0.00    +0.000 OA
ATOM      4  H   UNL     1       4.498   3.767  17.460  0.00  0.00    +0.000 HD
ENDROOT
BRANCH   2   5
ATOM      5  C   UNL     1       2.411   4.381  18.733  0.00  0.00    +0.000 A 
ATOM      6  N   UNL     1       2.481   4.143  20.035  0.00  0.00    +0.000 NA
ATOM      7  C   UNL     1       1.538   3.173  20.295  0.00  0.00    +0.000 A 
ATOM      8  C   UNL     1       1.352   2.643  21.663  0.00  0.00    +0.000 C 
ATOM      9  C   UNL     1       0.888   2.812  19.134  0.00  0.00    +0.000 A 
ATOM     10  N   UNL     1       1.434   3.598  18.159  0.00  0.00    +0.000 N 
ATOM     11  H   UNL     1       1.218   3.574  17.169  0.00  0.00    +0.000 HD
ENDBRANCH   2   5
BRANCH   1  16
ATOM     12  C   UNL     1       6.351   4.821  15.930  0.00  0.00    +0.000 C 
ATOM     13  C   UNL     1       7.467   4.561  16.937  0.00  0.00    +0.000 C 
ATOM     14  O   UNL     1       7.421   5.579  17.948  0.00  0.00    +0.000 OA
ATOM     15  C   UNL     1       6.295   6.418  17.674  0.00  0.00    +0.000 C 
ATOM     16  C   UNL     1       5.358   5.632  16.765  0.00  0.00    +0.000 C 
BRANCH  12  17
ATOM     17  O   UNL     1       6.822   5.595  14.813  0.00  0.00    +0.000 OA
BRANCH  17  19
ATOM     18  C   UNL     1       5.985   3.785  13.465  0.00  0.00    +0.000 C 
ATOM     19  C   UNL     1       7.099   4.782  13.673  0.00  0.00    +0.000 C 
ENDBRANCH  17  19
ENDBRANCH  12  17
ENDBRANCH   1  16
TORSDOF 4
ENDMDL
MODEL 7
REMARK VINA RESULT:      -6.1      1.680      3.043
REMARK  Name = 
REMARK  6 active torsions:
REMARK  status: ('A' for Active; 'I' for Inactive)
REMARK    1  A    between atoms: C_1  and  C_2
REMARK    2  A    between atoms: C_2  and  O_3
REMARK    3  A    between atoms: O_3  and  C_4
REMARK    4  A    between atoms: C_8  and  N_9
REMARK    5  A    between atoms: C_10  and  C_12
REMARK    6  A    between atoms: C_14  and  C_15
REMARK                            x       y       z     vdW  Elec       q    Type
REMARK                         _______ _______ _______ _____ _____    ______ ____
ROOT
ATOM      1  N   UNL     1       5.073   4.186  17.361  0.00  0.00    +0.000 N 
ATOM      2  C   UNL     1       3.834   3.638  17.618  0.00  0.00    +0.000 C 
ATOM      3  O   UNL     1       2.955   3.580  16.746  0.00  0.00    +0.000 OA
ATOM      4  H   UNL     1       5.819   3.988  18.023  0.00  0.00    +0.000 HD
ENDROOT
BRANCH   2   5
ATOM      5  C   UNL     1       3.651   3.093  18.946  0.00  0.00    +0.000 A 
ATOM      6  N   UNL     1       2.529   3.185  19.644  0.00  0.00    +0.000 NA
ATOM      7  C   UNL     1       2.786   2.584  20.857  0.00  0.00    +0.000 A 
ATOM      8  C   UNL     1       1.747   2.522  21.908  0.00  0.00    +0.000 C 
ATOM      9  C   UNL     1       4.083   2.122  20.898  0.00  0.00    +0.000 A 
ATOM     10  N   UNL     1       4.612   2.431  19.677  0.00  0.00    +0.000 N 
ATOM     11  H   UNL     1       5.565   2.270  19.370  0.00  0.00    +0.000 HD
ENDBRANCH   2   5
BRANCH   1  16
ATOM     12  C   UNL     1       6.855   4.692  15.702  0.00  0.00    +0.000 C 
ATOM     13  C   UNL     1       7.385   5.979  16.327  0.00  0.00    +0.000 C 
ATOM     14  O   UNL     1       6.304   6.916  16.437  0.00  0.00    +0.000 OA
ATOM     15  C   UNL     1       5.112   6.265  15.986  0.00  0.00    +0.000 C 
ATOM     16  C   UNL     1       5.367   4.764  16.050  0.00  0.00    +0.000 C 
BRANCH  12  17
ATOM     17  O   UNL     1       7.041   4.686  14.276  0.00  0.00    +0.000 OA
BRANCH  17  19
ATOM     18  C   UNL     1       6.583   3.580  12.188  0.00  0.00    +0.000 C 
ATOM     19  C   UNL     1       6.150   3.784  13.620  0.00  0.00    +0.000 C 
ENDBRANCH  17  19
ENDBRANCH  12  17
ENDBRANCH   1  16
TORSDOF 4
ENDMDL
MODEL 8
REMARK VINA RESULT:      -6.0      1.688      3.064
REMARK  Name = 
REMARK  6 active torsions:
REMARK  status: ('A' for Active; 'I' for Inactive)
REMARK    1  A    between atoms: C_1  and  C_2
REMARK    2  A    between atoms: C_2  and  O_3
REMARK    3  A    between atoms: O_3  and  C_4
REMARK    4  A    between atoms: C_8  and  N_9
REMARK    5  A    between atoms: C_10  and  C_12
REMARK    6  A    between atoms: C_14  and  C_15
REMARK                            x       y       z     vdW  Elec       q    Type
REMARK                         _______ _______ _______ _____ _____    ______ ____
ROOT
ATOM      1  N   UNL     1       4.808   5.487  18.157  0.00  0.00    +0.000 N 
ATOM      2  C   UNL     1       3.810   4.556  17.957  0.00  0.00    +0.000 C 
ATOM      3  O   UNL     1       3.741   3.893  16.912  0.00  0.00    +0.000 OA
ATOM      4  H   UNL     1       4.958   5.816  19.108  0.00  0.00    +0.000 HD
ENDROOT
BRANCH   2   5
ATOM      5  C   UNL     1       2.893   4.371  19.060  0.00  0.00    +0.000 A 
ATOM      6  N   UNL     1       2.866   3.299  19.838  0.00  0.00    +0.000 NA
ATOM      7  C   UNL     1       1.830   3.498  20.724  0.00  0.00    +0.000 A 
ATOM      8  C   UNL     1       1.494   2.478  21.740  0.00  0.00    +0.000 C 
ATOM      9  C   UNL     1       1.216   4.707  20.479  0.00  0.00    +0.000 A 
ATOM     10  N   UNL     1       1.910   5.258  19.439  0.00  0.00    +0.000 N 
ATOM     11  H   UNL     1       1.708   6.134  18.972  0.00  0.00    +0.000 HD
ENDBRANCH   2   5
BRANCH   1  16
ATOM     12  C   UNL     1       6.737   4.574  16.882  0.00  0.00    +0.000 C 
ATOM     13  C   UNL     1       7.835   4.853  17.904  0.00  0.00    +0.000 C 
ATOM     14  O   UNL     1       7.846   6.257  18.196  0.00  0.00    +0.000 OA
ATOM     15  C   UNL     1       6.771   6.863  17.473  0.00  0.00    +0.000 C 
ATOM     16  C   UNL     1       5.792   5.754  17.108  0.00  0.00    +0.000 C 
BRANCH  12  17
ATOM     17  O   UNL     1       7.254   4.590  15.539  0.00  0.00    +0.000 OA
BRANCH  17  19
ATOM     18  C   UNL     1       6.211   3.779  13.527  0.00  0.00    +0.000 C 
ATOM     19  C   UNL     1       6.239   4.867  14.575  0.00  0.00    +0.000 C 
ENDBRANCH  17  19
ENDBRANCH  12  17
ENDBRANCH   1  16
TORSDOF 4
ENDMDL
MODEL 9
REMARK VINA RESULT:      -6.0      1.789      2.296
REMARK  Name = 
REMARK  6 active torsions:
REMARK  status: ('A' for Active; 'I' for Inactive)
REMARK    1  A    between atoms: C_1  and  C_2
REMARK    2  A    between atoms: C_2  and  O_3
REMARK    3  A    between atoms: O_3  and  C_4
REMARK    4  A    between atoms: C_8  and  N_9
REMARK    5  A    between atoms: C_10  and  C_12
REMARK    6  A    between atoms: C_14  and  C_15
REMARK                            x       y       z     vdW  Elec       q    Type
REMARK                         _______ _______ _______ _____ _____    ______ ____
ROOT
ATOM      1  N   UNL     1       5.273   5.101  19.064  0.00  0.00    +0.000 N 
ATOM      2  C   UNL     1       3.998   5.592  18.879  0.00  0.00    +0.000 C 
ATOM      3  O   UNL     1       3.796   6.689  18.338  0.00  0.00    +0.000 OA
ATOM      4  H   UNL     1       5.367   4.112  19.282  0.00  0.00    +0.000 HD
ENDROOT
BRANCH   2   5
ATOM      5  C   UNL     1       2.922   4.724  19.306  0.00  0.00    +0.000 A 
ATOM      6  N   UNL     1       2.834   4.179  20.511  0.00  0.00    +0.000 NA
ATOM      7  C   UNL     1       1.700   3.397  20.491  0.00  0.00    +0.000 A 
ATOM      8  C   UNL     1       1.299   2.613  21.679  0.00  0.00    +0.000 C 
ATOM      9  C   UNL     1       1.092   3.464  19.257  0.00  0.00    +0.000 A 
ATOM     10  N   UNL     1       1.862   4.323  18.524  0.00  0.00    +0.000 N 
ATOM     11  H   UNL     1       1.730   4.577  17.552  0.00  0.00    +0.000 HD
ENDBRANCH   2   5
BRANCH   1  16
ATOM     12  C   UNL     1       6.711   5.814  17.165  0.00  0.00    +0.000 C 
ATOM     13  C   UNL     1       7.597   4.575  17.075  0.00  0.00    +0.000 C 
ATOM     14  O   UNL     1       8.236   4.374  18.344  0.00  0.00    +0.000 OA
ATOM     15  C   UNL     1       7.745   5.371  19.245  0.00  0.00    +0.000 C 
ATOM     16  C   UNL     1       6.436   5.895  18.667  0.00  0.00    +0.000 C 
BRANCH  12  17
ATOM     17  O   UNL     1       7.407   6.991  16.715  0.00  0.00    +0.000 OA
BRANCH  17  19
ATOM     18  C   UNL     1       8.243   8.904  17.912  0.00  0.00    +0.000 C 
ATOM     19  C   UNL     1       7.019   8.157  17.440  0.00  0.00    +0.000 C 
ENDBRANCH  17  19
ENDBRANCH  12  17
ENDBRANCH   1  16
TORSDOF 4
ENDMDL
