MODEL 1
REMARK VINA RESULT:      -7.5      0.000      0.000
REMARK  Name = 
REMARK  11 active torsions:
REMARK  status: ('A' for Active; 'I' for Inactive)
REMARK    1  A    between atoms: C_1  and  C_2
REMARK    2  A    between atoms: C_2  and  C_3
REMARK    3  A    between atoms: C_3  and  C_4
REMARK    4  A    between atoms: C_4  and  C_5
REMARK    5  A    between atoms: C_5  and  O_6
REMARK    6  A    between atoms: O_6  and  C_7
REMARK    7  A    between atoms: C_7  and  C_9
REMARK    8  A    between atoms: C_10  and  C_11
REMARK    9  A    between atoms: C_14  and  C_15
REMARK   10  A    between atoms: C_15  and  C_16
REMARK   11  A    between atoms: C_15  and  C_17
REMARK                            x       y       z     vdW  Elec       q    Type
REMARK                         _______ _______ _______ _____ _____    ______ ____
ROOT
ATOM      1  C   UNL     1       6.021   4.874  15.648  0.00  0.00    +0.000 C 
ATOM      2  C   UNL     1       5.009   4.023  15.875  0.00  0.00    +0.000 C 
ENDROOT
BRANCH   2   3
ATOM      3  C   UNL     1       4.167   4.074  17.081  0.00  0.00    +0.000 A 
ATOM      4  C   UNL     1       4.568   4.740  18.245  0.00  0.00    +0.000 A 
ATOM      5  C   UNL     1       3.732   4.793  19.365  0.00  0.00    +0.000 A 
ATOM      6  C   UNL     1       2.468   4.194  19.347  0.00  0.00    +0.000 A 
ATOM      7  C   UNL     1       2.068   3.519  18.184  0.00  0.00    +0.000 A 
ATOM      8  C   UNL     1       2.907   3.467  17.064  0.00  0.00    +0.000 A 
BRANCH   6   9
ATOM      9  C   UNL     1       1.558   4.330  20.555  0.00  0.00    +0.000 C 
ATOM     10  C   UNL     1       2.044   3.458  21.715  0.00  0.00    +0.000 C 
ATOM     11  C   UNL     1       1.388   5.785  20.995  0.00  0.00    +0.000 C 
ENDBRANCH   6   9
ENDBRANCH   2   3
BRANCH   1  12
ATOM     12  C   UNL     1       6.936   4.685  14.498  0.00  0.00    +0.000 C 
ATOM     13  O   UNL     1       7.792   5.471  14.133  0.00  0.00    +0.000 OA
BRANCH  12  14
ATOM     14  O   UNL     1       6.522   3.568  13.855  0.00  0.00    +0.000 OA
BRANCH  14  15
ATOM     15  C   UNL     1       6.554   3.669  12.430  0.00  0.00    +0.000 C 
BRANCH  15  16
ATOM     16  C   UNL     1       5.495   2.809  11.753  0.00  0.00    +0.000 C 
BRANCH  16  17
ATOM     17  C   UNL     1       4.227   3.643  11.565  0.00  0.00    +0.000 C 
BRANCH  17  19
ATOM     18  C   UNL     1       2.852   4.222   9.549  0.00  0.00    +0.000 C 
ATOM     19  C   UNL     1       3.315   3.101  10.471  0.00  0.00    +0.000 C 
ENDBRANCH  17  19
ENDBRANCH  16  17
ENDBRANCH  15  16
ENDBRANCH  14  15
ENDBRANCH  12  14
ENDBRANCH   1  12
TORSDOF 8
ENDMDL
MODEL 2
REMARK VINA RESULT:      -7.3      0.563      1.462
REMARK  Name = 
REMARK  11 active torsions:
REMARK  status: ('A' for Active; 'I' for Inactive)
REMARK    1  A    between atoms: C_1  and  C_2
REMARK    2  A    between atoms: C_2  and  C_3
REMARK    3  A    between atoms: C_3  and  C_4
REMARK    4  A    between atoms: C_4  and  C_5
REMARK    5  A    between atoms: C_5  and  O_6
REMARK    6  A    between atoms: O_6  and  C_7
REMARK    7  A    between atoms: C_7  and  C_9
REMARK    8  A    between atoms: C_10  and  C_11
REMARK    9  A    between atoms: C_14  and  C_15
REMARK   10  A    between atoms: C_15  and  C_16
REMARK   11  A    between atoms: C_15  and  C_17
REMARK                            x       y       z     vdW  Elec       q    Type
REMARK                         _______ _______ _______ _____ _____    ______ ____
ROOT
ATOM      1  C   UNL     1       5.872   4.932  15.152  0.00  0.00    +0.000 C 
ATOM      2  C   UNL     1       5.344   3.951  15.899  0.00  0.00    +0.000 C 
ENDROOT
BRANCH   2   3
ATOM      3  C   UNL     1       4.574   4.197  17.128  0.00  0.00    +0.000 A 
ATOM      4  C   UNL     1       3.187   4.020  17.190  0.00  0.00    +0.000 A 
ATOM      5  C   UNL     1       2.488   4.237  18.382  0.00  0.00    +0.000 A 
ATOM      6  C   UNL     1       3.158   4.622  19.548  0.00  0.00    +0.000 A 
ATOM      7  C   UNL     1       4.548   4.809  19.486  0.00  0.00    +0.000 A 
ATOM      8  C   UNL     1       5.245   4.592  18.291  0.00  0.00    +0.000 A 
BRANCH   6   9
ATOM      9  C   UNL     1       2.379   4.782  20.842  0.00  0.00    +0.000 C 
ATOM     10  C   UNL     1       1.401   5.956  20.758  0.00  0.00    +0.000 C 
ATOM     11  C   UNL     1       1.660   3.495  21.250  0.00  0.00    +0.000 C 
ENDBRANCH   6   9
ENDBRANCH   2   3
BRANCH   1  12
ATOM     12  C   UNL     1       6.769   4.628  14.013  0.00  0.00    +0.000 C 
ATOM     13  O   UNL     1       7.591   5.387  13.532  0.00  0.00    +0.000 OA
BRANCH  12  14
ATOM     14  O   UNL     1       6.377   3.428  13.524  0.00  0.00    +0.000 OA
BRANCH  14  15
ATOM     15  C   UNL     1       6.561   3.285  12.114  0.00  0.00    +0.000 C 
BRANCH  15  16
ATOM     16  C   UNL     1       5.394   2.578  11.435  0.00  0.00    +0.000 C 
BRANCH  16  17
ATOM     17  C   UNL     1       4.180   3.508  11.446  0.00  0.00    +0.000 C 
BRANCH  17  19
ATOM     18  C   UNL     1       2.860   4.379   9.499  0.00  0.00    +0.000 C 
ATOM     19  C   UNL     1       3.158   3.164  10.369  0.00  0.00    +0.000 C 
ENDBRANCH  17  19
ENDBRANCH  16  17
ENDBRANCH  15  16
ENDBRANCH  14  15
ENDBRANCH  12  14
ENDBRANCH   1  12
TORSDOF 8
ENDMDL
MODEL 3
REMARK VINA RESULT:      -6.9      0.675      1.008
REMARK  Name = 
REMARK  11 active torsions:
REMARK  status: ('A' for Active; 'I' for Inactive)
REMARK    1  A    between atoms: C_1  and  C_2
REMARK    2  A    between atoms: C_2  and  C_3
REMARK    3  A    between atoms: C_3  and  C_4
REMARK    4  A    between atoms: C_4  and  C_5
REMARK    5  A    between atoms: C_5  and  O_6
REMARK    6  A    between atoms: O_6  and  C_7
REMARK    7  A    between atoms: C_7  and  C_9
REMARK    8  A    between atoms: C_10  and  C_11
REMARK    9  A    between atoms: C_14  and  C_15
REMARK   10  A    between atoms: C_15  and  C_16
REMARK   11  A    between atoms: C_15  and  C_17
REMARK                            x       y       z     vdW  Elec       q    Type
REMARK                         _______ _______ _______ _____ _____    ______ ____
ROOT
ATOM      1  C   UNL     1       6.406   4.688  15.726  0.00  0.00    +0.000 C 
ATOM      2  C   UNL     1       5.097   4.408  15.811  0.00  0.00    +0.000 C 
ENDROOT
BRANCH   2   3
ATOM      3  C   UNL     1       4.383   4.267  17.089  0.00  0.00    +0.000 A 
ATOM      4  C   UNL     1       4.898   4.766  18.292  0.00  0.00    +0.000 A 
ATOM      5  C   UNL     1       4.182   4.640  19.487  0.00  0.00    +0.000 A 
ATOM      6  C   UNL     1       2.925   4.026  19.509  0.00  0.00    +0.000 A 
ATOM      7  C   UNL     1       2.411   3.518  18.306  0.00  0.00    +0.000 A 
ATOM      8  C   UNL     1       3.131   3.644  17.112  0.00  0.00    +0.000 A 
BRANCH   6   9
ATOM      9  C   UNL     1       2.143   3.968  20.810  0.00  0.00    +0.000 C 
ATOM     10  C   UNL     1       0.639   4.098  20.557  0.00  0.00    +0.000 C 
ATOM     11  C   UNL     1       2.457   2.710  21.621  0.00  0.00    +0.000 C 
ENDBRANCH   6   9
ENDBRANCH   2   3
BRANCH   1  12
ATOM     12  C   UNL     1       7.110   4.664  14.422  0.00  0.00    +0.000 C 
ATOM     13  O   UNL     1       7.774   5.573  13.955  0.00  0.00    +0.000 OA
BRANCH  12  14
ATOM     14  O   UNL     1       6.735   3.521  13.802  0.00  0.00    +0.000 OA
BRANCH  14  15
ATOM     15  C   UNL     1       6.492   3.671  12.401  0.00  0.00    +0.000 C 
BRANCH  15  16
ATOM     16  C   UNL     1       5.024   3.922  12.080  0.00  0.00    +0.000 C 
BRANCH  16  17
ATOM     17  C   UNL     1       4.524   2.811  11.156  0.00  0.00    +0.000 C 
BRANCH  17  19
ATOM     18  C   UNL     1       3.086   4.199   9.641  0.00  0.00    +0.000 C 
ATOM     19  C   UNL     1       3.109   3.054  10.646  0.00  0.00    +0.000 C 
ENDBRANCH  17  19
ENDBRANCH  16  17
ENDBRANCH  15  16
ENDBRANCH  14  15
ENDBRANCH  12  14
ENDBRANCH   1  12
TORSDOF 8
ENDMDL
MODEL 4
REMARK VINA RESULT:      -6.9      0.888      1.397
REMARK  Name = 
REMARK  11 active torsions:
REMARK  status: ('A' for Active; 'I' for Inactive)
REMARK    1  A    between atoms: C_1  and  C_2
REMARK    2  A    between atoms: C_2  and  C_3
REMARK    3  A    between atoms: C_3  and  C_4
REMARK    4  A    between atoms: C_4  and  C_5
REMARK    5  A    between atoms: C_5  and  O_6
REMARK    6  A    between atoms: O_6  and  C_7
REMARK    7  A    between atoms: C_7  and  C_9
REMARK    8  A    between atoms: C_10  and  C_11
REMARK    9  A    between atoms: C_14  and  C_15
REMARK   10  A    between atoms: C_15  and  C_16
REMARK   11  A    between atoms: C_15  and  C_17
REMARK                            x       y       z     vdW  Elec       q    Type
REMARK                         _______ _______ _______ _____ _____    ______ ____
ROOT
ATOM      1  C   UNL     1       5.885   4.579  15.072  0.00  0.00    +0.000 C 
ATOM      2  C   UNL     1       6.078   4.252  16.359  0.00  0.00    +0.000 C 
ENDROOT
BRANCH   2   3
ATOM      3  C   UNL     1       4.977   4.044  17.312  0.00  0.00    +0.000 A 
ATOM      4  C   UNL     1       3.680   3.716  16.897  0.00  0.00    +0.000 A 
ATOM      5  C   UNL     1       2.662   3.498  17.830  0.00  0.00    +0.000 A 
ATOM      6  C   UNL     1       2.914   3.587  19.202  0.00  0.00    +0.000 A 
ATOM      7  C   UNL     1       4.211   3.924  19.620  0.00  0.00    +0.000 A 
ATOM      8  C   UNL     1       5.229   4.143  18.684  0.00  0.00    +0.000 A 
BRANCH   6   9
ATOM      9  C   UNL     1       1.803   3.275  20.190  0.00  0.00    +0.000 C 
ATOM     10  C   UNL     1       2.370   2.768  21.518  0.00  0.00    +0.000 C 
ATOM     11  C   UNL     1       0.870   4.467  20.410  0.00  0.00    +0.000 C 
ENDBRANCH   6   9
ENDBRANCH   2   3
BRANCH   1  12
ATOM     12  C   UNL     1       7.025   4.931  14.193  0.00  0.00    +0.000 C 
ATOM     13  O   UNL     1       7.973   5.630  14.504  0.00  0.00    +0.000 OA
BRANCH  12  14
ATOM     14  O   UNL     1       6.719   4.467  12.959  0.00  0.00    +0.000 OA
BRANCH  14  15
ATOM     15  C   UNL     1       5.648   3.521  12.942  0.00  0.00    +0.000 C 
BRANCH  15  16
ATOM     16  C   UNL     1       5.617   2.685  11.668  0.00  0.00    +0.000 C 
BRANCH  16  17
ATOM     17  C   UNL     1       4.193   2.685  11.111  0.00  0.00    +0.000 C 
BRANCH  17  19
ATOM     18  C   UNL     1       2.849   4.058   9.500  0.00  0.00    +0.000 C 
ATOM     19  C   UNL     1       3.687   4.082  10.772  0.00  0.00    +0.000 C 
ENDBRANCH  17  19
ENDBRANCH  16  17
ENDBRANCH  15  16
ENDBRANCH  14  15
ENDBRANCH  12  14
ENDBRANCH   1  12
TORSDOF 8
ENDMDL
MODEL 5
REMARK VINA RESULT:      -6.9      4.305      6.255
REMARK  Name = 
REMARK  11 active torsions:
REMARK  status: ('A' for Active; 'I' for Inactive)
REMARK    1  A    between atoms: C_1  and  C_2
REMARK    2  A    between atoms: C_2  and  C_3
REMARK    3  A    between atoms: C_3  and  C_4
REMARK    4  A    between atoms: C_4  and  C_5
REMARK    5  A    between atoms: C_5  and  O_6
REMARK    6  A    between atoms: O_6  and  C_7
REMARK    7  A    between atoms: C_7  and  C_9
REMARK    8  A    between atoms: C_10  and  C_11
REMARK    9  A    between atoms: C_14  and  C_15
REMARK   10  A    between atoms: C_15  and  C_16
REMARK   11  A    between atoms: C_15  and  C_17
REMARK                            x       y       z     vdW  Elec       q    Type
REMARK                         _______ _______ _______ _____ _____    ______ ____
ROOT
ATOM      1  C   UNL     1       4.253   5.598  19.209  0.00  0.00    +0.000 C 
ATOM      2  C   UNL     1       3.626   6.365  18.304  0.00  0.00    +0.000 C 
ENDROOT
BRANCH   2   3
ATOM      3  C   UNL     1       2.658   7.412  18.665  0.00  0.00    +0.000 A 
ATOM      4  C   UNL     1       2.111   7.515  19.949  0.00  0.00    +0.000 A 
ATOM      5  C   UNL     1       1.213   8.539  20.268  0.00  0.00    +0.000 A 
ATOM      6  C   UNL     1       0.849   9.496  19.316  0.00  0.00    +0.000 A 
ATOM      7  C   UNL     1       1.389   9.390  18.024  0.00  0.00    +0.000 A 
ATOM      8  C   UNL     1       2.287   8.363  17.708  0.00  0.00    +0.000 A 
BRANCH   6   9
ATOM      9  C   UNL     1      -0.074  10.635  19.713  0.00  0.00    +0.000 C 
ATOM     10  C   UNL     1      -1.342  10.645  18.856  0.00  0.00    +0.000 C 
ATOM     11  C   UNL     1      -0.419  10.611  21.203  0.00  0.00    +0.000 C 
ENDBRANCH   6   9
ENDBRANCH   2   3
BRANCH   1  12
ATOM     12  C   UNL     1       5.098   4.456  18.791  0.00  0.00    +0.000 C 
ATOM     13  O   UNL     1       6.236   4.237  19.167  0.00  0.00    +0.000 OA
BRANCH  12  14
ATOM     14  O   UNL     1       4.425   3.819  17.804  0.00  0.00    +0.000 OA
BRANCH  14  15
ATOM     15  C   UNL     1       3.755   2.630  18.228  0.00  0.00    +0.000 C 
BRANCH  15  16
ATOM     16  C   UNL     1       2.381   2.466  17.590  0.00  0.00    +0.000 C 
BRANCH  16  17
ATOM     17  C   UNL     1       1.396   3.404  18.291  0.00  0.00    +0.000 C 
BRANCH  17  19
ATOM     18  C   UNL     1       1.217   3.998  20.720  0.00  0.00    +0.000 C 
ATOM     19  C   UNL     1       0.989   2.913  19.675  0.00  0.00    +0.000 C 
ENDBRANCH  17  19
ENDBRANCH  16  17
ENDBRANCH  15  16
ENDBRANCH  14  15
ENDBRANCH  12  14
ENDBRANCH   1  12
TORSDOF 8
ENDMDL
MODEL 6
REMARK VINA RESULT:      -6.7      4.088      6.334
REMARK  Name = 
REMARK  11 active torsions:
REMARK  status: ('A' for Active; 'I' for Inactive)
REMARK    1  A    between atoms: C_1  and  C_2
REMARK    2  A    between atoms: C_2  and  C_3
REMARK    3  A    between atoms: C_3  and  C_4
REMARK    4  A    between atoms: C_4  and  C_5
REMARK    5  A    between atoms: C_5  and  O_6
REMARK    6  A    between atoms: O_6  and  C_7
REMARK    7  A    between atoms: C_7  and  C_9
REMARK    8  A    between atoms: C_10  and  C_11
REMARK    9  A    between atoms: C_14  and  C_15
REMARK   10  A    between atoms: C_15  and  C_16
REMARK   11  A    between atoms: C_15  and  C_17
REMARK                            x       y       z     vdW  Elec       q    Type
REMARK                         _______ _______ _______ _____ _____    ______ ____
ROOT
ATOM      1  C   UNL     1       4.309   5.516  18.661  0.00  0.00    +0.000 C 
ATOM      2  C   UNL     1       3.238   6.079  18.081  0.00  0.00    +0.000 C 
ENDROOT
BRANCH   2   3
ATOM      3  C   UNL     1       2.505   7.212  18.666  0.00  0.00    +0.000 A 
ATOM      4  C   UNL     1       2.124   8.327  17.910  0.00  0.00    +0.000 A 
ATOM      5  C   UNL     1       1.405   9.377  18.491  0.00  0.00    +0.000 A 
ATOM      6  C   UNL     1       1.034   9.334  19.839  0.00  0.00    +0.000 A 
ATOM      7  C   UNL     1       1.423   8.221  20.601  0.00  0.00    +0.000 A 
ATOM      8  C   UNL     1       2.144   7.172  20.017  0.00  0.00    +0.000 A 
BRANCH   6   9
ATOM      9  C   UNL     1       0.193  10.456  20.421  0.00  0.00    +0.000 C 
ATOM     10  C   UNL     1      -0.983  10.800  19.503  0.00  0.00    +0.000 C 
ATOM     11  C   UNL     1      -0.289  10.147  21.839  0.00  0.00    +0.000 C 
ENDBRANCH   6   9
ENDBRANCH   2   3
BRANCH   1  12
ATOM     12  C   UNL     1       4.916   4.281  18.112  0.00  0.00    +0.000 C 
ATOM     13  O   UNL     1       5.701   4.227  17.182  0.00  0.00    +0.000 OA
BRANCH  12  14
ATOM     14  O   UNL     1       4.303   3.243  18.730  0.00  0.00    +0.000 OA
BRANCH  14  15
ATOM     15  C   UNL     1       3.564   2.395  17.848  0.00  0.00    +0.000 C 
BRANCH  15  16
ATOM     16  C   UNL     1       2.058   2.509  18.044  0.00  0.00    +0.000 C 
BRANCH  16  17
ATOM     17  C   UNL     1       1.726   2.209  19.507  0.00  0.00    +0.000 C 
BRANCH  17  19
ATOM     18  C   UNL     1       2.034   3.793  21.426  0.00  0.00    +0.000 C 
ATOM     19  C   UNL     1       1.151   3.412  20.245  0.00  0.00    +0.000 C 
ENDBRANCH  17  19
ENDBRANCH  16  17
ENDBRANCH  15  16
ENDBRANCH  14  15
ENDBRANCH  12  14
ENDBRANCH   1  12
TORSDOF 8
ENDMDL
MODEL 7
REMARK VINA RESULT:      -6.6      1.028      1.451
REMARK  Name = 
REMARK  11 active torsions:
REMARK  status: ('A' for Active; 'I' for Inactive)
REMARK    1  A    between atoms: C_1  and  C_2
REMARK    2  A    between atoms: C_2  and  C_3
REMARK    3  A    between atoms: C_3  and  C_4
REMARK    4  A    between atoms: C_4  and  C_5
REMARK    5  A    between atoms: C_5  and  O_6
REMARK    6  A    between atoms: O_6  and  C_7
REMARK    7  A    between atoms: C_7  and  C_9
REMARK    8  A    between atoms: C_10  and  C_11
REMARK    9  A    between atoms: C_14  and  C_15
REMARK   10  A    between atoms: C_15  and  C_16
REMARK   11  A    between atoms: C_15  and  C_17
REMARK                            x       y       z     vdW  Elec       q    Type
REMARK                         _______ _______ _______ _____ _____    ______ ____
ROOT
ATOM      1  C   UNL     1       6.080   4.243  14.843  0.00  0.00    +0.000 C 
ATOM      2  C   UNL     1       5.949   4.801  16.056  0.00  0.00    +0.000 C 
ENDROOT
BRANCH   2   3
ATOM      3  C   UNL     1       4.875   4.446  16.996  0.00  0.00    +0.000 A 
ATOM      4  C   UNL     1       4.074   5.411  17.617  0.00  0.00    +0.000 A 
ATOM      5  C   UNL     1       3.044   5.039  18.486  0.00  0.00    +0.000 A 
ATOM      6  C   UNL     1       2.776   3.691  18.747  0.00  0.00    +0.000 A 
ATOM      7  C   UNL     1       3.584   2.721  18.133  0.00  0.00    +0.000 A 
ATOM      8  C   UNL     1       4.616   3.097  17.264  0.00  0.00    +0.000 A 
BRANCH   6   9
ATOM      9  C   UNL     1       1.606   3.319  19.640  0.00  0.00    +0.000 C 
ATOM     10  C   UNL     1       1.079   4.539  20.399  0.00  0.00    +0.000 C 
ATOM     11  C   UNL     1       0.482   2.625  18.868  0.00  0.00    +0.000 C 
ENDBRANCH   6   9
ENDBRANCH   2   3
BRANCH   1  12
ATOM     12  C   UNL     1       7.082   4.746  13.874  0.00  0.00    +0.000 C 
ATOM     13  O   UNL     1       7.966   5.548  14.116  0.00  0.00    +0.000 OA
BRANCH  12  14
ATOM     14  O   UNL     1       6.716   4.271  12.660  0.00  0.00    +0.000 OA
BRANCH  14  15
ATOM     15  C   UNL     1       5.541   3.457  12.682  0.00  0.00    +0.000 C 
BRANCH  15  16
ATOM     16  C   UNL     1       5.577   2.339  11.648  0.00  0.00    +0.000 C 
BRANCH  16  17
ATOM     17  C   UNL     1       4.320   2.429  10.781  0.00  0.00    +0.000 C 
BRANCH  17  19
ATOM     18  C   UNL     1       2.907   4.124   9.591  0.00  0.00    +0.000 C 
ATOM     19  C   UNL     1       3.614   3.775  10.894  0.00  0.00    +0.000 C 
ENDBRANCH  17  19
ENDBRANCH  16  17
ENDBRANCH  15  16
ENDBRANCH  14  15
ENDBRANCH  12  14
ENDBRANCH   1  12
TORSDOF 8
ENDMDL
MODEL 8
REMARK VINA RESULT:      -6.6      4.352      6.504
REMARK  Name = 
REMARK  11 active torsions:
REMARK  status: ('A' for Active; 'I' for Inactive)
REMARK    1  A    between atoms: C_1  and  C_2
REMARK    2  A    between atoms: C_2  and  C_3
REMARK    3  A    between atoms: C_3  and  C_4
REMARK    4  A    between atoms: C_4  and  C_5
REMARK    5  A    between atoms: C_5  and  O_6
REMARK    6  A    between atoms: O_6  and  C_7
REMARK    7  A    between atoms: C_7  and  C_9
REMARK    8  A    between atoms: C_10  and  C_11
REMARK    9  A    between atoms: C_14  and  C_15
REMARK   10  A    between atoms: C_15  and  C_16
REMARK   11  A    between atoms: C_15  and  C_17
REMARK                            x       y       z     vdW  Elec       q    Type
REMARK                         _______ _______ _______ _____ _____    ______ ____
ROOT
ATOM      1  C   UNL     1       4.146   5.633  19.135  0.00  0.00    +0.000 C 
ATOM      2  C   UNL     1       3.191   6.179  18.367  0.00  0.00    +0.000 C 
ENDROOT
BRANCH   2   3
ATOM      3  C   UNL     1       2.392   7.344  18.777  0.00  0.00    +0.000 A 
ATOM      4  C   UNL     1       1.978   7.539  20.100  0.00  0.00    +0.000 A 
ATOM      5  C   UNL     1       1.243   8.671  20.462  0.00  0.00    +0.000 A 
ATOM      6  C   UNL     1       0.913   9.647  19.516  0.00  0.00    +0.000 A 
ATOM      7  C   UNL     1       1.320   9.450  18.187  0.00  0.00    +0.000 A 
ATOM      8  C   UNL     1       2.055   8.314  17.827  0.00  0.00    +0.000 A 
BRANCH   6   9
ATOM      9  C   UNL     1       0.174  10.898  19.957  0.00  0.00    +0.000 C 
ATOM     10  C   UNL     1       1.121  12.098  20.046  0.00  0.00    +0.000 C 
ATOM     11  C   UNL     1      -1.025  11.212  19.060  0.00  0.00    +0.000 C 
ENDBRANCH   6   9
ENDBRANCH   2   3
BRANCH   1  12
ATOM     12  C   UNL     1       4.812   4.369  18.745  0.00  0.00    +0.000 C 
ATOM     13  O   UNL     1       5.893   3.980  19.151  0.00  0.00    +0.000 OA
BRANCH  12  14
ATOM     14  O   UNL     1       4.072   3.835  17.745  0.00  0.00    +0.000 OA
BRANCH  14  15
ATOM     15  C   UNL     1       3.818   2.436  17.891  0.00  0.00    +0.000 C 
BRANCH  15  16
ATOM     16  C   UNL     1       2.815   2.130  18.997  0.00  0.00    +0.000 C 
BRANCH  16  17
ATOM     17  C   UNL     1       1.498   2.839  18.678  0.00  0.00    +0.000 C 
BRANCH  17  19
ATOM     18  C   UNL     1       1.571   3.882  20.957  0.00  0.00    +0.000 C 
ATOM     19  C   UNL     1       0.693   3.187  19.925  0.00  0.00    +0.000 C 
ENDBRANCH  17  19
ENDBRANCH  16  17
ENDBRANCH  15  16
ENDBRANCH  14  15
ENDBRANCH  12  14
ENDBRANCH   1  12
TORSDOF 8
ENDMDL
MODEL 9
REMARK VINA RESULT:      -6.5      3.258      7.329
REMARK  Name = 
REMARK  11 active torsions:
REMARK  status: ('A' for Active; 'I' for Inactive)
REMARK    1  A    between atoms: C_1  and  C_2
REMARK    2  A    between atoms: C_2  and  C_3
REMARK    3  A    between atoms: C_3  and  C_4
REMARK    4  A    between atoms: C_4  and  C_5
REMARK    5  A    between atoms: C_5  and  O_6
REMARK    6  A    between atoms: O_6  and  C_7
REMARK    7  A    between atoms: C_7  and  C_9
REMARK    8  A    between atoms: C_10  and  C_11
REMARK    9  A    between atoms: C_14  and  C_15
REMARK   10  A    between atoms: C_15  and  C_16
REMARK   11  A    between atoms: C_15  and  C_17
REMARK                            x       y       z     vdW  Elec       q    Type
REMARK                         _______ _______ _______ _____ _____    ______ ____
ROOT
ATOM      1  C   UNL     1       2.635   6.348  18.580  0.00  0.00    +0.000 C 
ATOM      2  C   UNL     1       3.927   5.993  18.510  0.00  0.00    +0.000 C 
ENDROOT
BRANCH   2   3
ATOM      3  C   UNL     1       4.566   5.511  17.276  0.00  0.00    +0.000 A 
ATOM      4  C   UNL     1       4.912   6.371  16.228  0.00  0.00    +0.000 A 
ATOM      5  C   UNL     1       5.543   5.885  15.079  0.00  0.00    +0.000 A 
ATOM      6  C   UNL     1       5.858   4.528  14.952  0.00  0.00    +0.000 A 
ATOM      7  C   UNL     1       5.504   3.662  15.998  0.00  0.00    +0.000 A 
ATOM      8  C   UNL     1       4.871   4.152  17.147  0.00  0.00    +0.000 A 
BRANCH   6   9
ATOM      9  C   UNL     1       6.606   4.044  13.722  0.00  0.00    +0.000 C 
ATOM     10  C   UNL     1       5.638   3.538  12.650  0.00  0.00    +0.000 C 
ATOM     11  C   UNL     1       7.546   5.110  13.155  0.00  0.00    +0.000 C 
ENDBRANCH   6   9
ENDBRANCH   2   3
BRANCH   1  12
ATOM     12  C   UNL     1       2.001   6.677  19.878  0.00  0.00    +0.000 C 
ATOM     13  O   UNL     1       2.146   7.716  20.498  0.00  0.00    +0.000 OA
BRANCH  12  14
ATOM     14  O   UNL     1       1.380   5.551  20.301  0.00  0.00    +0.000 OA
BRANCH  14  15
ATOM     15  C   UNL     1       2.194   4.709  21.120  0.00  0.00    +0.000 C 
BRANCH  15  16
ATOM     16  C   UNL     1       1.895   3.228  20.926  0.00  0.00    +0.000 C 
BRANCH  16  17
ATOM     17  C   UNL     1       0.864   3.075  19.806  0.00  0.00    +0.000 C 
BRANCH  17  19
ATOM     18  C   UNL     1       2.686   1.786  18.662  0.00  0.00    +0.000 C 
ATOM     19  C   UNL     1       1.492   2.712  18.466  0.00  0.00    +0.000 C 
ENDBRANCH  17  19
ENDBRANCH  16  17
ENDBRANCH  15  16
ENDBRANCH  14  15
ENDBRANCH  12  14
ENDBRANCH   1  12
TORSDOF 8
ENDMDL
