MODEL 1
REMARK VINA RESULT:      -7.8      0.000      0.000
REMARK  Name = 
REMARK  4 active torsions:
REMARK  status: ('A' for Active; 'I' for Inactive)
REMARK    1  A    between atoms: C_2  and  C_3
REMARK    2  A    between atoms: C_4  and  C_5
REMARK    3  A    between atoms: C_15  and  C_16
REMARK    4  A    between atoms: C_16  and  C_17
REMARK                            x       y       z     vdW  Elec       q    Type
REMARK                         _______ _______ _______ _____ _____    ______ ____
ROOT
ATOM      1  O   UNL     1       2.428   4.212  21.298  0.00  0.00    +0.000 OA
ATOM      2  C   UNL     1       2.547   5.155  20.522  0.00  0.00    +0.000 C 
ATOM      3  N   UNL     1       1.968   6.364  20.798  0.00  0.00    +0.000 N 
ATOM      4  C   UNL     1       1.894   7.432  19.946  0.00  0.00    +0.000 A 
ATOM      5  N   UNL     1       2.420   7.562  18.754  0.00  0.00    +0.000 NA
ATOM      6  C   UNL     1       2.083   8.785  18.227  0.00  0.00    +0.000 A 
ATOM      7  C   UNL     1       1.275   9.573  19.020  0.00  0.00    +0.000 A 
ATOM      8  S   UNL     1       0.964   8.751  20.500  0.00  0.00    +0.000 S 
ATOM      9  H   UNL     1       1.474   6.429  21.675  0.00  0.00    +0.000 HD
ENDROOT
BRANCH   2  10
ATOM     10  C   UNL     1       3.356   5.026  19.287  0.00  0.00    +0.000 C 
ATOM     11  C   UNL     1       4.685   4.857  19.284  0.00  0.00    +0.000 C 
BRANCH  11  12
ATOM     12  C   UNL     1       5.559   4.712  18.046  0.00  0.00    +0.000 C 
ATOM     13  C   UNL     1       5.166   5.717  16.946  0.00  0.00    +0.000 C 
ATOM     14  C   UNL     1       5.714   7.121  17.195  0.00  0.00    +0.000 C 
ATOM     15  C   UNL     1       7.232   7.098  17.319  0.00  0.00    +0.000 C 
ATOM     16  C   UNL     1       7.686   6.153  18.424  0.00  0.00    +0.000 C 
ATOM     17  C   UNL     1       7.086   4.750  18.280  0.00  0.00    +0.000 C 
ENDBRANCH  11  12
ENDBRANCH   2  10
BRANCH   7  18
ATOM     18  C   UNL     1       0.701  10.917  18.711  0.00  0.00    +0.000 C 
BRANCH  18  19
ATOM     19  C   UNL     1      -0.783  10.885  18.430  0.00  0.00    +0.000 A 
ATOM     20  C   UNL     1      -1.661  11.747  19.104  0.00  0.00    +0.000 A 
ATOM     21  C   UNL     1      -3.029  11.721  18.826  0.00  0.00    +0.000 A 
ATOM     22  C   UNL     1      -3.532  10.831  17.877  0.00  0.00    +0.000 A 
ATOM     23  C   UNL     1      -2.669   9.961  17.213  0.00  0.00    +0.000 A 
ATOM     24  C   UNL     1      -1.302   9.983  17.491  0.00  0.00    +0.000 A 
ENDBRANCH  18  19
ENDBRANCH   7  18
TORSDOF 4
ENDMDL
MODEL 2
REMARK VINA RESULT:      -7.5      0.883      1.009
REMARK  Name = 
REMARK  4 active torsions:
REMARK  status: ('A' for Active; 'I' for Inactive)
REMARK    1  A    between atoms: C_2  and  C_3
REMARK    2  A    between atoms: C_4  and  C_5
REMARK    3  A    between atoms: C_15  and  C_16
REMARK    4  A    between atoms: C_16  and  C_17
REMARK                            x       y       z     vdW  Elec       q    Type
REMARK                         _______ _______ _______ _____ _____    ______ ____
ROOT
ATOM      1  O   UNL     1       2.805   4.724  20.692  0.00  0.00    +0.000 OA
ATOM      2  C   UNL     1       2.778   5.753  20.025  0.00  0.00    +0.000 C 
ATOM      3  N   UNL     1       2.020   6.822  20.419  0.00  0.00    +0.000 N 
ATOM      4  C   UNL     1       1.783   7.952  19.685  0.00  0.00    +0.000 A 
ATOM      5  N   UNL     1       2.285   8.290  18.524  0.00  0.00    +0.000 NA
ATOM      6  C   UNL     1       1.765   9.498  18.126  0.00  0.00    +0.000 A 
ATOM      7  C   UNL     1       0.843  10.062  18.984  0.00  0.00    +0.000 A 
ATOM      8  S   UNL     1       0.660   9.044  20.361  0.00  0.00    +0.000 S 
ATOM      9  H   UNL     1       1.520   6.714  21.288  0.00  0.00    +0.000 HD
ENDROOT
BRANCH   2  10
ATOM     10  C   UNL     1       3.600   5.885  18.799  0.00  0.00    +0.000 C 
ATOM     11  C   UNL     1       3.815   4.883  17.936  0.00  0.00    +0.000 C 
BRANCH  11  12
ATOM     12  C   UNL     1       4.643   4.969  16.662  0.00  0.00    +0.000 C 
ATOM     13  C   UNL     1       4.969   6.428  16.288  0.00  0.00    +0.000 C 
ATOM     14  C   UNL     1       6.123   7.011  17.102  0.00  0.00    +0.000 C 
ATOM     15  C   UNL     1       7.382   6.169  16.941  0.00  0.00    +0.000 C 
ATOM     16  C   UNL     1       7.138   4.719  17.337  0.00  0.00    +0.000 C 
ATOM     17  C   UNL     1       5.927   4.110  16.622  0.00  0.00    +0.000 C 
ENDBRANCH  11  12
ENDBRANCH   2  10
BRANCH   7  18
ATOM     18  C   UNL     1       0.069  11.327  18.810  0.00  0.00    +0.000 C 
BRANCH  18  19
ATOM     19  C   UNL     1      -1.364  11.101  18.391  0.00  0.00    +0.000 A 
ATOM     20  C   UNL     1      -2.402  11.877  18.928  0.00  0.00    +0.000 A 
ATOM     21  C   UNL     1      -3.722  11.671  18.523  0.00  0.00    +0.000 A 
ATOM     22  C   UNL     1      -4.017  10.686  17.582  0.00  0.00    +0.000 A 
ATOM     23  C   UNL     1      -2.995   9.899  17.053  0.00  0.00    +0.000 A 
ATOM     24  C   UNL     1      -1.675  10.102  17.459  0.00  0.00    +0.000 A 
ENDBRANCH  18  19
ENDBRANCH   7  18
TORSDOF 4
ENDMDL
MODEL 3
REMARK VINA RESULT:      -7.4      1.867      8.187
REMARK  Name = 
REMARK  4 active torsions:
REMARK  status: ('A' for Active; 'I' for Inactive)
REMARK    1  A    between atoms: C_2  and  C_3
REMARK    2  A    between atoms: C_4  and  C_5
REMARK    3  A    between atoms: C_15  and  C_16
REMARK    4  A    between atoms: C_16  and  C_17
REMARK                            x       y       z     vdW  Elec       q    Type
REMARK                         _______ _______ _______ _____ _____    ______ ____
ROOT
ATOM      1  O   UNL     1       1.147   9.474  22.613  0.00  0.00    +0.000 OA
ATOM      2  C   UNL     1       1.263   8.989  21.492  0.00  0.00    +0.000 C 
ATOM      3  N   UNL     1       1.611   7.675  21.332  0.00  0.00    +0.000 N 
ATOM      4  C   UNL     1       1.926   7.066  20.148  0.00  0.00    +0.000 A 
ATOM      5  N   UNL     1       1.877   7.564  18.938  0.00  0.00    +0.000 NA
ATOM      6  C   UNL     1       2.302   6.624  18.030  0.00  0.00    +0.000 A 
ATOM      7  C   UNL     1       2.698   5.415  18.565  0.00  0.00    +0.000 A 
ATOM      8  S   UNL     1       2.488   5.460  20.274  0.00  0.00    +0.000 S 
ATOM      9  H   UNL     1       1.736   7.142  22.180  0.00  0.00    +0.000 HD
ENDROOT
BRANCH   2  10
ATOM     10  C   UNL     1       0.986   9.797  20.282  0.00  0.00    +0.000 C 
ATOM     11  C   UNL     1      -0.247  10.114  19.865  0.00  0.00    +0.000 C 
BRANCH  11  12
ATOM     12  C   UNL     1      -0.584  10.946  18.636  0.00  0.00    +0.000 C 
ATOM     13  C   UNL     1      -1.259  10.100  17.539  0.00  0.00    +0.000 C 
ATOM     14  C   UNL     1      -2.743   9.852  17.804  0.00  0.00    +0.000 C 
ATOM     15  C   UNL     1      -3.498  11.168  17.944  0.00  0.00    +0.000 C 
ATOM     16  C   UNL     1      -2.905  12.035  19.047  0.00  0.00    +0.000 C 
ATOM     17  C   UNL     1      -1.395  12.238  18.887  0.00  0.00    +0.000 C 
ENDBRANCH  11  12
ENDBRANCH   2  10
BRANCH   7  18
ATOM     18  C   UNL     1       3.252   4.225  17.854  0.00  0.00    +0.000 C 
BRANCH  18  19
ATOM     19  C   UNL     1       4.704   4.379  17.468  0.00  0.00    +0.000 A 
ATOM     20  C   UNL     1       5.125   4.155  16.148  0.00  0.00    +0.000 A 
ATOM     21  C   UNL     1       6.467   4.315  15.798  0.00  0.00    +0.000 A 
ATOM     22  C   UNL     1       7.400   4.695  16.762  0.00  0.00    +0.000 A 
ATOM     23  C   UNL     1       6.994   4.905  18.079  0.00  0.00    +0.000 A 
ATOM     24  C   UNL     1       5.654   4.744  18.432  0.00  0.00    +0.000 A 
ENDBRANCH  18  19
ENDBRANCH   7  18
TORSDOF 4
ENDMDL
MODEL 4
REMARK VINA RESULT:      -7.4      4.424      8.105
REMARK  Name = 
REMARK  4 active torsions:
REMARK  status: ('A' for Active; 'I' for Inactive)
REMARK    1  A    between atoms: C_2  and  C_3
REMARK    2  A    between atoms: C_4  and  C_5
REMARK    3  A    between atoms: C_15  and  C_16
REMARK    4  A    between atoms: C_16  and  C_17
REMARK                            x       y       z     vdW  Elec       q    Type
REMARK                         _______ _______ _______ _____ _____    ______ ____
ROOT
ATOM      1  O   UNL     1       2.381   7.691  18.907  0.00  0.00    +0.000 OA
ATOM      2  C   UNL     1       3.039   6.760  18.455  0.00  0.00    +0.000 C 
ATOM      3  N   UNL     1       3.942   6.966  17.447  0.00  0.00    +0.000 N 
ATOM      4  C   UNL     1       4.611   5.993  16.757  0.00  0.00    +0.000 A 
ATOM      5  N   UNL     1       4.606   4.699  16.960  0.00  0.00    +0.000 NA
ATOM      6  C   UNL     1       5.396   4.077  16.024  0.00  0.00    +0.000 A 
ATOM      7  C   UNL     1       5.981   4.909  15.091  0.00  0.00    +0.000 A 
ATOM      8  S   UNL     1       5.545   6.538  15.437  0.00  0.00    +0.000 S 
ATOM      9  H   UNL     1       4.043   7.918  17.130  0.00  0.00    +0.000 HD
ENDROOT
BRANCH   2  10
ATOM     10  C   UNL     1       2.910   5.394  19.017  0.00  0.00    +0.000 C 
ATOM     11  C   UNL     1       1.739   4.836  19.350  0.00  0.00    +0.000 C 
BRANCH  11  12
ATOM     12  C   UNL     1       1.552   3.438  19.922  0.00  0.00    +0.000 C 
ATOM     13  C   UNL     1       1.205   2.412  18.826  0.00  0.00    +0.000 C 
ATOM     14  C   UNL     1       2.426   1.947  18.034  0.00  0.00    +0.000 C 
ATOM     15  C   UNL     1       3.476   1.343  18.958  0.00  0.00    +0.000 C 
ATOM     16  C   UNL     1       3.896   2.327  20.042  0.00  0.00    +0.000 C 
ATOM     17  C   UNL     1       2.700   2.903  20.808  0.00  0.00    +0.000 C 
ENDBRANCH  11  12
ENDBRANCH   2  10
BRANCH   7  18
ATOM     18  C   UNL     1       6.842   4.536  13.929  0.00  0.00    +0.000 C 
BRANCH  18  19
ATOM     19  C   UNL     1       6.114   3.733  12.877  0.00  0.00    +0.000 A 
ATOM     20  C   UNL     1       6.738   2.652  12.237  0.00  0.00    +0.000 A 
ATOM     21  C   UNL     1       6.052   1.906  11.276  0.00  0.00    +0.000 A 
ATOM     22  C   UNL     1       4.739   2.236  10.944  0.00  0.00    +0.000 A 
ATOM     23  C   UNL     1       4.115   3.318  11.564  0.00  0.00    +0.000 A 
ATOM     24  C   UNL     1       4.799   4.066  12.522  0.00  0.00    +0.000 A 
ENDBRANCH  18  19
ENDBRANCH   7  18
TORSDOF 4
ENDMDL
MODEL 5
REMARK VINA RESULT:      -7.4      3.863      7.871
REMARK  Name = 
REMARK  4 active torsions:
REMARK  status: ('A' for Active; 'I' for Inactive)
REMARK    1  A    between atoms: C_2  and  C_3
REMARK    2  A    between atoms: C_4  and  C_5
REMARK    3  A    between atoms: C_15  and  C_16
REMARK    4  A    between atoms: C_16  and  C_17
REMARK                            x       y       z     vdW  Elec       q    Type
REMARK                         _______ _______ _______ _____ _____    ______ ____
ROOT
ATOM      1  O   UNL     1       1.722   8.358  18.945  0.00  0.00    +0.000 OA
ATOM      2  C   UNL     1       2.394   7.358  18.713  0.00  0.00    +0.000 C 
ATOM      3  N   UNL     1       3.628   7.466  18.131  0.00  0.00    +0.000 N 
ATOM      4  C   UNL     1       4.396   6.427  17.680  0.00  0.00    +0.000 A 
ATOM      5  N   UNL     1       4.171   5.142  17.783  0.00  0.00    +0.000 NA
ATOM      6  C   UNL     1       5.182   4.441  17.172  0.00  0.00    +0.000 A 
ATOM      7  C   UNL     1       6.165   5.207  16.580  0.00  0.00    +0.000 A 
ATOM      8  S   UNL     1       5.815   6.872  16.843  0.00  0.00    +0.000 S 
ATOM      9  H   UNL     1       3.947   8.403  17.937  0.00  0.00    +0.000 HD
ENDROOT
BRANCH   2  10
ATOM     10  C   UNL     1       1.911   6.011  19.097  0.00  0.00    +0.000 C 
ATOM     11  C   UNL     1       1.909   5.552  20.356  0.00  0.00    +0.000 C 
BRANCH  11  12
ATOM     12  C   UNL     1       1.417   4.183  20.802  0.00  0.00    +0.000 C 
ATOM     13  C   UNL     1       0.595   3.483  19.703  0.00  0.00    +0.000 C 
ATOM     14  C   UNL     1       1.464   2.842  18.622  0.00  0.00    +0.000 C 
ATOM     15  C   UNL     1       2.432   1.834  19.230  0.00  0.00    +0.000 C 
ATOM     16  C   UNL     1       3.308   2.476  20.297  0.00  0.00    +0.000 C 
ATOM     17  C   UNL     1       2.491   3.220  21.359  0.00  0.00    +0.000 C 
ENDBRANCH  11  12
ENDBRANCH   2  10
BRANCH   7  18
ATOM     18  C   UNL     1       7.354   4.749  15.803  0.00  0.00    +0.000 C 
BRANCH  18  19
ATOM     19  C   UNL     1       7.059   4.509  14.341  0.00  0.00    +0.000 A 
ATOM     20  C   UNL     1       7.800   5.158  13.341  0.00  0.00    +0.000 A 
ATOM     21  C   UNL     1       7.529   4.918  11.993  0.00  0.00    +0.000 A 
ATOM     22  C   UNL     1       6.514   4.033  11.631  0.00  0.00    +0.000 A 
ATOM     23  C   UNL     1       5.763   3.395  12.617  0.00  0.00    +0.000 A 
ATOM     24  C   UNL     1       6.030   3.635  13.965  0.00  0.00    +0.000 A 
ENDBRANCH  18  19
ENDBRANCH   7  18
TORSDOF 4
ENDMDL
MODEL 6
REMARK VINA RESULT:      -7.4      3.568      8.832
REMARK  Name = 
REMARK  4 active torsions:
REMARK  status: ('A' for Active; 'I' for Inactive)
REMARK    1  A    between atoms: C_2  and  C_3
REMARK    2  A    between atoms: C_4  and  C_5
REMARK    3  A    between atoms: C_15  and  C_16
REMARK    4  A    between atoms: C_16  and  C_17
REMARK                            x       y       z     vdW  Elec       q    Type
REMARK                         _______ _______ _______ _____ _____    ______ ____
ROOT
ATOM      1  O   UNL     1      -1.378  12.357  18.255  0.00  0.00    +0.000 OA
ATOM      2  C   UNL     1      -0.738  11.559  18.933  0.00  0.00    +0.000 C 
ATOM      3  N   UNL     1       0.181  10.728  18.351  0.00  0.00    +0.000 N 
ATOM      4  C   UNL     1       0.834   9.696  18.968  0.00  0.00    +0.000 A 
ATOM      5  N   UNL     1       0.795   9.345  20.229  0.00  0.00    +0.000 NA
ATOM      6  C   UNL     1       1.580   8.235  20.428  0.00  0.00    +0.000 A 
ATOM      7  C   UNL     1       2.195   7.730  19.301  0.00  0.00    +0.000 A 
ATOM      8  S   UNL     1       1.796   8.722  17.951  0.00  0.00    +0.000 S 
ATOM      9  H   UNL     1       0.309  10.835  17.356  0.00  0.00    +0.000 HD
ENDROOT
BRANCH   2  10
ATOM     10  C   UNL     1      -0.907  11.504  20.404  0.00  0.00    +0.000 C 
ATOM     11  C   UNL     1      -1.031  12.590  21.179  0.00  0.00    +0.000 C 
BRANCH  11  12
ATOM     12  C   UNL     1      -1.214  12.587  22.690  0.00  0.00    +0.000 C 
ATOM     13  C   UNL     1      -1.090  14.003  23.285  0.00  0.00    +0.000 C 
ATOM     14  C   UNL     1      -2.358  14.837  23.112  0.00  0.00    +0.000 C 
ATOM     15  C   UNL     1      -3.558  14.141  23.744  0.00  0.00    +0.000 C 
ATOM     16  C   UNL     1      -3.762  12.748  23.165  0.00  0.00    +0.000 C 
ATOM     17  C   UNL     1      -2.490  11.895  23.222  0.00  0.00    +0.000 C 
ENDBRANCH  11  12
ENDBRANCH   2  10
BRANCH   7  18
ATOM     18  C   UNL     1       3.059   6.519  19.181  0.00  0.00    +0.000 C 
BRANCH  18  19
ATOM     19  C   UNL     1       2.284   5.223  19.225  0.00  0.00    +0.000 A 
ATOM     20  C   UNL     1       2.012   4.507  18.049  0.00  0.00    +0.000 A 
ATOM     21  C   UNL     1       1.308   3.302  18.101  0.00  0.00    +0.000 A 
ATOM     22  C   UNL     1       0.866   2.805  19.327  0.00  0.00    +0.000 A 
ATOM     23  C   UNL     1       1.118   3.517  20.498  0.00  0.00    +0.000 A 
ATOM     24  C   UNL     1       1.819   4.722  20.448  0.00  0.00    +0.000 A 
ENDBRANCH  18  19
ENDBRANCH   7  18
TORSDOF 4
ENDMDL
MODEL 7
REMARK VINA RESULT:      -7.4      5.051      8.792
REMARK  Name = 
REMARK  4 active torsions:
REMARK  status: ('A' for Active; 'I' for Inactive)
REMARK    1  A    between atoms: C_2  and  C_3
REMARK    2  A    between atoms: C_4  and  C_5
REMARK    3  A    between atoms: C_15  and  C_16
REMARK    4  A    between atoms: C_16  and  C_17
REMARK                            x       y       z     vdW  Elec       q    Type
REMARK                         _______ _______ _______ _____ _____    ______ ____
ROOT
ATOM      1  O   UNL     1       6.846   5.361  20.153  0.00  0.00    +0.000 OA
ATOM      2  C   UNL     1       6.298   5.305  19.057  0.00  0.00    +0.000 C 
ATOM      3  N   UNL     1       7.012   4.980  17.935  0.00  0.00    +0.000 N 
ATOM      4  C   UNL     1       6.555   5.042  16.647  0.00  0.00    +0.000 A 
ATOM      5  N   UNL     1       5.350   5.328  16.222  0.00  0.00    +0.000 NA
ATOM      6  C   UNL     1       5.322   5.305  14.849  0.00  0.00    +0.000 A 
ATOM      7  C   UNL     1       6.524   5.023  14.233  0.00  0.00    +0.000 A 
ATOM      8  S   UNL     1       7.721   4.740  15.438  0.00  0.00    +0.000 S 
ATOM      9  H   UNL     1       7.988   4.768  18.076  0.00  0.00    +0.000 HD
ENDROOT
BRANCH   2  10
ATOM     10  C   UNL     1       4.842   5.544  18.921  0.00  0.00    +0.000 C 
ATOM     11  C   UNL     1       3.919   4.972  19.705  0.00  0.00    +0.000 C 
BRANCH  11  12
ATOM     12  C   UNL     1       2.415   5.190  19.612  0.00  0.00    +0.000 C 
ATOM     13  C   UNL     1       1.873   4.852  18.210  0.00  0.00    +0.000 C 
ATOM     14  C   UNL     1       1.691   3.352  17.985  0.00  0.00    +0.000 C 
ATOM     15  C   UNL     1       0.757   2.755  19.030  0.00  0.00    +0.000 C 
ATOM     16  C   UNL     1       1.262   3.017  20.442  0.00  0.00    +0.000 C 
ATOM     17  C   UNL     1       1.557   4.499  20.696  0.00  0.00    +0.000 C 
ENDBRANCH  11  12
ENDBRANCH   2  10
BRANCH   7  18
ATOM     18  C   UNL     1       6.827   4.977  12.772  0.00  0.00    +0.000 C 
BRANCH  18  19
ATOM     19  C   UNL     1       6.510   3.644  12.136  0.00  0.00    +0.000 A 
ATOM     20  C   UNL     1       5.181   3.234  11.949  0.00  0.00    +0.000 A 
ATOM     21  C   UNL     1       4.898   2.007  11.346  0.00  0.00    +0.000 A 
ATOM     22  C   UNL     1       5.939   1.178  10.929  0.00  0.00    +0.000 A 
ATOM     23  C   UNL     1       7.262   1.570  11.123  0.00  0.00    +0.000 A 
ATOM     24  C   UNL     1       7.547   2.794  11.728  0.00  0.00    +0.000 A 
ENDBRANCH  18  19
ENDBRANCH   7  18
TORSDOF 4
ENDMDL
MODEL 8
REMARK VINA RESULT:      -7.3      0.887      1.425
REMARK  Name = 
REMARK  4 active torsions:
REMARK  status: ('A' for Active; 'I' for Inactive)
REMARK    1  A    between atoms: C_2  and  C_3
REMARK    2  A    between atoms: C_4  and  C_5
REMARK    3  A    between atoms: C_15  and  C_16
REMARK    4  A    between atoms: C_16  and  C_17
REMARK                            x       y       z     vdW  Elec       q    Type
REMARK                         _______ _______ _______ _____ _____    ______ ____
ROOT
ATOM      1  O   UNL     1       2.759   4.201  20.562  0.00  0.00    +0.000 OA
ATOM      2  C   UNL     1       2.691   5.307  20.035  0.00  0.00    +0.000 C 
ATOM      3  N   UNL     1       2.023   6.333  20.648  0.00  0.00    +0.000 N 
ATOM      4  C   UNL     1       1.742   7.552  20.094  0.00  0.00    +0.000 A 
ATOM      5  N   UNL     1       2.116   8.025  18.932  0.00  0.00    +0.000 NA
ATOM      6  C   UNL     1       1.596   9.284  18.752  0.00  0.00    +0.000 A 
ATOM      7  C   UNL     1       0.802   9.753  19.778  0.00  0.00    +0.000 A 
ATOM      8  S   UNL     1       0.746   8.573  21.030  0.00  0.00    +0.000 S 
ATOM      9  H   UNL     1       1.625   6.126  21.551  0.00  0.00    +0.000 HD
ENDROOT
BRANCH   2  10
ATOM     10  C   UNL     1       3.367   5.577  18.745  0.00  0.00    +0.000 C 
ATOM     11  C   UNL     1       3.970   4.634  18.010  0.00  0.00    +0.000 C 
BRANCH  11  12
ATOM     12  C   UNL     1       4.671   4.858  16.677  0.00  0.00    +0.000 C 
ATOM     13  C   UNL     1       4.902   6.355  16.396  0.00  0.00    +0.000 C 
ATOM     14  C   UNL     1       6.104   6.925  17.147  0.00  0.00    +0.000 C 
ATOM     15  C   UNL     1       7.375   6.158  16.804  0.00  0.00    +0.000 C 
ATOM     16  C   UNL     1       7.226   4.672  17.101  0.00  0.00    +0.000 C 
ATOM     17  C   UNL     1       5.978   4.065  16.451  0.00  0.00    +0.000 C 
ENDBRANCH  11  12
ENDBRANCH   2  10
BRANCH   7  18
ATOM     18  C   UNL     1       0.059  11.046  19.858  0.00  0.00    +0.000 C 
BRANCH  18  19
ATOM     19  C   UNL     1      -1.255  11.029  19.114  0.00  0.00    +0.000 A 
ATOM     20  C   UNL     1      -1.483  10.114  18.075  0.00  0.00    +0.000 A 
ATOM     21  C   UNL     1      -2.706  10.097  17.403  0.00  0.00    +0.000 A 
ATOM     22  C   UNL     1      -3.711  10.995  17.761  0.00  0.00    +0.000 A 
ATOM     23  C   UNL     1      -3.489  11.918  18.782  0.00  0.00    +0.000 A 
ATOM     24  C   UNL     1      -2.266  11.939  19.452  0.00  0.00    +0.000 A 
ENDBRANCH  18  19
ENDBRANCH   7  18
TORSDOF 4
ENDMDL
MODEL 9
REMARK VINA RESULT:      -7.3      4.269      8.038
REMARK  Name = 
REMARK  4 active torsions:
REMARK  status: ('A' for Active; 'I' for Inactive)
REMARK    1  A    between atoms: C_2  and  C_3
REMARK    2  A    between atoms: C_4  and  C_5
REMARK    3  A    between atoms: C_15  and  C_16
REMARK    4  A    between atoms: C_16  and  C_17
REMARK                            x       y       z     vdW  Elec       q    Type
REMARK                         _______ _______ _______ _____ _____    ______ ____
ROOT
ATOM      1  O   UNL     1       2.190   7.990  18.779  0.00  0.00    +0.000 OA
ATOM      2  C   UNL     1       2.782   6.988  18.390  0.00  0.00    +0.000 C 
ATOM      3  N   UNL     1       3.794   7.085  17.474  0.00  0.00    +0.000 N 
ATOM      4  C   UNL     1       4.415   6.038  16.850  0.00  0.00    +0.000 A 
ATOM      5  N   UNL     1       4.248   4.755  17.050  0.00  0.00    +0.000 NA
ATOM      6  C   UNL     1       5.051   4.041  16.193  0.00  0.00    +0.000 A 
ATOM      7  C   UNL     1       5.810   4.795  15.321  0.00  0.00    +0.000 A 
ATOM      8  S   UNL     1       5.525   6.466  15.627  0.00  0.00    +0.000 S 
ATOM      9  H   UNL     1       4.028   8.018  17.170  0.00  0.00    +0.000 HD
ENDROOT
BRANCH   2  10
ATOM     10  C   UNL     1       2.450   5.650  18.935  0.00  0.00    +0.000 C 
ATOM     11  C   UNL     1       2.764   5.254  20.176  0.00  0.00    +0.000 C 
BRANCH  11  12
ATOM     12  C   UNL     1       2.440   3.897  20.785  0.00  0.00    +0.000 C 
ATOM     13  C   UNL     1       0.971   3.497  20.543  0.00  0.00    +0.000 C 
ATOM     14  C   UNL     1       0.725   2.950  19.138  0.00  0.00    +0.000 C 
ATOM     15  C   UNL     1       1.615   1.745  18.859  0.00  0.00    +0.000 C 
ATOM     16  C   UNL     1       3.088   2.088  19.039  0.00  0.00    +0.000 C 
ATOM     17  C   UNL     1       3.380   2.733  20.397  0.00  0.00    +0.000 C 
ENDBRANCH  11  12
ENDBRANCH   2  10
BRANCH   7  18
ATOM     18  C   UNL     1       6.731   4.320  14.246  0.00  0.00    +0.000 C 
BRANCH  18  19
ATOM     19  C   UNL     1       6.015   3.665  13.089  0.00  0.00    +0.000 A 
ATOM     20  C   UNL     1       4.720   4.064  12.725  0.00  0.00    +0.000 A 
ATOM     21  C   UNL     1       4.072   3.463  11.644  0.00  0.00    +0.000 A 
ATOM     22  C   UNL     1       4.710   2.455  10.922  0.00  0.00    +0.000 A 
ATOM     23  C   UNL     1       5.990   2.040  11.286  0.00  0.00    +0.000 A 
ATOM     24  C   UNL     1       6.638   2.638  12.366  0.00  0.00    +0.000 A 
ENDBRANCH  18  19
ENDBRANCH   7  18
TORSDOF 4
ENDMDL
