MODEL 1
REMARK VINA RESULT:      -6.4      0.000      0.000
REMARK  Name = 
REMARK  13 active torsions:
REMARK  status: ('A' for Active; 'I' for Inactive)
REMARK    1  A    between atoms: C_2  and  C_3
REMARK    2  A    between atoms: C_3  and  O_4
REMARK    3  A    between atoms: O_4  and  C_5
REMARK    4  A    between atoms: C_8  and  C_9
REMARK    5  A    between atoms: C_9  and  N_10
REMARK    6  A    between atoms: N_10  and  C_11
REMARK    7  A    between atoms: C_11  and  C_12
REMARK    8  A    between atoms: C_11  and  C_13
REMARK    9  A    between atoms: C_11  and  C_14
REMARK   10  A    between atoms: C_14  and  O_15
REMARK   11  A    between atoms: C_17  and  O_18
REMARK   12  A    between atoms: O_18  and  C_19
REMARK   13  A    between atoms: C_19  and  C_20
REMARK                            x       y       z     vdW  Elec       q    Type
REMARK                         _______ _______ _______ _____ _____    ______ ____
ROOT
ATOM      1  C   UNL     1       6.652   5.476  17.461  0.00  0.00    +0.000 A 
ATOM      2  C   UNL     1       6.301   5.091  18.772  0.00  0.00    +0.000 A 
ATOM      3  C   UNL     1       5.311   4.138  19.023  0.00  0.00    +0.000 A 
ATOM      4  C   UNL     1       4.633   3.535  17.961  0.00  0.00    +0.000 A 
ATOM      5  C   UNL     1       4.935   3.926  16.654  0.00  0.00    +0.000 A 
ATOM      6  C   UNL     1       5.912   4.897  16.360  0.00  0.00    +0.000 A 
ENDROOT
BRANCH   1   7
ATOM      7  O   UNL     1       7.673   6.386  17.403  0.00  0.00    +0.000 OA
BRANCH   7   8
ATOM      8  C   UNL     1       8.108   7.297  18.353  0.00  0.00    +0.000 C 
BRANCH   8  10
ATOM      9  C   UNL     1       8.694   9.702  18.338  0.00  0.00    +0.000 C 
ATOM     10  C   UNL     1       7.939   8.705  17.861  0.00  0.00    +0.000 C 
ENDBRANCH   8  10
ENDBRANCH   7   8
ENDBRANCH   1   7
BRANCH   4  11
ATOM     11  C   UNL     1       3.596   2.462  18.225  0.00  0.00    +0.000 C 
BRANCH  11  12
ATOM     12  N   UNL     1       3.037   2.586  19.582  0.00  0.00    +0.000 NA
ATOM     13  H   UNL     1       3.698   3.167  20.154  0.00  0.00    +0.000 HD
BRANCH  12  14
ATOM     14  C   UNL     1       1.671   3.171  19.677  0.00  0.00    +0.000 C 
ATOM     15  C   UNL     1       1.612   4.583  19.047  0.00  0.00    +0.000 C 
ATOM     16  C   UNL     1       0.620   2.266  18.992  0.00  0.00    +0.000 C 
BRANCH  14  17
ATOM     17  C   UNL     1       1.305   3.306  21.176  0.00  0.00    +0.000 C 
BRANCH  17  18
ATOM     18  O   UNL     1       1.888   2.281  21.939  0.00  0.00    +0.000 OA
ATOM     19  H   UNL     1       1.154   1.847  22.449  0.00  0.00    +0.000 HD
ENDBRANCH  17  18
ENDBRANCH  14  17
ENDBRANCH  12  14
ENDBRANCH  11  12
ENDBRANCH   4  11
BRANCH   6  20
ATOM     20  O   UNL     1       5.993   5.177  15.025  0.00  0.00    +0.000 OA
BRANCH  20  21
ATOM     21  C   UNL     1       6.832   4.776  14.009  0.00  0.00    +0.000 C 
ATOM     22  C   UNL     1       6.189   3.670  13.194  0.00  0.00    +0.000 C 
ENDBRANCH  20  21
ENDBRANCH   6  20
TORSDOF 10
ENDMDL
MODEL 2
REMARK VINA RESULT:      -6.3      1.049      3.926
REMARK  Name = 
REMARK  13 active torsions:
REMARK  status: ('A' for Active; 'I' for Inactive)
REMARK    1  A    between atoms: C_2  and  C_3
REMARK    2  A    between atoms: C_3  and  O_4
REMARK    3  A    between atoms: O_4  and  C_5
REMARK    4  A    between atoms: C_8  and  C_9
REMARK    5  A    between atoms: C_9  and  N_10
REMARK    6  A    between atoms: N_10  and  C_11
REMARK    7  A    between atoms: C_11  and  C_12
REMARK    8  A    between atoms: C_11  and  C_13
REMARK    9  A    between atoms: C_11  and  C_14
REMARK   10  A    between atoms: C_14  and  O_15
REMARK   11  A    between atoms: C_17  and  O_18
REMARK   12  A    between atoms: O_18  and  C_19
REMARK   13  A    between atoms: C_19  and  C_20
REMARK                            x       y       z     vdW  Elec       q    Type
REMARK                         _______ _______ _______ _____ _____    ______ ____
ROOT
ATOM      1  C   UNL     1       5.972   5.401  15.799  0.00  0.00    +0.000 A 
ATOM      2  C   UNL     1       4.955   4.439  15.970  0.00  0.00    +0.000 A 
ATOM      3  C   UNL     1       4.331   4.234  17.203  0.00  0.00    +0.000 A 
ATOM      4  C   UNL     1       4.709   4.990  18.316  0.00  0.00    +0.000 A 
ATOM      5  C   UNL     1       5.740   5.923  18.181  0.00  0.00    +0.000 A 
ATOM      6  C   UNL     1       6.408   6.145  16.961  0.00  0.00    +0.000 A 
ENDROOT
BRANCH   1   7
ATOM      7  O   UNL     1       6.436   5.496  14.515  0.00  0.00    +0.000 OA
BRANCH   7   8
ATOM      8  C   UNL     1       7.290   4.660  13.812  0.00  0.00    +0.000 C 
BRANCH   8  10
ATOM      9  C   UNL     1       5.743   3.278  12.461  0.00  0.00    +0.000 C 
ATOM     10  C   UNL     1       6.674   4.239  12.510  0.00  0.00    +0.000 C 
ENDBRANCH   8  10
ENDBRANCH   7   8
ENDBRANCH   1   7
BRANCH   4  11
ATOM     11  C   UNL     1       3.999   4.809  19.641  0.00  0.00    +0.000 C 
BRANCH  11  12
ATOM     12  N   UNL     1       3.373   3.480  19.732  0.00  0.00    +0.000 NA
ATOM     13  H   UNL     1       3.855   2.945  20.497  0.00  0.00    +0.000 HD
BRANCH  12  14
ATOM     14  C   UNL     1       1.905   3.462  19.981  0.00  0.00    +0.000 C 
ATOM     15  C   UNL     1       1.368   4.873  20.320  0.00  0.00    +0.000 C 
ATOM     16  C   UNL     1       1.132   2.907  18.761  0.00  0.00    +0.000 C 
BRANCH  14  17
ATOM     17  C   UNL     1       1.630   2.546  21.199  0.00  0.00    +0.000 C 
BRANCH  17  18
ATOM     18  O   UNL     1       2.394   2.933  22.313  0.00  0.00    +0.000 OA
ATOM     19  H   UNL     1       3.174   2.321  22.355  0.00  0.00    +0.000 HD
ENDBRANCH  17  18
ENDBRANCH  14  17
ENDBRANCH  12  14
ENDBRANCH  11  12
ENDBRANCH   4  11
BRANCH   6  20
ATOM     20  O   UNL     1       7.428   7.048  17.074  0.00  0.00    +0.000 OA
BRANCH  20  21
ATOM     21  C   UNL     1       7.500   8.375  17.438  0.00  0.00    +0.000 C 
ATOM     22  C   UNL     1       8.555   8.574  18.511  0.00  0.00    +0.000 C 
ENDBRANCH  20  21
ENDBRANCH   6  20
TORSDOF 10
ENDMDL
MODEL 3
REMARK VINA RESULT:      -6.3      0.879      1.238
REMARK  Name = 
REMARK  13 active torsions:
REMARK  status: ('A' for Active; 'I' for Inactive)
REMARK    1  A    between atoms: C_2  and  C_3
REMARK    2  A    between atoms: C_3  and  O_4
REMARK    3  A    between atoms: O_4  and  C_5
REMARK    4  A    between atoms: C_8  and  C_9
REMARK    5  A    between atoms: C_9  and  N_10
REMARK    6  A    between atoms: N_10  and  C_11
REMARK    7  A    between atoms: C_11  and  C_12
REMARK    8  A    between atoms: C_11  and  C_13
REMARK    9  A    between atoms: C_11  and  C_14
REMARK   10  A    between atoms: C_14  and  O_15
REMARK   11  A    between atoms: C_17  and  O_18
REMARK   12  A    between atoms: O_18  and  C_19
REMARK   13  A    between atoms: C_19  and  C_20
REMARK                            x       y       z     vdW  Elec       q    Type
REMARK                         _______ _______ _______ _____ _____    ______ ____
ROOT
ATOM      1  C   UNL     1       6.406   6.106  17.237  0.00  0.00    +0.000 A 
ATOM      2  C   UNL     1       5.965   5.840  18.550  0.00  0.00    +0.000 A 
ATOM      3  C   UNL     1       5.100   4.781  18.838  0.00  0.00    +0.000 A 
ATOM      4  C   UNL     1       4.643   3.948  17.814  0.00  0.00    +0.000 A 
ATOM      5  C   UNL     1       5.036   4.214  16.499  0.00  0.00    +0.000 A 
ATOM      6  C   UNL     1       5.890   5.283  16.165  0.00  0.00    +0.000 A 
ENDROOT
BRANCH   1   7
ATOM      7  O   UNL     1       7.285   7.152  17.148  0.00  0.00    +0.000 OA
BRANCH   7   8
ATOM      8  C   UNL     1       8.079   7.733  18.124  0.00  0.00    +0.000 C 
BRANCH   8  10
ATOM      9  C   UNL     1       8.952   9.974  18.710  0.00  0.00    +0.000 C 
ATOM     10  C   UNL     1       8.219   9.209  17.891  0.00  0.00    +0.000 C 
ENDBRANCH   8  10
ENDBRANCH   7   8
ENDBRANCH   1   7
BRANCH   4  11
ATOM     11  C   UNL     1       3.749   2.767  18.128  0.00  0.00    +0.000 C 
BRANCH  11  12
ATOM     12  N   UNL     1       3.338   2.772  19.542  0.00  0.00    +0.000 NA
ATOM     13  H   UNL     1       3.921   3.486  20.046  0.00  0.00    +0.000 HD
BRANCH  12  14
ATOM     14  C   UNL     1       1.899   3.047  19.807  0.00  0.00    +0.000 C 
ATOM     15  C   UNL     1       0.983   2.272  18.830  0.00  0.00    +0.000 C 
ATOM     16  C   UNL     1       1.513   2.683  21.260  0.00  0.00    +0.000 C 
BRANCH  14  17
ATOM     17  C   UNL     1       1.647   4.561  19.592  0.00  0.00    +0.000 C 
BRANCH  17  18
ATOM     18  O   UNL     1       1.206   5.177  20.775  0.00  0.00    +0.000 OA
ATOM     19  H   UNL     1       1.984   5.215  21.389  0.00  0.00    +0.000 HD
ENDBRANCH  17  18
ENDBRANCH  14  17
ENDBRANCH  12  14
ENDBRANCH  11  12
ENDBRANCH   4  11
BRANCH   6  20
ATOM     20  O   UNL     1       6.084   5.401  14.817  0.00  0.00    +0.000 OA
BRANCH  20  21
ATOM     21  C   UNL     1       6.943   4.812  13.915  0.00  0.00    +0.000 C 
ATOM     22  C   UNL     1       6.211   3.776  13.083  0.00  0.00    +0.000 C 
ENDBRANCH  20  21
ENDBRANCH   6  20
TORSDOF 10
ENDMDL
MODEL 4
REMARK VINA RESULT:      -6.2      1.552      3.934
REMARK  Name = 
REMARK  13 active torsions:
REMARK  status: ('A' for Active; 'I' for Inactive)
REMARK    1  A    between atoms: C_2  and  C_3
REMARK    2  A    between atoms: C_3  and  O_4
REMARK    3  A    between atoms: O_4  and  C_5
REMARK    4  A    between atoms: C_8  and  C_9
REMARK    5  A    between atoms: C_9  and  N_10
REMARK    6  A    between atoms: N_10  and  C_11
REMARK    7  A    between atoms: C_11  and  C_12
REMARK    8  A    between atoms: C_11  and  C_13
REMARK    9  A    between atoms: C_11  and  C_14
REMARK   10  A    between atoms: C_14  and  O_15
REMARK   11  A    between atoms: C_17  and  O_18
REMARK   12  A    between atoms: O_18  and  C_19
REMARK   13  A    between atoms: C_19  and  C_20
REMARK                            x       y       z     vdW  Elec       q    Type
REMARK                         _______ _______ _______ _____ _____    ______ ____
ROOT
ATOM      1  C   UNL     1       5.691   4.382  16.821  0.00  0.00    +0.000 A 
ATOM      2  C   UNL     1       4.330   4.243  16.477  0.00  0.00    +0.000 A 
ATOM      3  C   UNL     1       3.306   4.527  17.384  0.00  0.00    +0.000 A 
ATOM      4  C   UNL     1       3.613   4.961  18.676  0.00  0.00    +0.000 A 
ATOM      5  C   UNL     1       4.954   5.070  19.053  0.00  0.00    +0.000 A 
ATOM      6  C   UNL     1       6.015   4.774  18.175  0.00  0.00    +0.000 A 
ENDROOT
BRANCH   1   7
ATOM      7  O   UNL     1       6.554   4.105  15.794  0.00  0.00    +0.000 OA
BRANCH   7   8
ATOM      8  C   UNL     1       6.975   4.907  14.744  0.00  0.00    +0.000 C 
BRANCH   8  10
ATOM      9  C   UNL     1       5.708   3.617  13.053  0.00  0.00    +0.000 C 
ATOM     10  C   UNL     1       6.861   4.178  13.437  0.00  0.00    +0.000 C 
ENDBRANCH   8  10
ENDBRANCH   7   8
ENDBRANCH   1   7
BRANCH   4  11
ATOM     11  C   UNL     1       2.507   5.321  19.646  0.00  0.00    +0.000 C 
BRANCH  11  12
ATOM     12  N   UNL     1       2.508   4.421  20.812  0.00  0.00    +0.000 NA
ATOM     13  H   UNL     1       2.039   4.921  21.608  0.00  0.00    +0.000 HD
BRANCH  12  14
ATOM     14  C   UNL     1       1.856   3.097  20.619  0.00  0.00    +0.000 C 
ATOM     15  C   UNL     1       1.422   2.475  21.968  0.00  0.00    +0.000 C 
ATOM     16  C   UNL     1       0.621   3.205  19.693  0.00  0.00    +0.000 C 
BRANCH  14  17
ATOM     17  C   UNL     1       2.883   2.140  19.965  0.00  0.00    +0.000 C 
BRANCH  17  18
ATOM     18  O   UNL     1       2.339   1.497  18.841  0.00  0.00    +0.000 OA
ATOM     19  H   UNL     1       1.468   1.111  19.122  0.00  0.00    +0.000 HD
ENDBRANCH  17  18
ENDBRANCH  14  17
ENDBRANCH  12  14
ENDBRANCH  11  12
ENDBRANCH   4  11
BRANCH   6  20
ATOM     20  O   UNL     1       7.240   4.880  18.772  0.00  0.00    +0.000 OA
BRANCH  20  21
ATOM     21  C   UNL     1       8.030   5.938  19.162  0.00  0.00    +0.000 C 
ATOM     22  C   UNL     1       7.900   7.088  18.181  0.00  0.00    +0.000 C 
ENDBRANCH  20  21
ENDBRANCH   6  20
TORSDOF 10
ENDMDL
MODEL 5
REMARK VINA RESULT:      -6.2      1.675      4.016
REMARK  Name = 
REMARK  13 active torsions:
REMARK  status: ('A' for Active; 'I' for Inactive)
REMARK    1  A    between atoms: C_2  and  C_3
REMARK    2  A    between atoms: C_3  and  O_4
REMARK    3  A    between atoms: O_4  and  C_5
REMARK    4  A    between atoms: C_8  and  C_9
REMARK    5  A    between atoms: C_9  and  N_10
REMARK    6  A    between atoms: N_10  and  C_11
REMARK    7  A    between atoms: C_11  and  C_12
REMARK    8  A    between atoms: C_11  and  C_13
REMARK    9  A    between atoms: C_11  and  C_14
REMARK   10  A    between atoms: C_14  and  O_15
REMARK   11  A    between atoms: C_17  and  O_18
REMARK   12  A    between atoms: O_18  and  C_19
REMARK   13  A    between atoms: C_19  and  C_20
REMARK                            x       y       z     vdW  Elec       q    Type
REMARK                         _______ _______ _______ _____ _____    ______ ____
ROOT
ATOM      1  C   UNL     1       6.314   5.072  15.896  0.00  0.00    +0.000 A 
ATOM      2  C   UNL     1       5.404   4.007  16.055  0.00  0.00    +0.000 A 
ATOM      3  C   UNL     1       4.230   4.144  16.800  0.00  0.00    +0.000 A 
ATOM      4  C   UNL     1       3.926   5.360  17.416  0.00  0.00    +0.000 A 
ATOM      5  C   UNL     1       4.830   6.420  17.303  0.00  0.00    +0.000 A 
ATOM      6  C   UNL     1       6.034   6.316  16.579  0.00  0.00    +0.000 A 
ENDROOT
BRANCH   1   7
ATOM      7  O   UNL     1       7.386   4.772  15.098  0.00  0.00    +0.000 OA
BRANCH   7   8
ATOM      8  C   UNL     1       7.527   4.875  13.722  0.00  0.00    +0.000 C 
BRANCH   8  10
ATOM      9  C   UNL     1       6.622   3.248  12.090  0.00  0.00    +0.000 C 
ATOM     10  C   UNL     1       6.394   4.189  13.016  0.00  0.00    +0.000 C 
ENDBRANCH   8  10
ENDBRANCH   7   8
ENDBRANCH   1   7
BRANCH   4  11
ATOM     11  C   UNL     1       2.629   5.530  18.179  0.00  0.00    +0.000 C 
BRANCH  11  12
ATOM     12  N   UNL     1       1.931   4.243  18.334  0.00  0.00    +0.000 NA
ATOM     13  H   UNL     1       2.393   3.545  17.700  0.00  0.00    +0.000 HD
BRANCH  12  14
ATOM     14  C   UNL     1       1.881   3.686  19.714  0.00  0.00    +0.000 C 
ATOM     15  C   UNL     1       3.134   2.835  20.030  0.00  0.00    +0.000 C 
ATOM     16  C   UNL     1       1.752   4.808  20.771  0.00  0.00    +0.000 C 
BRANCH  14  17
ATOM     17  C   UNL     1       0.642   2.763  19.820  0.00  0.00    +0.000 C 
BRANCH  17  18
ATOM     18  O   UNL     1       0.292   2.230  18.569  0.00  0.00    +0.000 OA
ATOM     19  H   UNL     1      -0.292   1.446  18.741  0.00  0.00    +0.000 HD
ENDBRANCH  17  18
ENDBRANCH  14  17
ENDBRANCH  12  14
ENDBRANCH  11  12
ENDBRANCH   4  11
BRANCH   6  20
ATOM     20  O   UNL     1       6.799   7.446  16.662  0.00  0.00    +0.000 OA
BRANCH  20  21
ATOM     21  C   UNL     1       7.696   7.933  17.587  0.00  0.00    +0.000 C 
ATOM     22  C   UNL     1       8.068   6.853  18.585  0.00  0.00    +0.000 C 
ENDBRANCH  20  21
ENDBRANCH   6  20
TORSDOF 10
ENDMDL
MODEL 6
REMARK VINA RESULT:      -6.2      1.408      4.139
REMARK  Name = 
REMARK  13 active torsions:
REMARK  status: ('A' for Active; 'I' for Inactive)
REMARK    1  A    between atoms: C_2  and  C_3
REMARK    2  A    between atoms: C_3  and  O_4
REMARK    3  A    between atoms: O_4  and  C_5
REMARK    4  A    between atoms: C_8  and  C_9
REMARK    5  A    between atoms: C_9  and  N_10
REMARK    6  A    between atoms: N_10  and  C_11
REMARK    7  A    between atoms: C_11  and  C_12
REMARK    8  A    between atoms: C_11  and  C_13
REMARK    9  A    between atoms: C_11  and  C_14
REMARK   10  A    between atoms: C_14  and  O_15
REMARK   11  A    between atoms: C_17  and  O_18
REMARK   12  A    between atoms: O_18  and  C_19
REMARK   13  A    between atoms: C_19  and  C_20
REMARK                            x       y       z     vdW  Elec       q    Type
REMARK                         _______ _______ _______ _____ _____    ______ ____
ROOT
ATOM      1  C   UNL     1       6.384   5.220  15.590  0.00  0.00    +0.000 A 
ATOM      2  C   UNL     1       5.579   4.065  15.685  0.00  0.00    +0.000 A 
ATOM      3  C   UNL     1       5.014   3.656  16.895  0.00  0.00    +0.000 A 
ATOM      4  C   UNL     1       5.239   4.393  18.061  0.00  0.00    +0.000 A 
ATOM      5  C   UNL     1       6.064   5.520  18.000  0.00  0.00    +0.000 A 
ATOM      6  C   UNL     1       6.668   5.953  16.804  0.00  0.00    +0.000 A 
ENDROOT
BRANCH   1   7
ATOM      7  O   UNL     1       6.814   5.494  14.320  0.00  0.00    +0.000 OA
BRANCH   7   8
ATOM      8  C   UNL     1       7.439   4.672  13.394  0.00  0.00    +0.000 C 
BRANCH   8  10
ATOM      9  C   UNL     1       6.088   3.000  12.165  0.00  0.00    +0.000 C 
ATOM     10  C   UNL     1       6.485   4.271  12.307  0.00  0.00    +0.000 C 
ENDBRANCH   8  10
ENDBRANCH   7   8
ENDBRANCH   1   7
BRANCH   4  11
ATOM     11  C   UNL     1       4.585   3.984  19.364  0.00  0.00    +0.000 C 
BRANCH  11  12
ATOM     12  N   UNL     1       3.291   4.662  19.546  0.00  0.00    +0.000 NA
ATOM     13  H   UNL     1       3.278   5.508  18.924  0.00  0.00    +0.000 HD
BRANCH  12  14
ATOM     14  C   UNL     1       2.078   3.843  19.275  0.00  0.00    +0.000 C 
ATOM     15  C   UNL     1       0.984   4.075  20.345  0.00  0.00    +0.000 C 
ATOM     16  C   UNL     1       1.490   4.149  17.877  0.00  0.00    +0.000 C 
BRANCH  14  17
ATOM     17  C   UNL     1       2.480   2.348  19.326  0.00  0.00    +0.000 C 
BRANCH  17  18
ATOM     18  O   UNL     1       1.993   1.650  18.208  0.00  0.00    +0.000 OA
ATOM     19  H   UNL     1       2.397   2.072  17.405  0.00  0.00    +0.000 HD
ENDBRANCH  17  18
ENDBRANCH  14  17
ENDBRANCH  12  14
ENDBRANCH  11  12
ENDBRANCH   4  11
BRANCH   6  20
ATOM     20  O   UNL     1       7.490   7.031  16.989  0.00  0.00    +0.000 OA
BRANCH  20  21
ATOM     21  C   UNL     1       7.307   8.304  17.481  0.00  0.00    +0.000 C 
ATOM     22  C   UNL     1       8.526   8.749  18.267  0.00  0.00    +0.000 C 
ENDBRANCH  20  21
ENDBRANCH   6  20
TORSDOF 10
ENDMDL
MODEL 7
REMARK VINA RESULT:      -6.1      1.292      4.077
REMARK  Name = 
REMARK  13 active torsions:
REMARK  status: ('A' for Active; 'I' for Inactive)
REMARK    1  A    between atoms: C_2  and  C_3
REMARK    2  A    between atoms: C_3  and  O_4
REMARK    3  A    between atoms: O_4  and  C_5
REMARK    4  A    between atoms: C_8  and  C_9
REMARK    5  A    between atoms: C_9  and  N_10
REMARK    6  A    between atoms: N_10  and  C_11
REMARK    7  A    between atoms: C_11  and  C_12
REMARK    8  A    between atoms: C_11  and  C_13
REMARK    9  A    between atoms: C_11  and  C_14
REMARK   10  A    between atoms: C_14  and  O_15
REMARK   11  A    between atoms: C_17  and  O_18
REMARK   12  A    between atoms: O_18  and  C_19
REMARK   13  A    between atoms: C_19  and  C_20
REMARK                            x       y       z     vdW  Elec       q    Type
REMARK                         _______ _______ _______ _____ _____    ______ ____
ROOT
ATOM      1  C   UNL     1       5.797   5.332  15.652  0.00  0.00    +0.000 A 
ATOM      2  C   UNL     1       4.921   4.254  15.894  0.00  0.00    +0.000 A 
ATOM      3  C   UNL     1       4.113   4.199  17.033  0.00  0.00    +0.000 A 
ATOM      4  C   UNL     1       4.157   5.230  17.975  0.00  0.00    +0.000 A 
ATOM      5  C   UNL     1       5.045   6.291  17.776  0.00  0.00    +0.000 A 
ATOM      6  C   UNL     1       5.890   6.373  16.653  0.00  0.00    +0.000 A 
ENDROOT
BRANCH   1   7
ATOM      7  O   UNL     1       6.476   5.240  14.466  0.00  0.00    +0.000 OA
BRANCH   7   8
ATOM      8  C   UNL     1       6.798   4.125  13.709  0.00  0.00    +0.000 C 
BRANCH   8  10
ATOM      9  C   UNL     1       5.804   2.773  11.889  0.00  0.00    +0.000 C 
ATOM     10  C   UNL     1       5.714   3.822  12.716  0.00  0.00    +0.000 C 
ENDBRANCH   8  10
ENDBRANCH   7   8
ENDBRANCH   1   7
BRANCH   4  11
ATOM     11  C   UNL     1       3.245   5.203  19.183  0.00  0.00    +0.000 C 
BRANCH  11  12
ATOM     12  N   UNL     1       2.021   4.431  18.909  0.00  0.00    +0.000 NA
ATOM     13  H   UNL     1       2.004   4.204  17.884  0.00  0.00    +0.000 HD
BRANCH  12  14
ATOM     14  C   UNL     1       1.849   3.174  19.687  0.00  0.00    +0.000 C 
ATOM     15  C   UNL     1       0.890   2.191  18.975  0.00  0.00    +0.000 C 
ATOM     16  C   UNL     1       3.206   2.470  19.928  0.00  0.00    +0.000 C 
BRANCH  14  17
ATOM     17  C   UNL     1       1.228   3.533  21.059  0.00  0.00    +0.000 C 
BRANCH  17  18
ATOM     18  O   UNL     1       1.804   2.779  22.094  0.00  0.00    +0.000 OA
ATOM     19  H   UNL     1       2.466   2.170  21.674  0.00  0.00    +0.000 HD
ENDBRANCH  17  18
ENDBRANCH  14  17
ENDBRANCH  12  14
ENDBRANCH  11  12
ENDBRANCH   4  11
BRANCH   6  20
ATOM     20  O   UNL     1       6.725   7.454  16.697  0.00  0.00    +0.000 OA
BRANCH  20  21
ATOM     21  C   UNL     1       7.631   7.931  17.619  0.00  0.00    +0.000 C 
ATOM     22  C   UNL     1       8.082   6.816  18.544  0.00  0.00    +0.000 C 
ENDBRANCH  20  21
ENDBRANCH   6  20
TORSDOF 10
ENDMDL
MODEL 8
REMARK VINA RESULT:      -6.1      3.175      6.741
REMARK  Name = 
REMARK  13 active torsions:
REMARK  status: ('A' for Active; 'I' for Inactive)
REMARK    1  A    between atoms: C_2  and  C_3
REMARK    2  A    between atoms: C_3  and  O_4
REMARK    3  A    between atoms: O_4  and  C_5
REMARK    4  A    between atoms: C_8  and  C_9
REMARK    5  A    between atoms: C_9  and  N_10
REMARK    6  A    between atoms: N_10  and  C_11
REMARK    7  A    between atoms: C_11  and  C_12
REMARK    8  A    between atoms: C_11  and  C_13
REMARK    9  A    between atoms: C_11  and  C_14
REMARK   10  A    between atoms: C_14  and  O_15
REMARK   11  A    between atoms: C_17  and  O_18
REMARK   12  A    between atoms: O_18  and  C_19
REMARK   13  A    between atoms: C_19  and  C_20
REMARK                            x       y       z     vdW  Elec       q    Type
REMARK                         _______ _______ _______ _____ _____    ______ ____
ROOT
ATOM      1  C   UNL     1       3.700   5.629  17.405  0.00  0.00    +0.000 A 
ATOM      2  C   UNL     1       4.635   6.532  16.855  0.00  0.00    +0.000 A 
ATOM      3  C   UNL     1       5.594   6.126  15.924  0.00  0.00    +0.000 A 
ATOM      4  C   UNL     1       5.652   4.793  15.511  0.00  0.00    +0.000 A 
ATOM      5  C   UNL     1       4.761   3.872  16.069  0.00  0.00    +0.000 A 
ATOM      6  C   UNL     1       3.793   4.237  17.024  0.00  0.00    +0.000 A 
ENDROOT
BRANCH   1   7
ATOM      7  O   UNL     1       2.807   6.210  18.265  0.00  0.00    +0.000 OA
BRANCH   7   8
ATOM      8  C   UNL     1       2.886   6.402  19.636  0.00  0.00    +0.000 C 
BRANCH   8  10
ATOM      9  C   UNL     1       1.265   4.741  20.497  0.00  0.00    +0.000 C 
ATOM     10  C   UNL     1       2.536   5.142  20.372  0.00  0.00    +0.000 C 
ENDBRANCH   8  10
ENDBRANCH   7   8
ENDBRANCH   1   7
BRANCH   4  11
ATOM     11  C   UNL     1       6.655   4.359  14.462  0.00  0.00    +0.000 C 
BRANCH  11  12
ATOM     12  N   UNL     1       6.197   3.151  13.755  0.00  0.00    +0.000 NA
ATOM     13  H   UNL     1       5.288   2.849  14.186  0.00  0.00    +0.000 HD
BRANCH  12  14
ATOM     14  C   UNL     1       6.016   3.281  12.283  0.00  0.00    +0.000 C 
ATOM     15  C   UNL     1       4.612   3.827  11.928  0.00  0.00    +0.000 C 
ATOM     16  C   UNL     1       7.090   4.206  11.662  0.00  0.00    +0.000 C 
BRANCH  14  17
ATOM     17  C   UNL     1       6.151   1.873  11.652  0.00  0.00    +0.000 C 
BRANCH  17  18
ATOM     18  O   UNL     1       7.470   1.621  11.241  0.00  0.00    +0.000 OA
ATOM     19  H   UNL     1       7.484   0.706  10.857  0.00  0.00    +0.000 HD
ENDBRANCH  17  18
ENDBRANCH  14  17
ENDBRANCH  12  14
ENDBRANCH  11  12
ENDBRANCH   4  11
BRANCH   6  20
ATOM     20  O   UNL     1       3.079   3.167  17.487  0.00  0.00    +0.000 OA
BRANCH  20  21
ATOM     21  C   UNL     1       3.402   2.030  18.194  0.00  0.00    +0.000 C 
ATOM     22  C   UNL     1       2.241   1.602  19.072  0.00  0.00    +0.000 C 
ENDBRANCH  20  21
ENDBRANCH   6  20
TORSDOF 10
ENDMDL
MODEL 9
REMARK VINA RESULT:      -6.1      1.247      1.507
REMARK  Name = 
REMARK  13 active torsions:
REMARK  status: ('A' for Active; 'I' for Inactive)
REMARK    1  A    between atoms: C_2  and  C_3
REMARK    2  A    between atoms: C_3  and  O_4
REMARK    3  A    between atoms: O_4  and  C_5
REMARK    4  A    between atoms: C_8  and  C_9
REMARK    5  A    between atoms: C_9  and  N_10
REMARK    6  A    between atoms: N_10  and  C_11
REMARK    7  A    between atoms: C_11  and  C_12
REMARK    8  A    between atoms: C_11  and  C_13
REMARK    9  A    between atoms: C_11  and  C_14
REMARK   10  A    between atoms: C_14  and  O_15
REMARK   11  A    between atoms: C_17  and  O_18
REMARK   12  A    between atoms: O_18  and  C_19
REMARK   13  A    between atoms: C_19  and  C_20
REMARK                            x       y       z     vdW  Elec       q    Type
REMARK                         _______ _______ _______ _____ _____    ______ ____
ROOT
ATOM      1  C   UNL     1       6.497   6.154  17.047  0.00  0.00    +0.000 A 
ATOM      2  C   UNL     1       5.955   5.937  18.331  0.00  0.00    +0.000 A 
ATOM      3  C   UNL     1       4.987   4.959  18.569  0.00  0.00    +0.000 A 
ATOM      4  C   UNL     1       4.525   4.159  17.521  0.00  0.00    +0.000 A 
ATOM      5  C   UNL     1       5.018   4.379  16.232  0.00  0.00    +0.000 A 
ATOM      6  C   UNL     1       5.979   5.369  15.948  0.00  0.00    +0.000 A 
ENDROOT
BRANCH   1   7
ATOM      7  O   UNL     1       7.466   7.121  17.009  0.00  0.00    +0.000 OA
BRANCH   7   8
ATOM      8  C   UNL     1       8.101   7.786  18.046  0.00  0.00    +0.000 C 
BRANCH   8  10
ATOM      9  C   UNL     1       8.974  10.074  18.404  0.00  0.00    +0.000 C 
ATOM     10  C   UNL     1       8.072   9.270  17.827  0.00  0.00    +0.000 C 
ENDBRANCH   8  10
ENDBRANCH   7   8
ENDBRANCH   1   7
BRANCH   4  11
ATOM     11  C   UNL     1       3.515   3.061  17.783  0.00  0.00    +0.000 C 
BRANCH  11  12
ATOM     12  N   UNL     1       2.268   3.608  18.343  0.00  0.00    +0.000 NA
ATOM     13  H   UNL     1       1.489   3.389  17.674  0.00  0.00    +0.000 HD
BRANCH  12  14
ATOM     14  C   UNL     1       1.891   3.125  19.700  0.00  0.00    +0.000 C 
ATOM     15  C   UNL     1       3.129   2.666  20.506  0.00  0.00    +0.000 C 
ATOM     16  C   UNL     1       1.144   4.218  20.501  0.00  0.00    +0.000 C 
BRANCH  14  17
ATOM     17  C   UNL     1       0.952   1.903  19.537  0.00  0.00    +0.000 C 
BRANCH  17  18
ATOM     18  O   UNL     1       0.255   1.953  18.319  0.00  0.00    +0.000 OA
ATOM     19  H   UNL     1       0.761   1.393  17.674  0.00  0.00    +0.000 HD
ENDBRANCH  17  18
ENDBRANCH  14  17
ENDBRANCH  12  14
ENDBRANCH  11  12
ENDBRANCH   4  11
BRANCH   6  20
ATOM     20  O   UNL     1       6.265   5.458  14.614  0.00  0.00    +0.000 OA
BRANCH  20  21
ATOM     21  C   UNL     1       7.193   4.862  13.789  0.00  0.00    +0.000 C 
ATOM     22  C   UNL     1       6.509   3.930  12.807  0.00  0.00    +0.000 C 
ENDBRANCH  20  21
ENDBRANCH   6  20
TORSDOF 10
ENDMDL
