MODEL 1
REMARK VINA RESULT:      -7.7      0.000      0.000
REMARK  Name = 
REMARK  7 active torsions:
REMARK  status: ('A' for Active; 'I' for Inactive)
REMARK    1  A    between atoms: C_1  and  O_2
REMARK    2  A    between atoms: O_2  and  C_3
REMARK    3  A    between atoms: C_8  and  C_9
REMARK    4  A    between atoms: C_12  and  S_13
REMARK    5  A    between atoms: S_13  and  C_14
REMARK    6  A    between atoms: C_14  and  C_15
REMARK    7  A    between atoms: N_17  and  C_18
REMARK                            x       y       z     vdW  Elec       q    Type
REMARK                         _______ _______ _______ _____ _____    ______ ____
ROOT
ATOM      1  C   UNL     1       4.142   3.122  17.844  0.00  0.00    +0.000 A 
ATOM      2  N   UNL     1       3.679   1.918  17.558  0.00  0.00    +0.000 NA
ATOM      3  N   UNL     1       2.847   1.556  18.587  0.00  0.00    +0.000 NA
ATOM      4  C   UNL     1       2.854   2.557  19.443  0.00  0.00    +0.000 A 
ATOM      5  O   UNL     1       3.646   3.595  19.031  0.00  0.00    +0.000 OA
ENDROOT
BRANCH   1  11
ATOM      6  C   UNL     1       6.232   4.571  17.625  0.00  0.00    +0.000 A 
ATOM      7  C   UNL     1       7.101   5.281  16.779  0.00  0.00    +0.000 A 
ATOM      8  C   UNL     1       6.832   5.407  15.417  0.00  0.00    +0.000 A 
ATOM      9  C   UNL     1       5.699   4.814  14.880  0.00  0.00    +0.000 A 
ATOM     10  C   UNL     1       4.850   4.075  15.704  0.00  0.00    +0.000 A 
ATOM     11  C   UNL     1       5.098   3.929  17.085  0.00  0.00    +0.000 A 
BRANCH   6  13
ATOM     12  C   UNL     1       7.158   5.545  19.579  0.00  0.00    +0.000 C 
ATOM     13  O   UNL     1       6.474   4.451  18.972  0.00  0.00    +0.000 OA
ENDBRANCH   6  13
ENDBRANCH   1  11
BRANCH   4  14
ATOM     14  S   UNL     1       2.036   2.509  20.970  0.00  0.00    +0.000 S 
BRANCH  14  15
ATOM     15  C   UNL     1       2.469   4.160  21.602  0.00  0.00    +0.000 C 
BRANCH  15  16
ATOM     16  C   UNL     1       1.755   5.241  20.807  0.00  0.00    +0.000 C 
ATOM     17  O   UNL     1       0.589   5.071  20.449  0.00  0.00    +0.000 OA
ATOM     18  N   UNL     1       2.529   6.356  20.526  0.00  0.00    +0.000 N 
ATOM     19  H   UNL     1       3.535   6.297  20.696  0.00  0.00    +0.000 HD
BRANCH  18  20
ATOM     20  C   UNL     1       2.117   7.493  19.794  0.00  0.00    +0.000 A 
ATOM     21  C   UNL     1       1.344   8.521  20.337  0.00  0.00    +0.000 A 
ATOM     22  C   UNL     1       0.938   9.602  19.547  0.00  0.00    +0.000 A 
ATOM     23  C   UNL     1       1.304   9.668  18.204  0.00  0.00    +0.000 A 
ATOM     24  C   UNL     1       2.096   8.664  17.654  0.00  0.00    +0.000 A 
ATOM     25  C   UNL     1       2.503   7.595  18.452  0.00  0.00    +0.000 A 
ATOM     26  F   UNL     1       3.263   6.637  17.900  0.00  0.00    +0.000 F 
ENDBRANCH  18  20
ENDBRANCH  15  16
ENDBRANCH  14  15
ENDBRANCH   4  14
TORSDOF 6
ENDMDL
MODEL 2
REMARK VINA RESULT:      -7.4      1.054      1.437
REMARK  Name = 
REMARK  7 active torsions:
REMARK  status: ('A' for Active; 'I' for Inactive)
REMARK    1  A    between atoms: C_1  and  O_2
REMARK    2  A    between atoms: O_2  and  C_3
REMARK    3  A    between atoms: C_8  and  C_9
REMARK    4  A    between atoms: C_12  and  S_13
REMARK    5  A    between atoms: S_13  and  C_14
REMARK    6  A    between atoms: C_14  and  C_15
REMARK    7  A    between atoms: N_17  and  C_18
REMARK                            x       y       z     vdW  Elec       q    Type
REMARK                         _______ _______ _______ _____ _____    ______ ____
ROOT
ATOM      1  C   UNL     1       4.102   3.512  17.933  0.00  0.00    +0.000 A 
ATOM      2  N   UNL     1       3.017   2.912  17.477  0.00  0.00    +0.000 NA
ATOM      3  N   UNL     1       2.355   2.403  18.566  0.00  0.00    +0.000 NA
ATOM      4  C   UNL     1       3.075   2.719  19.622  0.00  0.00    +0.000 A 
ATOM      5  O   UNL     1       4.196   3.436  19.298  0.00  0.00    +0.000 OA
ENDROOT
BRANCH   1  11
ATOM      6  C   UNL     1       6.276   4.833  17.727  0.00  0.00    +0.000 A 
ATOM      7  C   UNL     1       7.251   5.391  16.882  0.00  0.00    +0.000 A 
ATOM      8  C   UNL     1       7.106   5.351  15.495  0.00  0.00    +0.000 A 
ATOM      9  C   UNL     1       5.993   4.740  14.935  0.00  0.00    +0.000 A 
ATOM     10  C   UNL     1       5.039   4.150  15.764  0.00  0.00    +0.000 A 
ATOM     11  C   UNL     1       5.160   4.174  17.169  0.00  0.00    +0.000 A 
BRANCH   6  13
ATOM     12  C   UNL     1       7.532   5.578  19.594  0.00  0.00    +0.000 C 
ATOM     13  O   UNL     1       6.395   4.879  19.095  0.00  0.00    +0.000 OA
ENDBRANCH   6  13
ENDBRANCH   1  11
BRANCH   4  14
ATOM     14  S   UNL     1       2.697   2.184  21.226  0.00  0.00    +0.000 S 
BRANCH  14  15
ATOM     15  C   UNL     1       2.141   3.757  21.951  0.00  0.00    +0.000 C 
BRANCH  15  16
ATOM     16  C   UNL     1       1.698   4.722  20.863  0.00  0.00    +0.000 C 
ATOM     17  O   UNL     1       0.663   4.503  20.233  0.00  0.00    +0.000 OA
ATOM     18  N   UNL     1       2.556   5.791  20.657  0.00  0.00    +0.000 N 
ATOM     19  H   UNL     1       3.479   5.758  21.094  0.00  0.00    +0.000 HD
BRANCH  18  20
ATOM     20  C   UNL     1       2.389   6.820  19.701  0.00  0.00    +0.000 A 
ATOM     21  C   UNL     1       2.921   6.769  18.412  0.00  0.00    +0.000 A 
ATOM     22  C   UNL     1       2.750   7.839  17.527  0.00  0.00    +0.000 A 
ATOM     23  C   UNL     1       2.040   8.972  17.920  0.00  0.00    +0.000 A 
ATOM     24  C   UNL     1       1.481   9.027  19.195  0.00  0.00    +0.000 A 
ATOM     25  C   UNL     1       1.650   7.953  20.067  0.00  0.00    +0.000 A 
ATOM     26  F   UNL     1       1.105   8.029  21.290  0.00  0.00    +0.000 F 
ENDBRANCH  18  20
ENDBRANCH  15  16
ENDBRANCH  14  15
ENDBRANCH   4  14
TORSDOF 6
ENDMDL
MODEL 3
REMARK VINA RESULT:      -7.4      1.023      1.910
REMARK  Name = 
REMARK  7 active torsions:
REMARK  status: ('A' for Active; 'I' for Inactive)
REMARK    1  A    between atoms: C_1  and  O_2
REMARK    2  A    between atoms: O_2  and  C_3
REMARK    3  A    between atoms: C_8  and  C_9
REMARK    4  A    between atoms: C_12  and  S_13
REMARK    5  A    between atoms: S_13  and  C_14
REMARK    6  A    between atoms: C_14  and  C_15
REMARK    7  A    between atoms: N_17  and  C_18
REMARK                            x       y       z     vdW  Elec       q    Type
REMARK                         _______ _______ _______ _____ _____    ______ ____
ROOT
ATOM      1  C   UNL     1       4.662   3.611  18.195  0.00  0.00    +0.000 A 
ATOM      2  N   UNL     1       4.294   2.525  17.539  0.00  0.00    +0.000 NA
ATOM      3  N   UNL     1       3.341   1.900  18.304  0.00  0.00    +0.000 NA
ATOM      4  C   UNL     1       3.186   2.639  19.383  0.00  0.00    +0.000 A 
ATOM      5  O   UNL     1       3.984   3.751  19.379  0.00  0.00    +0.000 OA
ENDROOT
BRANCH   1  11
ATOM      6  C   UNL     1       6.004   4.969  16.502  0.00  0.00    +0.000 A 
ATOM      7  C   UNL     1       6.972   5.963  16.277  0.00  0.00    +0.000 A 
ATOM      8  C   UNL     1       7.660   6.548  17.340  0.00  0.00    +0.000 A 
ATOM      9  C   UNL     1       7.378   6.159  18.641  0.00  0.00    +0.000 A 
ATOM     10  C   UNL     1       6.392   5.202  18.878  0.00  0.00    +0.000 A 
ATOM     11  C   UNL     1       5.680   4.594  17.822  0.00  0.00    +0.000 A 
BRANCH   6  13
ATOM     12  C   UNL     1       6.053   4.251  14.243  0.00  0.00    +0.000 C 
ATOM     13  O   UNL     1       5.330   4.370  15.466  0.00  0.00    +0.000 OA
ENDBRANCH   6  13
ENDBRANCH   1  11
BRANCH   4  14
ATOM     14  S   UNL     1       2.164   2.184  20.708  0.00  0.00    +0.000 S 
BRANCH  14  15
ATOM     15  C   UNL     1       2.194   3.733  21.663  0.00  0.00    +0.000 C 
BRANCH  15  16
ATOM     16  C   UNL     1       1.566   4.865  20.866  0.00  0.00    +0.000 C 
ATOM     17  O   UNL     1       0.457   4.714  20.354  0.00  0.00    +0.000 OA
ATOM     18  N   UNL     1       2.351   6.004  20.765  0.00  0.00    +0.000 N 
ATOM     19  H   UNL     1       3.329   5.939  21.054  0.00  0.00    +0.000 HD
BRANCH  18  20
ATOM     20  C   UNL     1       2.014   7.189  20.072  0.00  0.00    +0.000 A 
ATOM     21  C   UNL     1       1.374   8.276  20.669  0.00  0.00    +0.000 A 
ATOM     22  C   UNL     1       1.035   9.405  19.917  0.00  0.00    +0.000 A 
ATOM     23  C   UNL     1       1.336   9.462  18.557  0.00  0.00    +0.000 A 
ATOM     24  C   UNL     1       1.998   8.396  17.952  0.00  0.00    +0.000 A 
ATOM     25  C   UNL     1       2.339   7.279  18.712  0.00  0.00    +0.000 A 
ATOM     26  F   UNL     1       2.973   6.262  18.108  0.00  0.00    +0.000 F 
ENDBRANCH  18  20
ENDBRANCH  15  16
ENDBRANCH  14  15
ENDBRANCH   4  14
TORSDOF 6
ENDMDL
MODEL 4
REMARK VINA RESULT:      -7.3      5.169      7.028
REMARK  Name = 
REMARK  7 active torsions:
REMARK  status: ('A' for Active; 'I' for Inactive)
REMARK    1  A    between atoms: C_1  and  O_2
REMARK    2  A    between atoms: O_2  and  C_3
REMARK    3  A    between atoms: C_8  and  C_9
REMARK    4  A    between atoms: C_12  and  S_13
REMARK    5  A    between atoms: S_13  and  C_14
REMARK    6  A    between atoms: C_14  and  C_15
REMARK    7  A    between atoms: N_17  and  C_18
REMARK                            x       y       z     vdW  Elec       q    Type
REMARK                         _______ _______ _______ _____ _____    ______ ____
ROOT
ATOM      1  C   UNL     1       8.856   9.766  18.515  0.00  0.00    +0.000 A 
ATOM      2  N   UNL     1       7.983   9.904  17.532  0.00  0.00    +0.000 NA
ATOM      3  N   UNL     1       7.388   8.681  17.352  0.00  0.00    +0.000 NA
ATOM      4  C   UNL     1       7.932   7.867  18.233  0.00  0.00    +0.000 A 
ATOM      5  O   UNL     1       8.866   8.490  19.016  0.00  0.00    +0.000 OA
ENDROOT
BRANCH   1  11
ATOM      6  C   UNL     1       9.666  11.365  20.330  0.00  0.00    +0.000 A 
ATOM      7  C   UNL     1      10.643  12.282  20.756  0.00  0.00    +0.000 A 
ATOM      8  C   UNL     1      11.693  12.651  19.916  0.00  0.00    +0.000 A 
ATOM      9  C   UNL     1      11.790  12.099  18.648  0.00  0.00    +0.000 A 
ATOM     10  C   UNL     1      10.847  11.159  18.230  0.00  0.00    +0.000 A 
ATOM     11  C   UNL     1       9.775  10.766  19.058  0.00  0.00    +0.000 A 
BRANCH   6  13
ATOM     12  C   UNL     1       8.525  11.693  22.383  0.00  0.00    +0.000 C 
ATOM     13  O   UNL     1       8.615  11.003  21.138  0.00  0.00    +0.000 OA
ENDBRANCH   6  13
ENDBRANCH   1  11
BRANCH   4  14
ATOM     14  S   UNL     1       7.580   6.172  18.307  0.00  0.00    +0.000 S 
BRANCH  14  15
ATOM     15  C   UNL     1       6.379   6.048  16.945  0.00  0.00    +0.000 C 
BRANCH  15  16
ATOM     16  C   UNL     1       4.959   5.998  17.486  0.00  0.00    +0.000 C 
ATOM     17  O   UNL     1       4.192   6.940  17.286  0.00  0.00    +0.000 OA
ATOM     18  N   UNL     1       4.658   4.854  18.210  0.00  0.00    +0.000 N 
ATOM     19  H   UNL     1       5.429   4.241  18.482  0.00  0.00    +0.000 HD
BRANCH  18  20
ATOM     20  C   UNL     1       3.422   4.563  18.831  0.00  0.00    +0.000 A 
ATOM     21  C   UNL     1       3.095   4.969  20.126  0.00  0.00    +0.000 A 
ATOM     22  C   UNL     1       1.867   4.615  20.694  0.00  0.00    +0.000 A 
ATOM     23  C   UNL     1       0.949   3.855  19.973  0.00  0.00    +0.000 A 
ATOM     24  C   UNL     1       1.250   3.464  18.670  0.00  0.00    +0.000 A 
ATOM     25  C   UNL     1       2.472   3.828  18.108  0.00  0.00    +0.000 A 
ATOM     26  F   UNL     1       2.742   3.439  16.853  0.00  0.00    +0.000 F 
ENDBRANCH  18  20
ENDBRANCH  15  16
ENDBRANCH  14  15
ENDBRANCH   4  14
TORSDOF 6
ENDMDL
MODEL 5
REMARK VINA RESULT:      -7.3      1.604      2.548
REMARK  Name = 
REMARK  7 active torsions:
REMARK  status: ('A' for Active; 'I' for Inactive)
REMARK    1  A    between atoms: C_1  and  O_2
REMARK    2  A    between atoms: O_2  and  C_3
REMARK    3  A    between atoms: C_8  and  C_9
REMARK    4  A    between atoms: C_12  and  S_13
REMARK    5  A    between atoms: S_13  and  C_14
REMARK    6  A    between atoms: C_14  and  C_15
REMARK    7  A    between atoms: N_17  and  C_18
REMARK                            x       y       z     vdW  Elec       q    Type
REMARK                         _______ _______ _______ _____ _____    ______ ____
ROOT
ATOM      1  C   UNL     1       4.904   4.257  18.571  0.00  0.00    +0.000 A 
ATOM      2  N   UNL     1       4.223   3.504  17.724  0.00  0.00    +0.000 NA
ATOM      3  N   UNL     1       3.410   2.694  18.476  0.00  0.00    +0.000 NA
ATOM      4  C   UNL     1       3.643   2.997  19.736  0.00  0.00    +0.000 A 
ATOM      5  O   UNL     1       4.573   3.992  19.875  0.00  0.00    +0.000 OA
ENDROOT
BRANCH   1  11
ATOM      6  C   UNL     1       5.978   6.054  17.111  0.00  0.00    +0.000 A 
ATOM      7  C   UNL     1       6.996   7.011  16.963  0.00  0.00    +0.000 A 
ATOM      8  C   UNL     1       7.997   7.148  17.924  0.00  0.00    +0.000 A 
ATOM      9  C   UNL     1       7.986   6.340  19.052  0.00  0.00    +0.000 A 
ATOM     10  C   UNL     1       6.959   5.413  19.227  0.00  0.00    +0.000 A 
ATOM     11  C   UNL     1       5.932   5.254  18.272  0.00  0.00    +0.000 A 
BRANCH   6  13
ATOM     12  C   UNL     1       5.430   5.439  14.887  0.00  0.00    +0.000 C 
ATOM     13  O   UNL     1       4.993   5.895  16.166  0.00  0.00    +0.000 OA
ENDBRANCH   6  13
ENDBRANCH   1  11
BRANCH   4  14
ATOM     14  S   UNL     1       2.930   2.146  21.067  0.00  0.00    +0.000 S 
BRANCH  14  15
ATOM     15  C   UNL     1       1.933   3.486  21.790  0.00  0.00    +0.000 C 
BRANCH  15  16
ATOM     16  C   UNL     1       1.542   4.497  20.724  0.00  0.00    +0.000 C 
ATOM     17  O   UNL     1       0.755   4.176  19.833  0.00  0.00    +0.000 OA
ATOM     18  N   UNL     1       2.158   5.733  20.848  0.00  0.00    +0.000 N 
ATOM     19  H   UNL     1       2.941   5.816  21.500  0.00  0.00    +0.000 HD
BRANCH  18  20
ATOM     20  C   UNL     1       1.984   6.840  19.986  0.00  0.00    +0.000 A 
ATOM     21  C   UNL     1       2.341   6.831  18.637  0.00  0.00    +0.000 A 
ATOM     22  C   UNL     1       2.175   7.974  17.848  0.00  0.00    +0.000 A 
ATOM     23  C   UNL     1       1.647   9.140  18.400  0.00  0.00    +0.000 A 
ATOM     24  C   UNL     1       1.262   9.157  19.738  0.00  0.00    +0.000 A 
ATOM     25  C   UNL     1       1.423   8.010  20.514  0.00  0.00    +0.000 A 
ATOM     26  F   UNL     1       1.048   8.050  21.802  0.00  0.00    +0.000 F 
ENDBRANCH  18  20
ENDBRANCH  15  16
ENDBRANCH  14  15
ENDBRANCH   4  14
TORSDOF 6
ENDMDL
MODEL 6
REMARK VINA RESULT:      -7.2      5.027      6.869
REMARK  Name = 
REMARK  7 active torsions:
REMARK  status: ('A' for Active; 'I' for Inactive)
REMARK    1  A    between atoms: C_1  and  O_2
REMARK    2  A    between atoms: O_2  and  C_3
REMARK    3  A    between atoms: C_8  and  C_9
REMARK    4  A    between atoms: C_12  and  S_13
REMARK    5  A    between atoms: S_13  and  C_14
REMARK    6  A    between atoms: C_14  and  C_15
REMARK    7  A    between atoms: N_17  and  C_18
REMARK                            x       y       z     vdW  Elec       q    Type
REMARK                         _______ _______ _______ _____ _____    ______ ____
ROOT
ATOM      1  C   UNL     1       4.603   4.528  18.834  0.00  0.00    +0.000 A 
ATOM      2  N   UNL     1       5.718   4.241  19.482  0.00  0.00    +0.000 NA
ATOM      3  N   UNL     1       6.680   5.107  19.025  0.00  0.00    +0.000 NA
ATOM      4  C   UNL     1       6.097   5.870  18.124  0.00  0.00    +0.000 A 
ATOM      5  O   UNL     1       4.772   5.569  17.957  0.00  0.00    +0.000 OA
ENDROOT
BRANCH   1  11
ATOM      6  C   UNL     1       2.276   4.212  19.832  0.00  0.00    +0.000 A 
ATOM      7  C   UNL     1       1.050   3.525  19.792  0.00  0.00    +0.000 A 
ATOM      8  C   UNL     1       0.850   2.465  18.908  0.00  0.00    +0.000 A 
ATOM      9  C   UNL     1       1.867   2.088  18.042  0.00  0.00    +0.000 A 
ATOM     10  C   UNL     1       3.073   2.788  18.047  0.00  0.00    +0.000 A 
ATOM     11  C   UNL     1       3.302   3.864  18.929  0.00  0.00    +0.000 A 
BRANCH   6  13
ATOM     12  C   UNL     1       2.000   6.520  20.298  0.00  0.00    +0.000 C 
ATOM     13  O   UNL     1       2.495   5.247  20.708  0.00  0.00    +0.000 OA
ENDBRANCH   6  13
ENDBRANCH   1  11
BRANCH   4  14
ATOM     14  S   UNL     1       6.950   7.046  17.179  0.00  0.00    +0.000 S 
BRANCH  14  15
ATOM     15  C   UNL     1       8.250   7.508  18.365  0.00  0.00    +0.000 C 
BRANCH  15  16
ATOM     16  C   UNL     1       8.380   9.020  18.455  0.00  0.00    +0.000 C 
ATOM     17  O   UNL     1       7.705   9.739  17.717  0.00  0.00    +0.000 OA
ATOM     18  N   UNL     1       9.308   9.465  19.384  0.00  0.00    +0.000 N 
ATOM     19  H   UNL     1       9.950   8.780  19.788  0.00  0.00    +0.000 HD
BRANCH  18  20
ATOM     20  C   UNL     1       9.633  10.814  19.656  0.00  0.00    +0.000 A 
ATOM     21  C   UNL     1       9.322  11.456  20.856  0.00  0.00    +0.000 A 
ATOM     22  C   UNL     1       9.639  12.804  21.046  0.00  0.00    +0.000 A 
ATOM     23  C   UNL     1      10.276  13.527  20.039  0.00  0.00    +0.000 A 
ATOM     24  C   UNL     1      10.617  12.895  18.846  0.00  0.00    +0.000 A 
ATOM     25  C   UNL     1      10.304  11.548  18.669  0.00  0.00    +0.000 A 
ATOM     26  F   UNL     1      10.638  10.960  17.510  0.00  0.00    +0.000 F 
ENDBRANCH  18  20
ENDBRANCH  15  16
ENDBRANCH  14  15
ENDBRANCH   4  14
TORSDOF 6
ENDMDL
MODEL 7
REMARK VINA RESULT:      -7.2      4.977      6.985
REMARK  Name = 
REMARK  7 active torsions:
REMARK  status: ('A' for Active; 'I' for Inactive)
REMARK    1  A    between atoms: C_1  and  O_2
REMARK    2  A    between atoms: O_2  and  C_3
REMARK    3  A    between atoms: C_8  and  C_9
REMARK    4  A    between atoms: C_12  and  S_13
REMARK    5  A    between atoms: S_13  and  C_14
REMARK    6  A    between atoms: C_14  and  C_15
REMARK    7  A    between atoms: N_17  and  C_18
REMARK                            x       y       z     vdW  Elec       q    Type
REMARK                         _______ _______ _______ _____ _____    ______ ____
ROOT
ATOM      1  C   UNL     1       4.565   4.445  18.866  0.00  0.00    +0.000 A 
ATOM      2  N   UNL     1       5.720   3.974  19.301  0.00  0.00    +0.000 NA
ATOM      3  N   UNL     1       6.698   4.807  18.817  0.00  0.00    +0.000 NA
ATOM      4  C   UNL     1       6.083   5.735  18.114  0.00  0.00    +0.000 A 
ATOM      5  O   UNL     1       4.723   5.578  18.110  0.00  0.00    +0.000 OA
ENDROOT
BRANCH   1  11
ATOM      6  C   UNL     1       2.248   4.426  19.937  0.00  0.00    +0.000 A 
ATOM      7  C   UNL     1       0.979   3.826  20.010  0.00  0.00    +0.000 A 
ATOM      8  C   UNL     1       0.686   2.676  19.278  0.00  0.00    +0.000 A 
ATOM      9  C   UNL     1       1.652   2.119  18.453  0.00  0.00    +0.000 A 
ATOM     10  C   UNL     1       2.902   2.728  18.344  0.00  0.00    +0.000 A 
ATOM     11  C   UNL     1       3.225   3.892  19.071  0.00  0.00    +0.000 A 
BRANCH   6  13
ATOM     12  C   UNL     1       1.507   6.501  20.813  0.00  0.00    +0.000 C 
ATOM     13  O   UNL     1       2.559   5.549  20.664  0.00  0.00    +0.000 OA
ENDBRANCH   6  13
ENDBRANCH   1  11
BRANCH   4  14
ATOM     14  S   UNL     1       6.921   6.950  17.205  0.00  0.00    +0.000 S 
BRANCH  14  15
ATOM     15  C   UNL     1       8.143   7.474  18.447  0.00  0.00    +0.000 C 
BRANCH  15  16
ATOM     16  C   UNL     1       8.370   8.975  18.375  0.00  0.00    +0.000 C 
ATOM     17  O   UNL     1       7.728   9.655  17.574  0.00  0.00    +0.000 OA
ATOM     18  N   UNL     1       9.342   9.454  19.240  0.00  0.00    +0.000 N 
ATOM     19  H   UNL     1       9.946   8.775  19.706  0.00  0.00    +0.000 HD
BRANCH  18  20
ATOM     20  C   UNL     1       9.757  10.800  19.364  0.00  0.00    +0.000 A 
ATOM     21  C   UNL     1      10.323  11.532  18.319  0.00  0.00    +0.000 A 
ATOM     22  C   UNL     1      10.746  12.850  18.519  0.00  0.00    +0.000 A 
ATOM     23  C   UNL     1      10.604  13.453  19.767  0.00  0.00    +0.000 A 
ATOM     24  C   UNL     1      10.017  12.745  20.813  0.00  0.00    +0.000 A 
ATOM     25  C   UNL     1       9.590  11.435  20.602  0.00  0.00    +0.000 A 
ATOM     26  F   UNL     1       9.030  10.771  21.624  0.00  0.00    +0.000 F 
ENDBRANCH  18  20
ENDBRANCH  15  16
ENDBRANCH  14  15
ENDBRANCH   4  14
TORSDOF 6
ENDMDL
MODEL 8
REMARK VINA RESULT:      -7.2      3.112      6.604
REMARK  Name = 
REMARK  7 active torsions:
REMARK  status: ('A' for Active; 'I' for Inactive)
REMARK    1  A    between atoms: C_1  and  O_2
REMARK    2  A    between atoms: O_2  and  C_3
REMARK    3  A    between atoms: C_8  and  C_9
REMARK    4  A    between atoms: C_12  and  S_13
REMARK    5  A    between atoms: S_13  and  C_14
REMARK    6  A    between atoms: C_14  and  C_15
REMARK    7  A    between atoms: N_17  and  C_18
REMARK                            x       y       z     vdW  Elec       q    Type
REMARK                         _______ _______ _______ _____ _____    ______ ____
ROOT
ATOM      1  C   UNL     1       4.774   4.308  19.137  0.00  0.00    +0.000 A 
ATOM      2  N   UNL     1       5.422   3.465  18.352  0.00  0.00    +0.000 NA
ATOM      3  N   UNL     1       6.636   4.038  18.067  0.00  0.00    +0.000 NA
ATOM      4  C   UNL     1       6.657   5.197  18.691  0.00  0.00    +0.000 A 
ATOM      5  O   UNL     1       5.512   5.433  19.403  0.00  0.00    +0.000 OA
ENDROOT
BRANCH   1  11
ATOM      6  C   UNL     1       2.569   5.259  20.002  0.00  0.00    +0.000 A 
ATOM      7  C   UNL     1       1.271   5.004  20.477  0.00  0.00    +0.000 A 
ATOM      8  C   UNL     1       0.829   3.699  20.690  0.00  0.00    +0.000 A 
ATOM      9  C   UNL     1       1.672   2.632  20.417  0.00  0.00    +0.000 A 
ATOM     10  C   UNL     1       2.948   2.872  19.909  0.00  0.00    +0.000 A 
ATOM     11  C   UNL     1       3.422   4.182  19.683  0.00  0.00    +0.000 A 
BRANCH   6  13
ATOM     12  C   UNL     1       2.031   7.559  19.802  0.00  0.00    +0.000 C 
ATOM     13  O   UNL     1       3.027   6.539  19.802  0.00  0.00    +0.000 OA
ENDBRANCH   6  13
ENDBRANCH   1  11
BRANCH   4  14
ATOM     14  S   UNL     1       7.951   6.339  18.531  0.00  0.00    +0.000 S 
BRANCH  14  15
ATOM     15  C   UNL     1       7.185   7.507  17.364  0.00  0.00    +0.000 C 
BRANCH  15  16
ATOM     16  C   UNL     1       6.508   6.761  16.227  0.00  0.00    +0.000 C 
ATOM     17  O   UNL     1       5.311   6.943  15.999  0.00  0.00    +0.000 OA
ATOM     18  N   UNL     1       7.334   5.886  15.538  0.00  0.00    +0.000 N 
ATOM     19  H   UNL     1       8.246   5.669  15.943  0.00  0.00    +0.000 HD
BRANCH  18  20
ATOM     20  C   UNL     1       6.955   5.063  14.452  0.00  0.00    +0.000 A 
ATOM     21  C   UNL     1       5.890   4.163  14.502  0.00  0.00    +0.000 A 
ATOM     22  C   UNL     1       5.591   3.351  13.404  0.00  0.00    +0.000 A 
ATOM     23  C   UNL     1       6.353   3.432  12.240  0.00  0.00    +0.000 A 
ATOM     24  C   UNL     1       7.403   4.344  12.165  0.00  0.00    +0.000 A 
ATOM     25  C   UNL     1       7.688   5.155  13.262  0.00  0.00    +0.000 A 
ATOM     26  F   UNL     1       8.706   6.024  13.169  0.00  0.00    +0.000 F 
ENDBRANCH  18  20
ENDBRANCH  15  16
ENDBRANCH  14  15
ENDBRANCH   4  14
TORSDOF 6
ENDMDL
MODEL 9
REMARK VINA RESULT:      -7.1      1.570      5.647
REMARK  Name = 
REMARK  7 active torsions:
REMARK  status: ('A' for Active; 'I' for Inactive)
REMARK    1  A    between atoms: C_1  and  O_2
REMARK    2  A    between atoms: O_2  and  C_3
REMARK    3  A    between atoms: C_8  and  C_9
REMARK    4  A    between atoms: C_12  and  S_13
REMARK    5  A    between atoms: S_13  and  C_14
REMARK    6  A    between atoms: C_14  and  C_15
REMARK    7  A    between atoms: N_17  and  C_18
REMARK                            x       y       z     vdW  Elec       q    Type
REMARK                         _______ _______ _______ _____ _____    ______ ____
ROOT
ATOM      1  C   UNL     1       2.006   6.012  20.069  0.00  0.00    +0.000 A 
ATOM      2  N   UNL     1       2.470   5.679  21.261  0.00  0.00    +0.000 NA
ATOM      3  N   UNL     1       2.307   4.322  21.387  0.00  0.00    +0.000 NA
ATOM      4  C   UNL     1       1.752   3.907  20.267  0.00  0.00    +0.000 A 
ATOM      5  O   UNL     1       1.541   4.924  19.376  0.00  0.00    +0.000 OA
ENDROOT
BRANCH   1  11
ATOM      6  C   UNL     1       1.269   8.455  20.056  0.00  0.00    +0.000 A 
ATOM      7  C   UNL     1       1.291   9.699  19.401  0.00  0.00    +0.000 A 
ATOM      8  C   UNL     1       1.897   9.841  18.153  0.00  0.00    +0.000 A 
ATOM      9  C   UNL     1       2.500   8.747  17.550  0.00  0.00    +0.000 A 
ATOM     10  C   UNL     1       2.518   7.518  18.209  0.00  0.00    +0.000 A 
ATOM     11  C   UNL     1       1.914   7.345  19.472  0.00  0.00    +0.000 A 
BRANCH   6  13
ATOM     12  C   UNL     1       1.155   9.124  22.328  0.00  0.00    +0.000 C 
ATOM     13  O   UNL     1       0.663   8.293  21.278  0.00  0.00    +0.000 OA
ENDBRANCH   6  13
ENDBRANCH   1  11
BRANCH   4  14
ATOM     14  S   UNL     1       1.243   2.270  20.008  0.00  0.00    +0.000 S 
BRANCH  14  15
ATOM     15  C   UNL     1       1.612   2.113  18.232  0.00  0.00    +0.000 C 
BRANCH  15  16
ATOM     16  C   UNL     1       3.101   2.283  17.977  0.00  0.00    +0.000 C 
ATOM     17  O   UNL     1       3.873   1.351  18.205  0.00  0.00    +0.000 OA
ATOM     18  N   UNL     1       3.467   3.538  17.516  0.00  0.00    +0.000 N 
ATOM     19  H   UNL     1       2.773   4.287  17.560  0.00  0.00    +0.000 HD
BRANCH  18  20
ATOM     20  C   UNL     1       4.781   3.964  17.216  0.00  0.00    +0.000 A 
ATOM     21  C   UNL     1       5.337   3.907  15.936  0.00  0.00    +0.000 A 
ATOM     22  C   UNL     1       6.657   4.311  15.714  0.00  0.00    +0.000 A 
ATOM     23  C   UNL     1       7.438   4.779  16.770  0.00  0.00    +0.000 A 
ATOM     24  C   UNL     1       6.890   4.866  18.047  0.00  0.00    +0.000 A 
ATOM     25  C   UNL     1       5.570   4.470  18.257  0.00  0.00    +0.000 A 
ATOM     26  F   UNL     1       5.064   4.559  19.496  0.00  0.00    +0.000 F 
ENDBRANCH  18  20
ENDBRANCH  15  16
ENDBRANCH  14  15
ENDBRANCH   4  14
TORSDOF 6
ENDMDL
