MODEL 1
REMARK VINA RESULT:      -8.7      0.000      0.000
REMARK  Name = 
REMARK  8 active torsions:
REMARK  status: ('A' for Active; 'I' for Inactive)
REMARK    1  A    between atoms: C_1  and  C_2
REMARK    2  A    between atoms: C_2  and  C_3
REMARK    3  A    between atoms: C_2  and  C_4
REMARK    4  A    between atoms: C_4  and  C_5
REMARK    5  A    between atoms: C_14  and  O_16
REMARK    6  A    between atoms: O_16  and  C_17
REMARK    7  A    between atoms: C_24  and  N_25
REMARK    8  A    between atoms: N_25  and  C_26
REMARK                            x       y       z     vdW  Elec       q    Type
REMARK                         _______ _______ _______ _____ _____    ______ ____
ROOT
ATOM      1  C   UNL     1       3.444   4.690  19.185  0.00  0.00    +0.000 C 
ATOM      2  C   UNL     1       3.068   4.342  20.661  0.00  0.00    +0.000 C 
ATOM      3  C   UNL     1       1.666   4.884  20.863  0.00  0.00    +0.000 C 
ATOM      4  C   UNL     1       1.653   6.212  20.104  0.00  0.00    +0.000 C 
ATOM      5  C   UNL     1       2.821   6.105  19.087  0.00  0.00    +0.000 C 
ENDROOT
BRANCH   1   6
ATOM      6  C   UNL     1       5.000   4.700  19.092  0.00  0.00    +0.000 C 
ATOM      7  O   UNL     1       5.644   3.861  19.739  0.00  0.00    +0.000 OA
ATOM      8  N   UNL     1       5.680   5.537  18.241  0.00  0.00    +0.000 N 
ATOM      9  C   UNL     1       5.276   6.726  17.468  0.00  0.00    +0.000 C 
ATOM     10  C   UNL     1       6.621   7.193  16.860  0.00  0.00    +0.000 C 
ATOM     11  C   UNL     1       7.295   5.836  16.600  0.00  0.00    +0.000 C 
ATOM     12  C   UNL     1       7.144   5.406  18.066  0.00  0.00    +0.000 C 
ATOM     13  C   UNL     1       7.861   6.587  18.782  0.00  0.00    +0.000 C 
ATOM     14  N   UNL     1       7.461   7.711  17.922  0.00  0.00    +0.000 N 
ATOM     15  C   UNL     1       8.014   8.964  17.896  0.00  0.00    +0.000 C 
ATOM     16  O   UNL     1       7.745   9.814  17.058  0.00  0.00    +0.000 OA
BRANCH  15  17
ATOM     17  O   UNL     1       8.917   9.125  18.907  0.00  0.00    +0.000 OA
BRANCH  17  18
ATOM     18  C   UNL     1       9.215  10.487  19.240  0.00  0.00    +0.000 C 
ATOM     19  C   UNL     1       9.348  10.691  20.744  0.00  0.00    +0.000 C 
ATOM     20  C   UNL     1      10.178  11.960  20.863  0.00  0.00    +0.000 C 
ATOM     21  C   UNL     1      11.060  12.000  19.615  0.00  0.00    +0.000 C 
ATOM     22  C   UNL     1      10.612  10.835  18.738  0.00  0.00    +0.000 C 
ENDBRANCH  17  18
ENDBRANCH  15  17
ENDBRANCH   1   6
BRANCH   1  24
ATOM     23  C   UNL     1       2.794   2.205  18.726  0.00  0.00    +0.000 C 
ATOM     24  C   UNL     1       2.795   3.649  18.191  0.00  0.00    +0.000 C 
ATOM     25  C   UNL     1       3.388   3.605  16.780  0.00  0.00    +0.000 C 
ENDBRANCH   1  24
BRANCH   4  26
ATOM     26  N   UNL     1       1.727   7.387  21.008  0.00  0.00    +0.000 NA
ATOM     27  H   UNL     1       1.825   7.069  21.972  0.00  0.00    +0.000 HD
BRANCH  26  28
ATOM     28  C   UNL     1       0.579   8.325  20.877  0.00  0.00    +0.000 C 
ATOM     29  C   UNL     1      -0.233   8.477  22.173  0.00  0.00    +0.000 C 
ATOM     30  C   UNL     1       0.168   9.672  23.009  0.00  0.00    +0.000 C 
ATOM     31  O   UNL     1       0.031  10.853  22.237  0.00  0.00    +0.000 OA
ATOM     32  C   UNL     1       0.999  10.898  21.189  0.00  0.00    +0.000 C 
ATOM     33  C   UNL     1       0.923   9.701  20.237  0.00  0.00    +0.000 C 
ATOM     34  F   UNL     1      -0.080   9.984  19.339  0.00  0.00    +0.000 F 
ENDBRANCH  26  28
ENDBRANCH   4  26
TORSDOF 6
ENDMDL
MODEL 2
REMARK VINA RESULT:      -7.3      3.612      8.279
REMARK  Name = 
REMARK  8 active torsions:
REMARK  status: ('A' for Active; 'I' for Inactive)
REMARK    1  A    between atoms: C_1  and  C_2
REMARK    2  A    between atoms: C_2  and  C_3
REMARK    3  A    between atoms: C_2  and  C_4
REMARK    4  A    between atoms: C_4  and  C_5
REMARK    5  A    between atoms: C_14  and  O_16
REMARK    6  A    between atoms: O_16  and  C_17
REMARK    7  A    between atoms: C_24  and  N_25
REMARK    8  A    between atoms: N_25  and  C_26
REMARK                            x       y       z     vdW  Elec       q    Type
REMARK                         _______ _______ _______ _____ _____    ______ ____
ROOT
ATOM      1  C   UNL     1       2.364   4.665  19.486  0.00  0.00    +0.000 C 
ATOM      2  C   UNL     1       1.797   4.645  18.031  0.00  0.00    +0.000 C 
ATOM      3  C   UNL     1       2.980   4.335  17.135  0.00  0.00    +0.000 C 
ATOM      4  C   UNL     1       4.145   5.110  17.754  0.00  0.00    +0.000 C 
ATOM      5  C   UNL     1       3.719   5.369  19.225  0.00  0.00    +0.000 C 
ENDROOT
BRANCH   1   6
ATOM      6  C   UNL     1       1.390   5.518  20.353  0.00  0.00    +0.000 C 
ATOM      7  O   UNL     1       0.549   4.939  21.056  0.00  0.00    +0.000 OA
ATOM      8  N   UNL     1       1.495   6.886  20.447  0.00  0.00    +0.000 N 
ATOM      9  C   UNL     1       2.240   7.890  19.666  0.00  0.00    +0.000 C 
ATOM     10  C   UNL     1       1.750   9.219  20.292  0.00  0.00    +0.000 C 
ATOM     11  C   UNL     1       1.600   8.796  21.761  0.00  0.00    +0.000 C 
ATOM     12  C   UNL     1       0.655   7.642  21.402  0.00  0.00    +0.000 C 
ATOM     13  C   UNL     1      -0.450   8.414  20.624  0.00  0.00    +0.000 C 
ATOM     14  N   UNL     1       0.362   9.424  19.929  0.00  0.00    +0.000 N 
ATOM     15  C   UNL     1      -0.092  10.561  19.311  0.00  0.00    +0.000 C 
ATOM     16  O   UNL     1       0.638  11.443  18.880  0.00  0.00    +0.000 OA
BRANCH  15  17
ATOM     17  O   UNL     1      -1.456  10.586  19.267  0.00  0.00    +0.000 OA
BRANCH  17  18
ATOM     18  C   UNL     1      -2.011  11.036  18.025  0.00  0.00    +0.000 C 
ATOM     19  C   UNL     1      -2.056   9.925  16.983  0.00  0.00    +0.000 C 
ATOM     20  C   UNL     1      -3.127  10.388  16.008  0.00  0.00    +0.000 C 
ATOM     21  C   UNL     1      -4.100  11.234  16.828  0.00  0.00    +0.000 C 
ATOM     22  C   UNL     1      -3.488  11.361  18.219  0.00  0.00    +0.000 C 
ENDBRANCH  17  18
ENDBRANCH  15  17
ENDBRANCH   1   6
BRANCH   1  24
ATOM     23  C   UNL     1       3.977   2.700  20.074  0.00  0.00    +0.000 C 
ATOM     24  C   UNL     1       2.518   3.193  20.038  0.00  0.00    +0.000 C 
ATOM     25  C   UNL     1       1.697   2.117  19.322  0.00  0.00    +0.000 C 
ENDBRANCH   1  24
BRANCH   4  26
ATOM     26  N   UNL     1       4.489   6.333  16.987  0.00  0.00    +0.000 NA
ATOM     27  H   UNL     1       3.763   6.517  16.295  0.00  0.00    +0.000 HD
BRANCH  26  28
ATOM     28  C   UNL     1       5.830   6.286  16.342  0.00  0.00    +0.000 C 
ATOM     29  C   UNL     1       6.991   6.424  17.339  0.00  0.00    +0.000 C 
ATOM     30  C   UNL     1       7.571   5.101  17.788  0.00  0.00    +0.000 C 
ATOM     31  O   UNL     1       8.020   4.376  16.656  0.00  0.00    +0.000 OA
ATOM     32  C   UNL     1       6.921   3.949  15.850  0.00  0.00    +0.000 C 
ATOM     33  C   UNL     1       6.044   5.101  15.355  0.00  0.00    +0.000 C 
ATOM     34  F   UNL     1       6.673   5.618  14.245  0.00  0.00    +0.000 F 
ENDBRANCH  26  28
ENDBRANCH   4  26
TORSDOF 6
ENDMDL
MODEL 3
REMARK VINA RESULT:      -7.2      1.029      1.444
REMARK  Name = 
REMARK  8 active torsions:
REMARK  status: ('A' for Active; 'I' for Inactive)
REMARK    1  A    between atoms: C_1  and  C_2
REMARK    2  A    between atoms: C_2  and  C_3
REMARK    3  A    between atoms: C_2  and  C_4
REMARK    4  A    between atoms: C_4  and  C_5
REMARK    5  A    between atoms: C_14  and  O_16
REMARK    6  A    between atoms: O_16  and  C_17
REMARK    7  A    between atoms: C_24  and  N_25
REMARK    8  A    between atoms: N_25  and  C_26
REMARK                            x       y       z     vdW  Elec       q    Type
REMARK                         _______ _______ _______ _____ _____    ______ ____
ROOT
ATOM      1  C   UNL     1       3.464   4.795  19.017  0.00  0.00    +0.000 C 
ATOM      2  C   UNL     1       2.994   4.361  20.442  0.00  0.00    +0.000 C 
ATOM      3  C   UNL     1       1.589   4.910  20.594  0.00  0.00    +0.000 C 
ATOM      4  C   UNL     1       1.637   6.283  19.921  0.00  0.00    +0.000 C 
ATOM      5  C   UNL     1       2.864   6.223  18.971  0.00  0.00    +0.000 C 
ENDROOT
BRANCH   1   6
ATOM      6  C   UNL     1       5.022   4.788  19.019  0.00  0.00    +0.000 C 
ATOM      7  O   UNL     1       5.617   3.954  19.717  0.00  0.00    +0.000 OA
ATOM      8  N   UNL     1       5.763   5.604  18.197  0.00  0.00    +0.000 N 
ATOM      9  C   UNL     1       5.419   6.784  17.382  0.00  0.00    +0.000 C 
ATOM     10  C   UNL     1       6.803   7.227  16.849  0.00  0.00    +0.000 C 
ATOM     11  C   UNL     1       7.477   5.859  16.653  0.00  0.00    +0.000 C 
ATOM     12  C   UNL     1       7.233   5.455  18.113  0.00  0.00    +0.000 C 
ATOM     13  C   UNL     1       7.918   6.641  18.853  0.00  0.00    +0.000 C 
ATOM     14  N   UNL     1       7.583   7.754  17.952  0.00  0.00    +0.000 N 
ATOM     15  C   UNL     1       8.151   9.001  17.940  0.00  0.00    +0.000 C 
ATOM     16  O   UNL     1       7.942   9.840  17.073  0.00  0.00    +0.000 OA
BRANCH  15  17
ATOM     17  O   UNL     1       8.993   9.170  19.001  0.00  0.00    +0.000 OA
BRANCH  17  18
ATOM     18  C   UNL     1       9.281  10.534  19.332  0.00  0.00    +0.000 C 
ATOM     19  C   UNL     1       9.315  10.761  20.839  0.00  0.00    +0.000 C 
ATOM     20  C   UNL     1      10.148  12.024  20.994  0.00  0.00    +0.000 C 
ATOM     21  C   UNL     1      11.112  12.037  19.808  0.00  0.00    +0.000 C 
ATOM     22  C   UNL     1      10.712  10.862  18.920  0.00  0.00    +0.000 C 
ENDBRANCH  17  18
ENDBRANCH  15  17
ENDBRANCH   1   6
BRANCH   1  24
ATOM     23  C   UNL     1       2.586   2.406  18.442  0.00  0.00    +0.000 C 
ATOM     24  C   UNL     1       2.865   3.828  17.921  0.00  0.00    +0.000 C 
ATOM     25  C   UNL     1       3.680   3.684  16.633  0.00  0.00    +0.000 C 
ENDBRANCH   1  24
BRANCH   4  26
ATOM     26  N   UNL     1       1.669   7.397  20.901  0.00  0.00    +0.000 NA
ATOM     27  H   UNL     1       0.862   7.330  21.521  0.00  0.00    +0.000 HD
BRANCH  26  28
ATOM     28  C   UNL     1       1.742   8.748  20.279  0.00  0.00    +0.000 C 
ATOM     29  C   UNL     1       1.781   8.710  18.744  0.00  0.00    +0.000 C 
ATOM     30  C   UNL     1       0.427   8.893  18.094  0.00  0.00    +0.000 C 
ATOM     31  O   UNL     1      -0.132  10.127  18.511  0.00  0.00    +0.000 OA
ATOM     32  C   UNL     1      -0.480  10.092  19.895  0.00  0.00    +0.000 C 
ATOM     33  C   UNL     1       0.702   9.776  20.814  0.00  0.00    +0.000 C 
ATOM     34  F   UNL     1       1.375  10.961  21.001  0.00  0.00    +0.000 F 
ENDBRANCH  26  28
ENDBRANCH   4  26
TORSDOF 6
ENDMDL
MODEL 4
REMARK VINA RESULT:      -7.2      7.546     12.491
REMARK  Name = 
REMARK  8 active torsions:
REMARK  status: ('A' for Active; 'I' for Inactive)
REMARK    1  A    between atoms: C_1  and  C_2
REMARK    2  A    between atoms: C_2  and  C_3
REMARK    3  A    between atoms: C_2  and  C_4
REMARK    4  A    between atoms: C_4  and  C_5
REMARK    5  A    between atoms: C_14  and  O_16
REMARK    6  A    between atoms: O_16  and  C_17
REMARK    7  A    between atoms: C_24  and  N_25
REMARK    8  A    between atoms: N_25  and  C_26
REMARK                            x       y       z     vdW  Elec       q    Type
REMARK                         _______ _______ _______ _____ _____    ______ ____
ROOT
ATOM      1  C   UNL     1      -3.700  14.564  23.162  0.00  0.00    +0.000 C 
ATOM      2  C   UNL     1      -2.785  13.968  24.280  0.00  0.00    +0.000 C 
ATOM      3  C   UNL     1      -1.594  14.901  24.373  0.00  0.00    +0.000 C 
ATOM      4  C   UNL     1      -1.294  15.291  22.924  0.00  0.00    +0.000 C 
ATOM      5  C   UNL     1      -2.614  15.015  22.153  0.00  0.00    +0.000 C 
ENDROOT
BRANCH   1   6
ATOM      6  C   UNL     1      -4.590  13.405  22.623  0.00  0.00    +0.000 C 
ATOM      7  O   UNL     1      -4.647  12.344  23.263  0.00  0.00    +0.000 OA
ATOM      8  N   UNL     1      -5.396  13.549  21.519  0.00  0.00    +0.000 N 
ATOM      9  C   UNL     1      -5.470  14.570  20.457  0.00  0.00    +0.000 C 
ATOM     10  C   UNL     1      -6.534  13.973  19.504  0.00  0.00    +0.000 C 
ATOM     11  C   UNL     1      -7.479  13.313  20.521  0.00  0.00    +0.000 C 
ATOM     12  C   UNL     1      -6.345  12.480  21.134  0.00  0.00    +0.000 C 
ATOM     13  C   UNL     1      -5.815  11.749  19.866  0.00  0.00    +0.000 C 
ATOM     14  N   UNL     1      -5.979  12.803  18.854  0.00  0.00    +0.000 N 
ATOM     15  C   UNL     1      -5.939  12.650  17.493  0.00  0.00    +0.000 C 
ATOM     16  O   UNL     1      -6.230  13.531  16.696  0.00  0.00    +0.000 OA
BRANCH  15  17
ATOM     17  O   UNL     1      -5.558  11.385  17.151  0.00  0.00    +0.000 OA
BRANCH  17  18
ATOM     18  C   UNL     1      -4.174  11.243  16.807  0.00  0.00    +0.000 C 
ATOM     19  C   UNL     1      -3.490  10.155  17.628  0.00  0.00    +0.000 C 
ATOM     20  C   UNL     1      -2.283   9.774  16.786  0.00  0.00    +0.000 C 
ATOM     21  C   UNL     1      -2.686  10.036  15.335  0.00  0.00    +0.000 C 
ATOM     22  C   UNL     1      -4.058  10.701  15.387  0.00  0.00    +0.000 C 
ENDBRANCH  17  18
ENDBRANCH  15  17
ENDBRANCH   1   6
BRANCH   1  24
ATOM     23  C   UNL     1      -6.028  15.385  24.009  0.00  0.00    +0.000 C 
ATOM     24  C   UNL     1      -4.560  15.760  23.733  0.00  0.00    +0.000 C 
ATOM     25  C   UNL     1      -4.573  17.040  22.894  0.00  0.00    +0.000 C 
ENDBRANCH   1  24
BRANCH   4  26
ATOM     26  N   UNL     1      -0.104  14.592  22.380  0.00  0.00    +0.000 NA
ATOM     27  H   UNL     1       0.604  15.278  22.119  0.00  0.00    +0.000 HD
BRANCH  26  28
ATOM     28  C   UNL     1      -0.403  13.684  21.238  0.00  0.00    +0.000 C 
ATOM     29  C   UNL     1       0.551  13.868  20.048  0.00  0.00    +0.000 C 
ATOM     30  C   UNL     1       1.707  12.894  20.036  0.00  0.00    +0.000 C 
ATOM     31  O   UNL     1       1.206  11.568  20.025  0.00  0.00    +0.000 OA
ATOM     32  C   UNL     1       0.572  11.247  21.264  0.00  0.00    +0.000 C 
ATOM     33  C   UNL     1      -0.583  12.186  21.619  0.00  0.00    +0.000 C 
ATOM     34  F   UNL     1      -1.680  11.729  20.926  0.00  0.00    +0.000 F 
ENDBRANCH  26  28
ENDBRANCH   4  26
TORSDOF 6
ENDMDL
MODEL 5
REMARK VINA RESULT:      -7.0      5.054      8.987
REMARK  Name = 
REMARK  8 active torsions:
REMARK  status: ('A' for Active; 'I' for Inactive)
REMARK    1  A    between atoms: C_1  and  C_2
REMARK    2  A    between atoms: C_2  and  C_3
REMARK    3  A    between atoms: C_2  and  C_4
REMARK    4  A    between atoms: C_4  and  C_5
REMARK    5  A    between atoms: C_14  and  O_16
REMARK    6  A    between atoms: O_16  and  C_17
REMARK    7  A    between atoms: C_24  and  N_25
REMARK    8  A    between atoms: N_25  and  C_26
REMARK                            x       y       z     vdW  Elec       q    Type
REMARK                         _______ _______ _______ _____ _____    ______ ____
ROOT
ATOM      1  C   UNL     1       0.890  10.922  19.145  0.00  0.00    +0.000 C 
ATOM      2  C   UNL     1       1.987  10.557  18.094  0.00  0.00    +0.000 C 
ATOM      3  C   UNL     1       1.707   9.123  17.691  0.00  0.00    +0.000 C 
ATOM      4  C   UNL     1       1.283   8.434  18.989  0.00  0.00    +0.000 C 
ATOM      5  C   UNL     1       0.827   9.586  19.926  0.00  0.00    +0.000 C 
ENDROOT
BRANCH   1   6
ATOM      6  C   UNL     1       1.439  12.103  20.000  0.00  0.00    +0.000 C 
ATOM      7  O   UNL     1       1.289  12.074  21.230  0.00  0.00    +0.000 OA
ATOM      8  N   UNL     1       2.174  13.128  19.453  0.00  0.00    +0.000 N 
ATOM      9  C   UNL     1       2.410  13.562  18.063  0.00  0.00    +0.000 C 
ATOM     10  C   UNL     1       3.230  14.860  18.262  0.00  0.00    +0.000 C 
ATOM     11  C   UNL     1       4.062  14.476  19.496  0.00  0.00    +0.000 C 
ATOM     12  C   UNL     1       2.811  14.144  20.320  0.00  0.00    +0.000 C 
ATOM     13  C   UNL     1       2.032  15.487  20.204  0.00  0.00    +0.000 C 
ATOM     14  N   UNL     1       2.367  15.879  18.827  0.00  0.00    +0.000 N 
ATOM     15  C   UNL     1       2.193  17.113  18.257  0.00  0.00    +0.000 C 
ATOM     16  O   UNL     1       2.627  17.426  17.157  0.00  0.00    +0.000 OA
BRANCH  15  17
ATOM     17  O   UNL     1       1.499  17.945  19.088  0.00  0.00    +0.000 OA
BRANCH  17  18
ATOM     18  C   UNL     1       0.082  17.731  19.110  0.00  0.00    +0.000 C 
ATOM     19  C   UNL     1      -0.598  18.530  20.215  0.00  0.00    +0.000 C 
ATOM     20  C   UNL     1      -2.042  18.631  19.749  0.00  0.00    +0.000 C 
ATOM     21  C   UNL     1      -1.992  18.595  18.222  0.00  0.00    +0.000 C 
ATOM     22  C   UNL     1      -0.538  18.325  17.849  0.00  0.00    +0.000 C 
ENDBRANCH  17  18
ENDBRANCH  15  17
ENDBRANCH   1   6
BRANCH   1  24
ATOM     23  C   UNL     1      -1.060  12.635  18.876  0.00  0.00    +0.000 C 
ATOM     24  C   UNL     1      -0.465  11.290  18.421  0.00  0.00    +0.000 C 
ATOM     25  C   UNL     1      -1.582  10.248  18.516  0.00  0.00    +0.000 C 
ENDBRANCH   1  24
BRANCH   4  26
ATOM     26  N   UNL     1       2.350   7.568  19.551  0.00  0.00    +0.000 NA
ATOM     27  H   UNL     1       3.213   8.104  19.638  0.00  0.00    +0.000 HD
BRANCH  26  28
ATOM     28  C   UNL     1       2.583   6.316  18.779  0.00  0.00    +0.000 C 
ATOM     29  C   UNL     1       4.037   6.154  18.308  0.00  0.00    +0.000 C 
ATOM     30  C   UNL     1       4.885   5.304  19.228  0.00  0.00    +0.000 C 
ATOM     31  O   UNL     1       4.297   4.021  19.360  0.00  0.00    +0.000 OA
ATOM     32  C   UNL     1       3.068   4.091  20.085  0.00  0.00    +0.000 C 
ATOM     33  C   UNL     1       2.035   5.021  19.445  0.00  0.00    +0.000 C 
ATOM     34  F   UNL     1       1.421   4.293  18.453  0.00  0.00    +0.000 F 
ENDBRANCH  26  28
ENDBRANCH   4  26
TORSDOF 6
ENDMDL
MODEL 6
REMARK VINA RESULT:      -7.0      4.216      9.011
REMARK  Name = 
REMARK  8 active torsions:
REMARK  status: ('A' for Active; 'I' for Inactive)
REMARK    1  A    between atoms: C_1  and  C_2
REMARK    2  A    between atoms: C_2  and  C_3
REMARK    3  A    between atoms: C_2  and  C_4
REMARK    4  A    between atoms: C_4  and  C_5
REMARK    5  A    between atoms: C_14  and  O_16
REMARK    6  A    between atoms: O_16  and  C_17
REMARK    7  A    between atoms: C_24  and  N_25
REMARK    8  A    between atoms: N_25  and  C_26
REMARK                            x       y       z     vdW  Elec       q    Type
REMARK                         _______ _______ _______ _____ _____    ______ ____
ROOT
ATOM      1  C   UNL     1       1.464  13.720  20.490  0.00  0.00    +0.000 C 
ATOM      2  C   UNL     1       0.965  14.631  21.656  0.00  0.00    +0.000 C 
ATOM      3  C   UNL     1       2.053  15.667  21.859  0.00  0.00    +0.000 C 
ATOM      4  C   UNL     1       3.360  14.896  21.669  0.00  0.00    +0.000 C 
ATOM      5  C   UNL     1       2.967  13.633  20.855  0.00  0.00    +0.000 C 
ENDROOT
BRANCH   1   6
ATOM      6  C   UNL     1       0.724  12.354  20.619  0.00  0.00    +0.000 C 
ATOM      7  O   UNL     1      -0.071  12.189  21.555  0.00  0.00    +0.000 OA
ATOM      8  N   UNL     1       0.844  11.362  19.675  0.00  0.00    +0.000 N 
ATOM      9  C   UNL     1       1.781  11.149  18.557  0.00  0.00    +0.000 C 
ATOM     10  C   UNL     1       1.360   9.751  18.040  0.00  0.00    +0.000 C 
ATOM     11  C   UNL     1      -0.160   9.819  18.261  0.00  0.00    +0.000 C 
ATOM     12  C   UNL     1       0.004  10.146  19.751  0.00  0.00    +0.000 C 
ATOM     13  C   UNL     1       0.876   8.940  20.210  0.00  0.00    +0.000 C 
ATOM     14  N   UNL     1       1.730   8.756  19.027  0.00  0.00    +0.000 N 
ATOM     15  C   UNL     1       2.508   7.666  18.737  0.00  0.00    +0.000 C 
ATOM     16  O   UNL     1       3.081   7.499  17.668  0.00  0.00    +0.000 OA
BRANCH  15  17
ATOM     17  O   UNL     1       2.536   6.788  19.782  0.00  0.00    +0.000 OA
BRANCH  17  18
ATOM     18  C   UNL     1       2.169   5.443  19.450  0.00  0.00    +0.000 C 
ATOM     19  C   UNL     1       3.342   4.480  19.590  0.00  0.00    +0.000 C 
ATOM     20  C   UNL     1       2.676   3.124  19.757  0.00  0.00    +0.000 C 
ATOM     21  C   UNL     1       1.329   3.399  20.426  0.00  0.00    +0.000 C 
ATOM     22  C   UNL     1       1.189   4.916  20.492  0.00  0.00    +0.000 C 
ENDBRANCH  17  18
ENDBRANCH  15  17
ENDBRANCH   1   6
BRANCH   1  24
ATOM     23  C   UNL     1       2.468  14.973  18.433  0.00  0.00    +0.000 C 
ATOM     24  C   UNL     1       1.196  14.413  19.096  0.00  0.00    +0.000 C 
ATOM     25  C   UNL     1       0.156  15.536  19.092  0.00  0.00    +0.000 C 
ENDBRANCH   1  24
BRANCH   4  26
ATOM     26  N   UNL     1       4.049  14.613  22.953  0.00  0.00    +0.000 NA
ATOM     27  H   UNL     1       3.927  15.403  23.586  0.00  0.00    +0.000 HD
BRANCH  26  28
ATOM     28  C   UNL     1       5.491  14.273  22.805  0.00  0.00    +0.000 C 
ATOM     29  C   UNL     1       6.427  15.454  23.103  0.00  0.00    +0.000 C 
ATOM     30  C   UNL     1       6.958  15.471  24.519  0.00  0.00    +0.000 C 
ATOM     31  O   UNL     1       7.647  14.259  24.778  0.00  0.00    +0.000 OA
ATOM     32  C   UNL     1       6.744  13.154  24.822  0.00  0.00    +0.000 C 
ATOM     33  C   UNL     1       5.938  12.973  23.534  0.00  0.00    +0.000 C 
ATOM     34  F   UNL     1       6.752  12.288  22.661  0.00  0.00    +0.000 F 
ENDBRANCH  26  28
ENDBRANCH   4  26
TORSDOF 6
ENDMDL
MODEL 7
REMARK VINA RESULT:      -7.0      5.049      8.807
REMARK  Name = 
REMARK  8 active torsions:
REMARK  status: ('A' for Active; 'I' for Inactive)
REMARK    1  A    between atoms: C_1  and  C_2
REMARK    2  A    between atoms: C_2  and  C_3
REMARK    3  A    between atoms: C_2  and  C_4
REMARK    4  A    between atoms: C_4  and  C_5
REMARK    5  A    between atoms: C_14  and  O_16
REMARK    6  A    between atoms: O_16  and  C_17
REMARK    7  A    between atoms: C_24  and  N_25
REMARK    8  A    between atoms: N_25  and  C_26
REMARK                            x       y       z     vdW  Elec       q    Type
REMARK                         _______ _______ _______ _____ _____    ______ ____
ROOT
ATOM      1  C   UNL     1       0.914  10.956  19.233  0.00  0.00    +0.000 C 
ATOM      2  C   UNL     1       1.978  10.678  18.123  0.00  0.00    +0.000 C 
ATOM      3  C   UNL     1       1.696   9.274  17.628  0.00  0.00    +0.000 C 
ATOM      4  C   UNL     1       1.322   8.489  18.887  0.00  0.00    +0.000 C 
ATOM      5  C   UNL     1       0.888   9.566  19.918  0.00  0.00    +0.000 C 
ENDROOT
BRANCH   1   6
ATOM      6  C   UNL     1       1.482  12.079  20.151  0.00  0.00    +0.000 C 
ATOM      7  O   UNL     1       1.229  12.046  21.364  0.00  0.00    +0.000 OA
ATOM      8  N   UNL     1       2.337  13.049  19.685  0.00  0.00    +0.000 N 
ATOM      9  C   UNL     1       2.719  13.480  18.327  0.00  0.00    +0.000 C 
ATOM     10  C   UNL     1       3.620  14.705  18.616  0.00  0.00    +0.000 C 
ATOM     11  C   UNL     1       4.315  14.242  19.905  0.00  0.00    +0.000 C 
ATOM     12  C   UNL     1       2.978  14.000  20.619  0.00  0.00    +0.000 C 
ATOM     13  C   UNL     1       2.320  15.402  20.466  0.00  0.00    +0.000 C 
ATOM     14  N   UNL     1       2.796  15.783  19.128  0.00  0.00    +0.000 N 
ATOM     15  C   UNL     1       2.766  17.034  18.570  0.00  0.00    +0.000 C 
ATOM     16  O   UNL     1       3.311  17.326  17.514  0.00  0.00    +0.000 OA
BRANCH  15  17
ATOM     17  O   UNL     1       2.074  17.908  19.357  0.00  0.00    +0.000 OA
BRANCH  17  18
ATOM     18  C   UNL     1       0.956  18.540  18.719  0.00  0.00    +0.000 C 
ATOM     19  C   UNL     1       1.035  18.442  17.200  0.00  0.00    +0.000 C 
ATOM     20  C   UNL     1      -0.406  18.630  16.752  0.00  0.00    +0.000 C 
ATOM     21  C   UNL     1      -1.271  18.099  17.895  0.00  0.00    +0.000 C 
ATOM     22  C   UNL     1      -0.314  17.756  19.031  0.00  0.00    +0.000 C 
ENDBRANCH  17  18
ENDBRANCH  15  17
ENDBRANCH   1   6
BRANCH   1  24
ATOM     23  C   UNL     1      -0.947  12.768  18.981  0.00  0.00    +0.000 C 
ATOM     24  C   UNL     1      -0.467  11.360  18.582  0.00  0.00    +0.000 C 
ATOM     25  C   UNL     1      -1.634  10.401  18.831  0.00  0.00    +0.000 C 
ENDBRANCH   1  24
BRANCH   4  26
ATOM     26  N   UNL     1       2.414   7.597  19.349  0.00  0.00    +0.000 NA
ATOM     27  H   UNL     1       3.250   8.150  19.535  0.00  0.00    +0.000 HD
BRANCH  26  28
ATOM     28  C   UNL     1       2.720   6.479  18.414  0.00  0.00    +0.000 C 
ATOM     29  C   UNL     1       4.224   6.295  18.157  0.00  0.00    +0.000 C 
ATOM     30  C   UNL     1       4.870   5.246  19.034  0.00  0.00    +0.000 C 
ATOM     31  O   UNL     1       4.214   4.004  18.843  0.00  0.00    +0.000 OA
ATOM     32  C   UNL     1       2.886   4.038  19.366  0.00  0.00    +0.000 C 
ATOM     33  C   UNL     1       2.014   5.132  18.746  0.00  0.00    +0.000 C 
ATOM     34  F   UNL     1       1.545   4.627  17.556  0.00  0.00    +0.000 F 
ENDBRANCH  26  28
ENDBRANCH   4  26
TORSDOF 6
ENDMDL
MODEL 8
REMARK VINA RESULT:      -6.9      7.749     12.346
REMARK  Name = 
REMARK  8 active torsions:
REMARK  status: ('A' for Active; 'I' for Inactive)
REMARK    1  A    between atoms: C_1  and  C_2
REMARK    2  A    between atoms: C_2  and  C_3
REMARK    3  A    between atoms: C_2  and  C_4
REMARK    4  A    between atoms: C_4  and  C_5
REMARK    5  A    between atoms: C_14  and  O_16
REMARK    6  A    between atoms: O_16  and  C_17
REMARK    7  A    between atoms: C_24  and  N_25
REMARK    8  A    between atoms: N_25  and  C_26
REMARK                            x       y       z     vdW  Elec       q    Type
REMARK                         _______ _______ _______ _____ _____    ______ ____
ROOT
ATOM      1  C   UNL     1       0.004  13.521  21.113  0.00  0.00    +0.000 C 
ATOM      2  C   UNL     1       0.650  12.255  20.464  0.00  0.00    +0.000 C 
ATOM      3  C   UNL     1       1.015  12.663  19.050  0.00  0.00    +0.000 C 
ATOM      4  C   UNL     1      -0.142  13.553  18.594  0.00  0.00    +0.000 C 
ATOM      5  C   UNL     1      -0.815  14.041  19.906  0.00  0.00    +0.000 C 
ENDROOT
BRANCH   1   6
ATOM      6  C   UNL     1      -0.890  13.033  22.292  0.00  0.00    +0.000 C 
ATOM      7  O   UNL     1      -0.584  11.989  22.885  0.00  0.00    +0.000 OA
ATOM      8  N   UNL     1      -1.948  13.771  22.767  0.00  0.00    +0.000 N 
ATOM      9  C   UNL     1      -2.677  14.937  22.234  0.00  0.00    +0.000 C 
ATOM     10  C   UNL     1      -3.815  15.111  23.269  0.00  0.00    +0.000 C 
ATOM     11  C   UNL     1      -3.081  14.715  24.560  0.00  0.00    +0.000 C 
ATOM     12  C   UNL     1      -2.672  13.351  23.988  0.00  0.00    +0.000 C 
ATOM     13  C   UNL     1      -4.066  12.781  23.594  0.00  0.00    +0.000 C 
ATOM     14  N   UNL     1      -4.742  14.005  23.137  0.00  0.00    +0.000 N 
ATOM     15  C   UNL     1      -6.086  14.173  22.930  0.00  0.00    +0.000 C 
ATOM     16  O   UNL     1      -6.613  15.253  22.695  0.00  0.00    +0.000 OA
BRANCH  15  17
ATOM     17  O   UNL     1      -6.755  12.989  23.046  0.00  0.00    +0.000 OA
BRANCH  17  18
ATOM     18  C   UNL     1      -7.382  12.530  21.843  0.00  0.00    +0.000 C 
ATOM     19  C   UNL     1      -6.392  12.415  20.690  0.00  0.00    +0.000 C 
ATOM     20  C   UNL     1      -7.059  11.434  19.739  0.00  0.00    +0.000 C 
ATOM     21  C   UNL     1      -7.913  10.518  20.615  0.00  0.00    +0.000 C 
ATOM     22  C   UNL     1      -7.835  11.085  22.028  0.00  0.00    +0.000 C 
ENDBRANCH  17  18
ENDBRANCH  15  17
ENDBRANCH   1   6
BRANCH   1  24
ATOM     23  C   UNL     1       0.922  15.963  21.073  0.00  0.00    +0.000 C 
ATOM     24  C   UNL     1       1.124  14.527  21.591  0.00  0.00    +0.000 C 
ATOM     25  C   UNL     1       2.566  14.131  21.268  0.00  0.00    +0.000 C 
ENDBRANCH   1  24
BRANCH   4  26
ATOM     26  N   UNL     1      -1.056  12.861  17.651  0.00  0.00    +0.000 NA
ATOM     27  H   UNL     1      -1.746  13.524  17.297  0.00  0.00    +0.000 HD
BRANCH  26  28
ATOM     28  C   UNL     1      -1.726  11.663  18.227  0.00  0.00    +0.000 C 
ATOM     29  C   UNL     1      -3.228  11.867  18.478  0.00  0.00    +0.000 C 
ATOM     30  C   UNL     1      -4.109  11.361  17.357  0.00  0.00    +0.000 C 
ATOM     31  O   UNL     1      -3.860   9.981  17.148  0.00  0.00    +0.000 OA
ATOM     32  C   UNL     1      -2.556   9.771  16.606  0.00  0.00    +0.000 C 
ATOM     33  C   UNL     1      -1.433  10.326  17.486  0.00  0.00    +0.000 C 
ATOM     34  F   UNL     1      -1.195   9.378  18.455  0.00  0.00    +0.000 F 
ENDBRANCH  26  28
ENDBRANCH   4  26
TORSDOF 6
ENDMDL
MODEL 9
REMARK VINA RESULT:      -6.9      3.184      8.080
REMARK  Name = 
REMARK  8 active torsions:
REMARK  status: ('A' for Active; 'I' for Inactive)
REMARK    1  A    between atoms: C_1  and  C_2
REMARK    2  A    between atoms: C_2  and  C_3
REMARK    3  A    between atoms: C_2  and  C_4
REMARK    4  A    between atoms: C_4  and  C_5
REMARK    5  A    between atoms: C_14  and  O_16
REMARK    6  A    between atoms: O_16  and  C_17
REMARK    7  A    between atoms: C_24  and  N_25
REMARK    8  A    between atoms: N_25  and  C_26
REMARK                            x       y       z     vdW  Elec       q    Type
REMARK                         _______ _______ _______ _____ _____    ______ ____
ROOT
ATOM      1  C   UNL     1       2.332   4.473  19.435  0.00  0.00    +0.000 C 
ATOM      2  C   UNL     1       1.897   4.672  17.948  0.00  0.00    +0.000 C 
ATOM      3  C   UNL     1       3.089   4.247  17.113  0.00  0.00    +0.000 C 
ATOM      4  C   UNL     1       4.305   4.760  17.886  0.00  0.00    +0.000 C 
ATOM      5  C   UNL     1       3.800   4.960  19.341  0.00  0.00    +0.000 C 
ENDROOT
BRANCH   1   6
ATOM      6  C   UNL     1       1.436   5.400  20.310  0.00  0.00    +0.000 C 
ATOM      7  O   UNL     1       0.619   4.884  21.087  0.00  0.00    +0.000 OA
ATOM      8  N   UNL     1       1.587   6.766  20.328  0.00  0.00    +0.000 N 
ATOM      9  C   UNL     1       2.317   7.706  19.456  0.00  0.00    +0.000 C 
ATOM     10  C   UNL     1       1.903   9.079  20.040  0.00  0.00    +0.000 C 
ATOM     11  C   UNL     1       1.825   8.734  21.535  0.00  0.00    +0.000 C 
ATOM     12  C   UNL     1       0.826   7.595  21.288  0.00  0.00    +0.000 C 
ATOM     13  C   UNL     1      -0.297   8.365  20.534  0.00  0.00    +0.000 C 
ATOM     14  N   UNL     1       0.503   9.312  19.745  0.00  0.00    +0.000 N 
ATOM     15  C   UNL     1       0.050  10.431  19.096  0.00  0.00    +0.000 C 
ATOM     16  O   UNL     1       0.781  11.266  18.580  0.00  0.00    +0.000 OA
BRANCH  15  17
ATOM     17  O   UNL     1      -1.313  10.499  19.126  0.00  0.00    +0.000 OA
BRANCH  17  18
ATOM     18  C   UNL     1      -1.920  10.982  17.921  0.00  0.00    +0.000 C 
ATOM     19  C   UNL     1      -2.052   9.886  16.870  0.00  0.00    +0.000 C 
ATOM     20  C   UNL     1      -3.160  10.393  15.959  0.00  0.00    +0.000 C 
ATOM     21  C   UNL     1      -4.063  11.255  16.841  0.00  0.00    +0.000 C 
ATOM     22  C   UNL     1      -3.375  11.345  18.198  0.00  0.00    +0.000 C 
ENDBRANCH  17  18
ENDBRANCH  15  17
ENDBRANCH   1   6
BRANCH   1  24
ATOM     23  C   UNL     1       0.900   2.293  19.356  0.00  0.00    +0.000 C 
ATOM     24  C   UNL     1       2.201   2.954  19.848  0.00  0.00    +0.000 C 
ATOM     25  C   UNL     1       2.322   2.652  21.344  0.00  0.00    +0.000 C 
ENDBRANCH   1  24
BRANCH   4  26
ATOM     26  N   UNL     1       4.905   5.969  17.270  0.00  0.00    +0.000 NA
ATOM     27  H   UNL     1       4.451   6.157  16.376  0.00  0.00    +0.000 HD
BRANCH  26  28
ATOM     28  C   UNL     1       6.382   5.895  17.104  0.00  0.00    +0.000 C 
ATOM     29  C   UNL     1       7.032   7.258  16.816  0.00  0.00    +0.000 C 
ATOM     30  C   UNL     1       7.578   7.947  18.047  0.00  0.00    +0.000 C 
ATOM     31  O   UNL     1       8.530   7.104  18.674  0.00  0.00    +0.000 OA
ATOM     32  C   UNL     1       7.904   5.954  19.242  0.00  0.00    +0.000 C 
ATOM     33  C   UNL     1       7.131   5.114  18.223  0.00  0.00    +0.000 C 
ATOM     34  F   UNL     1       8.059   4.315  17.596  0.00  0.00    +0.000 F 
ENDBRANCH  26  28
ENDBRANCH   4  26
TORSDOF 6
ENDMDL
