MODEL 1
REMARK VINA RESULT:      -9.3      0.000      0.000
REMARK  Name = 
REMARK  12 active torsions:
REMARK  status: ('A' for Active; 'I' for Inactive)
REMARK    1  A    between atoms: C_1  and  C_2
REMARK    2  A    between atoms: C_2  and  O_3
REMARK    3  A    between atoms: O_3  and  C_4
REMARK    4  A    between atoms: C_4  and  C_6
REMARK    5  A    between atoms: C_8  and  C_9
REMARK    6  A    between atoms: N_15  and  C_16
REMARK    7  A    between atoms: C_16  and  C_17
REMARK    8  A    between atoms: C_17  and  C_18
REMARK    9  A    between atoms: N_20  and  C_21
REMARK   10  A    between atoms: C_26  and  N_27
REMARK   11  A    between atoms: N_30  and  C_31
REMARK   12  A    between atoms: C_34  and  C_35
REMARK                            x       y       z     vdW  Elec       q    Type
REMARK                         _______ _______ _______ _____ _____    ______ ____
ROOT
ATOM      1  C   UNL     1       2.455   6.408  17.799  0.00  0.00    +0.000 C 
ENDROOT
BRANCH   1   5
ATOM      2  C   UNL     1       5.396   4.447  16.751  0.00  0.00    +0.000 A 
ATOM      3  C   UNL     1       4.774   3.609  17.709  0.00  0.00    +0.000 A 
ATOM      4  C   UNL     1       3.667   4.251  18.248  0.00  0.00    +0.000 A 
ATOM      5  N   UNL     1       3.567   5.484  17.572  0.00  0.00    +0.000 N 
ATOM      6  C   UNL     1       4.644   5.618  16.699  0.00  0.00    +0.000 A 
ATOM      7  C   UNL     1       4.983   6.757  15.782  0.00  0.00    +0.000 C 
BRANCH   4   8
ATOM      8  C   UNL     1       2.807   3.732  19.351  0.00  0.00    +0.000 A 
ATOM      9  C   UNL     1       3.416   3.132  20.470  0.00  0.00    +0.000 A 
ATOM     10  C   UNL     1       2.663   2.631  21.541  0.00  0.00    +0.000 A 
ATOM     11  C   UNL     1       1.276   2.734  21.528  0.00  0.00    +0.000 A 
ATOM     12  C   UNL     1       0.649   3.305  20.428  0.00  0.00    +0.000 A 
ATOM     13  C   UNL     1       1.405   3.769  19.342  0.00  0.00    +0.000 A 
ENDBRANCH   4   8
BRANCH   2  14
ATOM     14  C   UNL     1       6.558   4.163  15.905  0.00  0.00    +0.000 C 
ATOM     15  O   UNL     1       7.720   4.425  16.222  0.00  0.00    +0.000 OA
BRANCH  14  16
ATOM     16  O   UNL     1       6.205   3.663  14.686  0.00  0.00    +0.000 OA
BRANCH  16  18
ATOM     17  C   UNL     1       6.533   3.593  12.323  0.00  0.00    +0.000 C 
ATOM     18  C   UNL     1       6.725   4.419  13.583  0.00  0.00    +0.000 C 
ENDBRANCH  16  18
ENDBRANCH  14  16
ENDBRANCH   2  14
ENDBRANCH   1   5
BRANCH   1  19
ATOM     19  C   UNL     1       2.730   7.755  18.433  0.00  0.00    +0.000 C 
BRANCH  19  20
ATOM     20  C   UNL     1       1.952   7.979  19.700  0.00  0.00    +0.000 C 
ATOM     21  O   UNL     1       1.923   7.170  20.613  0.00  0.00    +0.000 OA
ATOM     22  N   UNL     1       1.293   9.203  19.654  0.00  0.00    +0.000 N 
ATOM     23  H   UNL     1       1.670   9.907  19.037  0.00  0.00    +0.000 HD
BRANCH  22  24
ATOM     24  C   UNL     1       0.647   9.722  20.788  0.00  0.00    +0.000 A 
ATOM     25  C   UNL     1       0.031   8.790  21.646  0.00  0.00    +0.000 A 
ATOM     26  C   UNL     1      -0.730   9.224  22.720  0.00  0.00    +0.000 A 
ATOM     27  C   UNL     1      -0.851  10.590  22.959  0.00  0.00    +0.000 A 
ATOM     28  C   UNL     1      -0.228  11.508  22.103  0.00  0.00    +0.000 A 
ATOM     29  C   UNL     1       0.524  11.118  20.981  0.00  0.00    +0.000 A 
BRANCH  29  30
ATOM     30  N   UNL     1       1.168  12.100  20.225  0.00  0.00    +0.000 N 
ATOM     31  C   UNL     1       1.102  12.181  18.758  0.00  0.00    +0.000 C 
ATOM     32  C   UNL     1       2.398  12.774  18.165  0.00  0.00    +0.000 C 
ATOM     33  N   UNL     1       2.757  14.079  18.758  0.00  0.00    +0.000 NA
ATOM     34  C   UNL     1       4.023  14.553  18.201  0.00  0.00    +0.000 C 
ATOM     35  C   UNL     1       2.858  13.927  20.227  0.00  0.00    +0.000 C 
ATOM     36  C   UNL     1       1.565  13.368  20.872  0.00  0.00    +0.000 C 
ENDBRANCH  29  30
ENDBRANCH  22  24
ENDBRANCH  19  20
ENDBRANCH   1  19
TORSDOF 9
ENDMDL
MODEL 2
REMARK VINA RESULT:      -9.0      1.695      2.170
REMARK  Name = 
REMARK  12 active torsions:
REMARK  status: ('A' for Active; 'I' for Inactive)
REMARK    1  A    between atoms: C_1  and  C_2
REMARK    2  A    between atoms: C_2  and  O_3
REMARK    3  A    between atoms: O_3  and  C_4
REMARK    4  A    between atoms: C_4  and  C_6
REMARK    5  A    between atoms: C_8  and  C_9
REMARK    6  A    between atoms: N_15  and  C_16
REMARK    7  A    between atoms: C_16  and  C_17
REMARK    8  A    between atoms: C_17  and  C_18
REMARK    9  A    between atoms: N_20  and  C_21
REMARK   10  A    between atoms: C_26  and  N_27
REMARK   11  A    between atoms: N_30  and  C_31
REMARK   12  A    between atoms: C_34  and  C_35
REMARK                            x       y       z     vdW  Elec       q    Type
REMARK                         _______ _______ _______ _____ _____    ______ ____
ROOT
ATOM      1  C   UNL     1       3.320   7.191  18.834  0.00  0.00    +0.000 C 
ENDROOT
BRANCH   1   5
ATOM      2  C   UNL     1       5.678   5.183  16.833  0.00  0.00    +0.000 A 
ATOM      3  C   UNL     1       4.717   4.230  17.251  0.00  0.00    +0.000 A 
ATOM      4  C   UNL     1       3.783   4.836  18.080  0.00  0.00    +0.000 A 
ATOM      5  N   UNL     1       4.136   6.201  18.130  0.00  0.00    +0.000 N 
ATOM      6  C   UNL     1       5.312   6.396  17.410  0.00  0.00    +0.000 A 
ATOM      7  C   UNL     1       6.086   7.664  17.189  0.00  0.00    +0.000 C 
BRANCH   4   8
ATOM      8  C   UNL     1       2.670   4.145  18.795  0.00  0.00    +0.000 A 
ATOM      9  C   UNL     1       2.660   4.139  20.203  0.00  0.00    +0.000 A 
ATOM     10  C   UNL     1       1.640   3.512  20.932  0.00  0.00    +0.000 A 
ATOM     11  C   UNL     1       0.589   2.889  20.267  0.00  0.00    +0.000 A 
ATOM     12  C   UNL     1       0.584   2.865  18.878  0.00  0.00    +0.000 A 
ATOM     13  C   UNL     1       1.627   3.460  18.155  0.00  0.00    +0.000 A 
ENDBRANCH   4   8
BRANCH   2  14
ATOM     14  C   UNL     1       6.809   5.001  15.920  0.00  0.00    +0.000 C 
ATOM     15  O   UNL     1       7.900   4.538  16.260  0.00  0.00    +0.000 OA
BRANCH  14  16
ATOM     16  O   UNL     1       6.555   5.489  14.671  0.00  0.00    +0.000 OA
BRANCH  16  18
ATOM     17  C   UNL     1       6.047   3.658  13.228  0.00  0.00    +0.000 C 
ATOM     18  C   UNL     1       7.099   4.681  13.618  0.00  0.00    +0.000 C 
ENDBRANCH  16  18
ENDBRANCH  14  16
ENDBRANCH   2  14
ENDBRANCH   1   5
BRANCH   1  19
ATOM     19  C   UNL     1       2.742   8.356  18.061  0.00  0.00    +0.000 C 
BRANCH  19  20
ATOM     20  C   UNL     1       1.472   8.891  18.664  0.00  0.00    +0.000 C 
ATOM     21  O   UNL     1       1.133   8.658  19.813  0.00  0.00    +0.000 OA
ATOM     22  N   UNL     1       0.775   9.652  17.731  0.00  0.00    +0.000 N 
ATOM     23  H   UNL     1       1.308  10.054  16.973  0.00  0.00    +0.000 HD
BRANCH  22  24
ATOM     24  C   UNL     1      -0.349  10.406  18.104  0.00  0.00    +0.000 A 
ATOM     25  C   UNL     1      -1.609   9.855  17.798  0.00  0.00    +0.000 A 
ATOM     26  C   UNL     1      -2.766  10.586  18.022  0.00  0.00    +0.000 A 
ATOM     27  C   UNL     1      -2.669  11.856  18.582  0.00  0.00    +0.000 A 
ATOM     28  C   UNL     1      -1.411  12.391  18.889  0.00  0.00    +0.000 A 
ATOM     29  C   UNL     1      -0.208  11.704  18.648  0.00  0.00    +0.000 A 
BRANCH  29  30
ATOM     30  N   UNL     1       0.996  12.287  19.051  0.00  0.00    +0.000 N 
ATOM     31  C   UNL     1       1.515  12.227  20.426  0.00  0.00    +0.000 C 
ATOM     32  C   UNL     1       2.339  13.485  20.775  0.00  0.00    +0.000 C 
ATOM     33  N   UNL     1       3.420  13.753  19.805  0.00  0.00    +0.000 NA
ATOM     34  C   UNL     1       4.118  14.989  20.156  0.00  0.00    +0.000 C 
ATOM     35  C   UNL     1       2.835  13.852  18.449  0.00  0.00    +0.000 C 
ATOM     36  C   UNL     1       2.028  12.593  18.040  0.00  0.00    +0.000 C 
ENDBRANCH  29  30
ENDBRANCH  22  24
ENDBRANCH  19  20
ENDBRANCH   1  19
TORSDOF 9
ENDMDL
MODEL 3
REMARK VINA RESULT:      -8.9      1.807      2.366
REMARK  Name = 
REMARK  12 active torsions:
REMARK  status: ('A' for Active; 'I' for Inactive)
REMARK    1  A    between atoms: C_1  and  C_2
REMARK    2  A    between atoms: C_2  and  O_3
REMARK    3  A    between atoms: O_3  and  C_4
REMARK    4  A    between atoms: C_4  and  C_6
REMARK    5  A    between atoms: C_8  and  C_9
REMARK    6  A    between atoms: N_15  and  C_16
REMARK    7  A    between atoms: C_16  and  C_17
REMARK    8  A    between atoms: C_17  and  C_18
REMARK    9  A    between atoms: N_20  and  C_21
REMARK   10  A    between atoms: C_26  and  N_27
REMARK   11  A    between atoms: N_30  and  C_31
REMARK   12  A    between atoms: C_34  and  C_35
REMARK                            x       y       z     vdW  Elec       q    Type
REMARK                         _______ _______ _______ _____ _____    ______ ____
ROOT
ATOM      1  C   UNL     1       2.930   6.722  17.802  0.00  0.00    +0.000 C 
ENDROOT
BRANCH   1   5
ATOM      2  C   UNL     1       6.135   4.911  18.019  0.00  0.00    +0.000 A 
ATOM      3  C   UNL     1       5.200   3.975  18.526  0.00  0.00    +0.000 A 
ATOM      4  C   UNL     1       3.936   4.547  18.565  0.00  0.00    +0.000 A 
ATOM      5  N   UNL     1       4.076   5.839  18.019  0.00  0.00    +0.000 N 
ATOM      6  C   UNL     1       5.420   6.072  17.733  0.00  0.00    +0.000 A 
ATOM      7  C   UNL     1       6.066   7.301  17.160  0.00  0.00    +0.000 C 
BRANCH   4   8
ATOM      8  C   UNL     1       2.706   3.911  19.122  0.00  0.00    +0.000 A 
ATOM      9  C   UNL     1       2.436   4.031  20.499  0.00  0.00    +0.000 A 
ATOM     10  C   UNL     1       1.296   3.461  21.081  0.00  0.00    +0.000 A 
ATOM     11  C   UNL     1       0.382   2.769  20.293  0.00  0.00    +0.000 A 
ATOM     12  C   UNL     1       0.634   2.619  18.935  0.00  0.00    +0.000 A 
ATOM     13  C   UNL     1       1.796   3.158  18.366  0.00  0.00    +0.000 A 
ENDBRANCH   4   8
BRANCH   2  14
ATOM     14  C   UNL     1       7.565   4.728  17.759  0.00  0.00    +0.000 C 
ATOM     15  O   UNL     1       8.419   4.642  18.645  0.00  0.00    +0.000 OA
BRANCH  14  16
ATOM     16  O   UNL     1       7.861   4.757  16.428  0.00  0.00    +0.000 OA
BRANCH  16  18
ATOM     17  C   UNL     1       6.708   4.802  14.339  0.00  0.00    +0.000 C 
ATOM     18  C   UNL     1       6.936   4.016  15.619  0.00  0.00    +0.000 C 
ENDBRANCH  16  18
ENDBRANCH  14  16
ENDBRANCH   2  14
ENDBRANCH   1   5
BRANCH   1  19
ATOM     19  C   UNL     1       2.673   7.854  18.773  0.00  0.00    +0.000 C 
BRANCH  19  20
ATOM     20  C   UNL     1       1.801   8.936  18.198  0.00  0.00    +0.000 C 
ATOM     21  O   UNL     1       1.880   9.307  17.038  0.00  0.00    +0.000 OA
ATOM     22  N   UNL     1       0.936   9.429  19.170  0.00  0.00    +0.000 N 
ATOM     23  H   UNL     1       0.724   8.822  19.948  0.00  0.00    +0.000 HD
BRANCH  22  24
ATOM     24  C   UNL     1      -0.099  10.317  18.837  0.00  0.00    +0.000 A 
ATOM     25  C   UNL     1      -1.324   9.743  18.445  0.00  0.00    +0.000 A 
ATOM     26  C   UNL     1      -2.358  10.544  17.985  0.00  0.00    +0.000 A 
ATOM     27  C   UNL     1      -2.181  11.924  17.945  0.00  0.00    +0.000 A 
ATOM     28  C   UNL     1      -0.961  12.485  18.343  0.00  0.00    +0.000 A 
ATOM     29  C   UNL     1       0.129  11.712  18.784  0.00  0.00    +0.000 A 
BRANCH  29  30
ATOM     30  N   UNL     1       1.282  12.363  19.229  0.00  0.00    +0.000 N 
ATOM     31  C   UNL     1       1.674  12.462  20.643  0.00  0.00    +0.000 C 
ATOM     32  C   UNL     1       2.444  13.770  20.926  0.00  0.00    +0.000 C 
ATOM     33  N   UNL     1       3.607  13.958  20.033  0.00  0.00    +0.000 NA
ATOM     34  C   UNL     1       4.252  15.240  20.310  0.00  0.00    +0.000 C 
ATOM     35  C   UNL     1       3.147  13.897  18.627  0.00  0.00    +0.000 C 
ATOM     36  C   UNL     1       2.398  12.584  18.287  0.00  0.00    +0.000 C 
ENDBRANCH  29  30
ENDBRANCH  22  24
ENDBRANCH  19  20
ENDBRANCH   1  19
TORSDOF 9
ENDMDL
MODEL 4
REMARK VINA RESULT:      -8.9      1.756      2.494
REMARK  Name = 
REMARK  12 active torsions:
REMARK  status: ('A' for Active; 'I' for Inactive)
REMARK    1  A    between atoms: C_1  and  C_2
REMARK    2  A    between atoms: C_2  and  O_3
REMARK    3  A    between atoms: O_3  and  C_4
REMARK    4  A    between atoms: C_4  and  C_6
REMARK    5  A    between atoms: C_8  and  C_9
REMARK    6  A    between atoms: N_15  and  C_16
REMARK    7  A    between atoms: C_16  and  C_17
REMARK    8  A    between atoms: C_17  and  C_18
REMARK    9  A    between atoms: N_20  and  C_21
REMARK   10  A    between atoms: C_26  and  N_27
REMARK   11  A    between atoms: N_30  and  C_31
REMARK   12  A    between atoms: C_34  and  C_35
REMARK                            x       y       z     vdW  Elec       q    Type
REMARK                         _______ _______ _______ _____ _____    ______ ____
ROOT
ATOM      1  C   UNL     1       2.374   6.616  18.030  0.00  0.00    +0.000 C 
ENDROOT
BRANCH   1   5
ATOM      2  C   UNL     1       5.404   4.900  16.815  0.00  0.00    +0.000 A 
ATOM      3  C   UNL     1       4.851   3.971  17.731  0.00  0.00    +0.000 A 
ATOM      4  C   UNL     1       3.721   4.513  18.327  0.00  0.00    +0.000 A 
ATOM      5  N   UNL     1       3.534   5.776  17.728  0.00  0.00    +0.000 N 
ATOM      6  C   UNL     1       4.583   6.025  16.846  0.00  0.00    +0.000 A 
ATOM      7  C   UNL     1       4.834   7.235  15.994  0.00  0.00    +0.000 C 
BRANCH   4   8
ATOM      8  C   UNL     1       2.916   3.879  19.412  0.00  0.00    +0.000 A 
ATOM      9  C   UNL     1       2.020   2.844  19.085  0.00  0.00    +0.000 A 
ATOM     10  C   UNL     1       1.241   2.205  20.060  0.00  0.00    +0.000 A 
ATOM     11  C   UNL     1       1.353   2.575  21.396  0.00  0.00    +0.000 A 
ATOM     12  C   UNL     1       2.217   3.606  21.743  0.00  0.00    +0.000 A 
ATOM     13  C   UNL     1       2.964   4.267  20.759  0.00  0.00    +0.000 A 
ENDBRANCH   4   8
BRANCH   2  14
ATOM     14  C   UNL     1       6.562   4.737  15.933  0.00  0.00    +0.000 C 
ATOM     15  O   UNL     1       7.539   5.489  15.934  0.00  0.00    +0.000 OA
BRANCH  14  16
ATOM     16  O   UNL     1       6.399   3.716  15.042  0.00  0.00    +0.000 OA
BRANCH  16  18
ATOM     17  C   UNL     1       6.347   3.627  12.659  0.00  0.00    +0.000 C 
ATOM     18  C   UNL     1       5.600   4.069  13.905  0.00  0.00    +0.000 C 
ENDBRANCH  16  18
ENDBRANCH  14  16
ENDBRANCH   2  14
ENDBRANCH   1   5
BRANCH   1  19
ATOM     19  C   UNL     1       2.586   7.949  18.715  0.00  0.00    +0.000 C 
BRANCH  19  20
ATOM     20  C   UNL     1       1.779   9.061  18.103  0.00  0.00    +0.000 C 
ATOM     21  O   UNL     1       2.128   9.659  17.098  0.00  0.00    +0.000 OA
ATOM     22  N   UNL     1       0.625   9.289  18.846  0.00  0.00    +0.000 N 
ATOM     23  H   UNL     1       0.283   8.526  19.412  0.00  0.00    +0.000 HD
BRANCH  22  24
ATOM     24  C   UNL     1      -0.379  10.152  18.380  0.00  0.00    +0.000 A 
ATOM     25  C   UNL     1      -1.354   9.589  17.534  0.00  0.00    +0.000 A 
ATOM     26  C   UNL     1      -2.310  10.394  16.933  0.00  0.00    +0.000 A 
ATOM     27  C   UNL     1      -2.313  11.759  17.202  0.00  0.00    +0.000 A 
ATOM     28  C   UNL     1      -1.343  12.308  18.050  0.00  0.00    +0.000 A 
ATOM     29  C   UNL     1      -0.332  11.539  18.655  0.00  0.00    +0.000 A 
BRANCH  29  30
ATOM     30  N   UNL     1       0.549  12.160  19.542  0.00  0.00    +0.000 N 
ATOM     31  C   UNL     1       0.378  12.159  21.003  0.00  0.00    +0.000 C 
ATOM     32  C   UNL     1       0.947  13.446  21.640  0.00  0.00    +0.000 C 
ATOM     33  N   UNL     1       2.353  13.700  21.266  0.00  0.00    +0.000 NA
ATOM     34  C   UNL     1       2.808  14.962  21.848  0.00  0.00    +0.000 C 
ATOM     35  C   UNL     1       2.457  13.740  19.789  0.00  0.00    +0.000 C 
ATOM     36  C   UNL     1       1.930  12.451  19.107  0.00  0.00    +0.000 C 
ENDBRANCH  29  30
ENDBRANCH  22  24
ENDBRANCH  19  20
ENDBRANCH   1  19
TORSDOF 9
ENDMDL
MODEL 5
REMARK VINA RESULT:      -8.9      0.981      1.016
REMARK  Name = 
REMARK  12 active torsions:
REMARK  status: ('A' for Active; 'I' for Inactive)
REMARK    1  A    between atoms: C_1  and  C_2
REMARK    2  A    between atoms: C_2  and  O_3
REMARK    3  A    between atoms: O_3  and  C_4
REMARK    4  A    between atoms: C_4  and  C_6
REMARK    5  A    between atoms: C_8  and  C_9
REMARK    6  A    between atoms: N_15  and  C_16
REMARK    7  A    between atoms: C_16  and  C_17
REMARK    8  A    between atoms: C_17  and  C_18
REMARK    9  A    between atoms: N_20  and  C_21
REMARK   10  A    between atoms: C_26  and  N_27
REMARK   11  A    between atoms: N_30  and  C_31
REMARK   12  A    between atoms: C_34  and  C_35
REMARK                            x       y       z     vdW  Elec       q    Type
REMARK                         _______ _______ _______ _____ _____    ______ ____
ROOT
ATOM      1  C   UNL     1       3.258   7.136  18.691  0.00  0.00    +0.000 C 
ENDROOT
BRANCH   1   5
ATOM      2  C   UNL     1       5.559   5.024  16.731  0.00  0.00    +0.000 A 
ATOM      3  C   UNL     1       4.629   4.091  17.253  0.00  0.00    +0.000 A 
ATOM      4  C   UNL     1       3.722   4.741  18.078  0.00  0.00    +0.000 A 
ATOM      5  N   UNL     1       4.058   6.110  18.021  0.00  0.00    +0.000 N 
ATOM      6  C   UNL     1       5.200   6.269  17.240  0.00  0.00    +0.000 A 
ATOM      7  C   UNL     1       5.947   7.528  16.903  0.00  0.00    +0.000 C 
BRANCH   4   8
ATOM      8  C   UNL     1       2.649   4.088  18.883  0.00  0.00    +0.000 A 
ATOM      9  C   UNL     1       2.757   4.078  20.287  0.00  0.00    +0.000 A 
ATOM     10  C   UNL     1       1.779   3.486  21.098  0.00  0.00    +0.000 A 
ATOM     11  C   UNL     1       0.655   2.901  20.524  0.00  0.00    +0.000 A 
ATOM     12  C   UNL     1       0.534   2.881  19.141  0.00  0.00    +0.000 A 
ATOM     13  C   UNL     1       1.534   3.440  18.333  0.00  0.00    +0.000 A 
ENDBRANCH   4   8
BRANCH   2  14
ATOM     14  C   UNL     1       6.654   4.793  15.785  0.00  0.00    +0.000 C 
ATOM     15  O   UNL     1       7.834   4.663  16.119  0.00  0.00    +0.000 OA
BRANCH  14  16
ATOM     16  O   UNL     1       6.239   4.833  14.487  0.00  0.00    +0.000 OA
BRANCH  16  18
ATOM     17  C   UNL     1       5.602   3.720  12.474  0.00  0.00    +0.000 C 
ATOM     18  C   UNL     1       6.216   3.546  13.853  0.00  0.00    +0.000 C 
ENDBRANCH  16  18
ENDBRANCH  14  16
ENDBRANCH   2  14
ENDBRANCH   1   5
BRANCH   1  19
ATOM     19  C   UNL     1       2.551   8.182  17.857  0.00  0.00    +0.000 C 
BRANCH  19  20
ATOM     20  C   UNL     1       1.467   8.903  18.611  0.00  0.00    +0.000 C 
ATOM     21  O   UNL     1       0.378   9.160  18.125  0.00  0.00    +0.000 OA
ATOM     22  N   UNL     1       1.900   9.222  19.894  0.00  0.00    +0.000 N 
ATOM     23  H   UNL     1       2.645   8.663  20.282  0.00  0.00    +0.000 HD
BRANCH  22  24
ATOM     24  C   UNL     1       1.011   9.737  20.852  0.00  0.00    +0.000 A 
ATOM     25  C   UNL     1       0.356   8.800  21.674  0.00  0.00    +0.000 A 
ATOM     26  C   UNL     1      -0.626   9.212  22.562  0.00  0.00    +0.000 A 
ATOM     27  C   UNL     1      -0.932  10.567  22.654  0.00  0.00    +0.000 A 
ATOM     28  C   UNL     1      -0.270  11.491  21.836  0.00  0.00    +0.000 A 
ATOM     29  C   UNL     1       0.708  11.118  20.896  0.00  0.00    +0.000 A 
BRANCH  29  30
ATOM     30  N   UNL     1       1.366  12.116  20.174  0.00  0.00    +0.000 N 
ATOM     31  C   UNL     1       1.220  12.311  18.723  0.00  0.00    +0.000 C 
ATOM     32  C   UNL     1       2.514  12.872  18.094  0.00  0.00    +0.000 C 
ATOM     33  N   UNL     1       2.987  14.105  18.756  0.00  0.00    +0.000 NA
ATOM     34  C   UNL     1       4.246  14.546  18.156  0.00  0.00    +0.000 C 
ATOM     35  C   UNL     1       3.164  13.837  20.201  0.00  0.00    +0.000 C 
ATOM     36  C   UNL     1       1.878  13.306  20.884  0.00  0.00    +0.000 C 
ENDBRANCH  29  30
ENDBRANCH  22  24
ENDBRANCH  19  20
ENDBRANCH   1  19
TORSDOF 9
ENDMDL
MODEL 6
REMARK VINA RESULT:      -8.8      2.199      2.853
REMARK  Name = 
REMARK  12 active torsions:
REMARK  status: ('A' for Active; 'I' for Inactive)
REMARK    1  A    between atoms: C_1  and  C_2
REMARK    2  A    between atoms: C_2  and  O_3
REMARK    3  A    between atoms: O_3  and  C_4
REMARK    4  A    between atoms: C_4  and  C_6
REMARK    5  A    between atoms: C_8  and  C_9
REMARK    6  A    between atoms: N_15  and  C_16
REMARK    7  A    between atoms: C_16  and  C_17
REMARK    8  A    between atoms: C_17  and  C_18
REMARK    9  A    between atoms: N_20  and  C_21
REMARK   10  A    between atoms: C_26  and  N_27
REMARK   11  A    between atoms: N_30  and  C_31
REMARK   12  A    between atoms: C_34  and  C_35
REMARK                            x       y       z     vdW  Elec       q    Type
REMARK                         _______ _______ _______ _____ _____    ______ ____
ROOT
ATOM      1  C   UNL     1       4.110   6.716  18.688  0.00  0.00    +0.000 C 
ENDROOT
BRANCH   1   5
ATOM      2  C   UNL     1       5.780   4.713  16.081  0.00  0.00    +0.000 A 
ATOM      3  C   UNL     1       4.785   3.834  16.576  0.00  0.00    +0.000 A 
ATOM      4  C   UNL     1       4.104   4.437  17.625  0.00  0.00    +0.000 A 
ATOM      5  N   UNL     1       4.645   5.733  17.745  0.00  0.00    +0.000 N 
ATOM      6  C   UNL     1       5.692   5.879  16.837  0.00  0.00    +0.000 A 
ATOM      7  C   UNL     1       6.582   7.065  16.603  0.00  0.00    +0.000 C 
BRANCH   4   8
ATOM      8  C   UNL     1       3.050   3.797  18.465  0.00  0.00    +0.000 A 
ATOM      9  C   UNL     1       1.742   3.685  17.955  0.00  0.00    +0.000 A 
ATOM     10  C   UNL     1       0.710   3.089  18.693  0.00  0.00    +0.000 A 
ATOM     11  C   UNL     1       0.965   2.570  19.958  0.00  0.00    +0.000 A 
ATOM     12  C   UNL     1       2.242   2.684  20.492  0.00  0.00    +0.000 A 
ATOM     13  C   UNL     1       3.261   3.316  19.765  0.00  0.00    +0.000 A 
ENDBRANCH   4   8
BRANCH   2  14
ATOM     14  C   UNL     1       6.697   4.515  14.956  0.00  0.00    +0.000 C 
ATOM     15  O   UNL     1       7.657   5.251  14.714  0.00  0.00    +0.000 OA
BRANCH  14  16
ATOM     16  O   UNL     1       6.318   3.483  14.149  0.00  0.00    +0.000 OA
BRANCH  16  18
ATOM     17  C   UNL     1       5.194   3.297  12.053  0.00  0.00    +0.000 C 
ATOM     18  C   UNL     1       6.459   3.766  12.751  0.00  0.00    +0.000 C 
ENDBRANCH  16  18
ENDBRANCH  14  16
ENDBRANCH   2  14
ENDBRANCH   1   5
BRANCH   1  19
ATOM     19  C   UNL     1       2.784   7.382  18.388  0.00  0.00    +0.000 C 
BRANCH  19  20
ATOM     20  C   UNL     1       1.940   7.593  19.615  0.00  0.00    +0.000 C 
ATOM     21  O   UNL     1       1.730   6.714  20.435  0.00  0.00    +0.000 OA
ATOM     22  N   UNL     1       1.453   8.895  19.650  0.00  0.00    +0.000 N 
ATOM     23  H   UNL     1       1.968   9.595  19.136  0.00  0.00    +0.000 HD
BRANCH  22  24
ATOM     24  C   UNL     1       0.788   9.390  20.784  0.00  0.00    +0.000 A 
ATOM     25  C   UNL     1       1.339   9.054  22.036  0.00  0.00    +0.000 A 
ATOM     26  C   UNL     1       0.679   9.399  23.206  0.00  0.00    +0.000 A 
ATOM     27  C   UNL     1      -0.515  10.109  23.129  0.00  0.00    +0.000 A 
ATOM     28  C   UNL     1      -1.050  10.445  21.878  0.00  0.00    +0.000 A 
ATOM     29  C   UNL     1      -0.437  10.087  20.663  0.00  0.00    +0.000 A 
BRANCH  29  30
ATOM     30  N   UNL     1      -1.006  10.525  19.465  0.00  0.00    +0.000 N 
ATOM     31  C   UNL     1      -1.744  11.789  19.323  0.00  0.00    +0.000 C 
ATOM     32  C   UNL     1      -2.850  11.681  18.251  0.00  0.00    +0.000 C 
ATOM     33  N   UNL     1      -2.342  11.208  16.947  0.00  0.00    +0.000 NA
ATOM     34  C   UNL     1      -3.446  11.066  15.998  0.00  0.00    +0.000 C 
ATOM     35  C   UNL     1      -1.652   9.912  17.142  0.00  0.00    +0.000 C 
ATOM     36  C   UNL     1      -0.509   9.982  18.185  0.00  0.00    +0.000 C 
ENDBRANCH  29  30
ENDBRANCH  22  24
ENDBRANCH  19  20
ENDBRANCH   1  19
TORSDOF 9
ENDMDL
MODEL 7
REMARK VINA RESULT:      -8.8      0.778      1.075
REMARK  Name = 
REMARK  12 active torsions:
REMARK  status: ('A' for Active; 'I' for Inactive)
REMARK    1  A    between atoms: C_1  and  C_2
REMARK    2  A    between atoms: C_2  and  O_3
REMARK    3  A    between atoms: O_3  and  C_4
REMARK    4  A    between atoms: C_4  and  C_6
REMARK    5  A    between atoms: C_8  and  C_9
REMARK    6  A    between atoms: N_15  and  C_16
REMARK    7  A    between atoms: C_16  and  C_17
REMARK    8  A    between atoms: C_17  and  C_18
REMARK    9  A    between atoms: N_20  and  C_21
REMARK   10  A    between atoms: C_26  and  N_27
REMARK   11  A    between atoms: N_30  and  C_31
REMARK   12  A    between atoms: C_34  and  C_35
REMARK                            x       y       z     vdW  Elec       q    Type
REMARK                         _______ _______ _______ _____ _____    ______ ____
ROOT
ATOM      1  C   UNL     1       2.417   6.550  17.709  0.00  0.00    +0.000 C 
ENDROOT
BRANCH   1   5
ATOM      2  C   UNL     1       5.409   4.615  16.759  0.00  0.00    +0.000 A 
ATOM      3  C   UNL     1       4.774   3.782  17.713  0.00  0.00    +0.000 A 
ATOM      4  C   UNL     1       3.647   4.416  18.217  0.00  0.00    +0.000 A 
ATOM      5  N   UNL     1       3.546   5.639  17.521  0.00  0.00    +0.000 N 
ATOM      6  C   UNL     1       4.642   5.775  16.672  0.00  0.00    +0.000 A 
ATOM      7  C   UNL     1       4.987   6.906  15.747  0.00  0.00    +0.000 C 
BRANCH   4   8
ATOM      8  C   UNL     1       2.768   3.901  19.307  0.00  0.00    +0.000 A 
ATOM      9  C   UNL     1       1.584   3.220  18.967  0.00  0.00    +0.000 A 
ATOM     10  C   UNL     1       0.720   2.707  19.945  0.00  0.00    +0.000 A 
ATOM     11  C   UNL     1       1.030   2.848  21.294  0.00  0.00    +0.000 A 
ATOM     12  C   UNL     1       2.184   3.532  21.656  0.00  0.00    +0.000 A 
ATOM     13  C   UNL     1       3.023   4.076  20.675  0.00  0.00    +0.000 A 
ENDBRANCH   4   8
BRANCH   2  14
ATOM     14  C   UNL     1       6.594   4.336  15.944  0.00  0.00    +0.000 C 
ATOM     15  O   UNL     1       7.691   4.870  16.121  0.00  0.00    +0.000 OA
BRANCH  14  16
ATOM     16  O   UNL     1       6.326   3.489  14.908  0.00  0.00    +0.000 OA
BRANCH  16  18
ATOM     17  C   UNL     1       5.222   3.739  12.808  0.00  0.00    +0.000 C 
ATOM     18  C   UNL     1       6.454   4.104  13.618  0.00  0.00    +0.000 C 
ENDBRANCH  16  18
ENDBRANCH  14  16
ENDBRANCH   2  14
ENDBRANCH   1   5
BRANCH   1  19
ATOM     19  C   UNL     1       2.658   7.907  18.334  0.00  0.00    +0.000 C 
BRANCH  19  20
ATOM     20  C   UNL     1       1.914   8.101  19.626  0.00  0.00    +0.000 C 
ATOM     21  O   UNL     1       1.957   7.298  20.544  0.00  0.00    +0.000 OA
ATOM     22  N   UNL     1       1.194   9.291  19.598  0.00  0.00    +0.000 N 
ATOM     23  H   UNL     1       1.514  10.008  18.964  0.00  0.00    +0.000 HD
BRANCH  22  24
ATOM     24  C   UNL     1       0.562   9.784  20.751  0.00  0.00    +0.000 A 
ATOM     25  C   UNL     1       0.136   8.830  21.696  0.00  0.00    +0.000 A 
ATOM     26  C   UNL     1      -0.602   9.221  22.802  0.00  0.00    +0.000 A 
ATOM     27  C   UNL     1      -0.888  10.571  22.984  0.00  0.00    +0.000 A 
ATOM     28  C   UNL     1      -0.454  11.512  22.042  0.00  0.00    +0.000 A 
ATOM     29  C   UNL     1       0.267  11.160  20.886  0.00  0.00    +0.000 A 
BRANCH  29  30
ATOM     30  N   UNL     1       0.720  12.174  20.039  0.00  0.00    +0.000 N 
ATOM     31  C   UNL     1       1.831  12.013  19.088  0.00  0.00    +0.000 C 
ATOM     32  C   UNL     1       2.595  13.338  18.881  0.00  0.00    +0.000 C 
ATOM     33  N   UNL     1       1.713  14.456  18.489  0.00  0.00    +0.000 NA
ATOM     34  C   UNL     1       2.487  15.692  18.372  0.00  0.00    +0.000 C 
ATOM     35  C   UNL     1       0.645  14.604  19.505  0.00  0.00    +0.000 C 
ATOM     36  C   UNL     1      -0.174  13.306  19.720  0.00  0.00    +0.000 C 
ENDBRANCH  29  30
ENDBRANCH  22  24
ENDBRANCH  19  20
ENDBRANCH   1  19
TORSDOF 9
ENDMDL
MODEL 8
REMARK VINA RESULT:      -8.8      1.780      2.588
REMARK  Name = 
REMARK  12 active torsions:
REMARK  status: ('A' for Active; 'I' for Inactive)
REMARK    1  A    between atoms: C_1  and  C_2
REMARK    2  A    between atoms: C_2  and  O_3
REMARK    3  A    between atoms: O_3  and  C_4
REMARK    4  A    between atoms: C_4  and  C_6
REMARK    5  A    between atoms: C_8  and  C_9
REMARK    6  A    between atoms: N_15  and  C_16
REMARK    7  A    between atoms: C_16  and  C_17
REMARK    8  A    between atoms: C_17  and  C_18
REMARK    9  A    between atoms: N_20  and  C_21
REMARK   10  A    between atoms: C_26  and  N_27
REMARK   11  A    between atoms: N_30  and  C_31
REMARK   12  A    between atoms: C_34  and  C_35
REMARK                            x       y       z     vdW  Elec       q    Type
REMARK                         _______ _______ _______ _____ _____    ______ ____
ROOT
ATOM      1  C   UNL     1       2.373   6.575  17.985  0.00  0.00    +0.000 C 
ENDROOT
BRANCH   1   5
ATOM      2  C   UNL     1       5.368   4.734  16.874  0.00  0.00    +0.000 A 
ATOM      3  C   UNL     1       4.733   3.819  17.750  0.00  0.00    +0.000 A 
ATOM      4  C   UNL     1       3.604   4.405  18.305  0.00  0.00    +0.000 A 
ATOM      5  N   UNL     1       3.503   5.685  17.721  0.00  0.00    +0.000 N 
ATOM      6  C   UNL     1       4.601   5.896  16.889  0.00  0.00    +0.000 A 
ATOM      7  C   UNL     1       4.947   7.105  16.069  0.00  0.00    +0.000 C 
BRANCH   4   8
ATOM      8  C   UNL     1       2.723   3.795  19.344  0.00  0.00    +0.000 A 
ATOM      9  C   UNL     1       2.992   4.044  20.703  0.00  0.00    +0.000 A 
ATOM     10  C   UNL     1       2.198   3.505  21.724  0.00  0.00    +0.000 A 
ATOM     11  C   UNL     1       1.099   2.713  21.410  0.00  0.00    +0.000 A 
ATOM     12  C   UNL     1       0.822   2.437  20.077  0.00  0.00    +0.000 A 
ATOM     13  C   UNL     1       1.642   2.947  19.062  0.00  0.00    +0.000 A 
ENDBRANCH   4   8
BRANCH   2  14
ATOM     14  C   UNL     1       6.555   4.528  16.040  0.00  0.00    +0.000 C 
ATOM     15  O   UNL     1       6.531   3.993  14.930  0.00  0.00    +0.000 OA
BRANCH  14  16
ATOM     16  O   UNL     1       7.705   4.908  16.669  0.00  0.00    +0.000 OA
BRANCH  16  18
ATOM     17  C   UNL     1       7.897   6.439  18.488  0.00  0.00    +0.000 C 
ATOM     18  C   UNL     1       7.574   5.009  18.093  0.00  0.00    +0.000 C 
ENDBRANCH  16  18
ENDBRANCH  14  16
ENDBRANCH   2  14
ENDBRANCH   1   5
BRANCH   1  19
ATOM     19  C   UNL     1       2.623   7.907  18.659  0.00  0.00    +0.000 C 
BRANCH  19  20
ATOM     20  C   UNL     1       1.749   9.009  18.128  0.00  0.00    +0.000 C 
ATOM     21  O   UNL     1       1.837   9.436  16.988  0.00  0.00    +0.000 OA
ATOM     22  N   UNL     1       0.870   9.449  19.113  0.00  0.00    +0.000 N 
ATOM     23  H   UNL     1       0.654   8.804  19.859  0.00  0.00    +0.000 HD
BRANCH  22  24
ATOM     24  C   UNL     1      -0.168  10.345  18.812  0.00  0.00    +0.000 A 
ATOM     25  C   UNL     1      -1.394   9.781  18.410  0.00  0.00    +0.000 A 
ATOM     26  C   UNL     1      -2.431  10.593  17.978  0.00  0.00    +0.000 A 
ATOM     27  C   UNL     1      -2.257  11.974  17.979  0.00  0.00    +0.000 A 
ATOM     28  C   UNL     1      -1.036  12.525  18.387  0.00  0.00    +0.000 A 
ATOM     29  C   UNL     1       0.058  11.741  18.799  0.00  0.00    +0.000 A 
BRANCH  29  30
ATOM     30  N   UNL     1       1.212  12.381  19.257  0.00  0.00    +0.000 N 
ATOM     31  C   UNL     1       1.600  12.457  20.674  0.00  0.00    +0.000 C 
ATOM     32  C   UNL     1       2.375  13.757  20.979  0.00  0.00    +0.000 C 
ATOM     33  N   UNL     1       3.541  13.953  20.093  0.00  0.00    +0.000 NA
ATOM     34  C   UNL     1       4.191  15.229  20.390  0.00  0.00    +0.000 C 
ATOM     35  C   UNL     1       3.085  13.916  18.684  0.00  0.00    +0.000 C 
ATOM     36  C   UNL     1       2.332  12.611  18.322  0.00  0.00    +0.000 C 
ENDBRANCH  29  30
ENDBRANCH  22  24
ENDBRANCH  19  20
ENDBRANCH   1  19
TORSDOF 9
ENDMDL
MODEL 9
REMARK VINA RESULT:      -8.6      1.920      2.952
REMARK  Name = 
REMARK  12 active torsions:
REMARK  status: ('A' for Active; 'I' for Inactive)
REMARK    1  A    between atoms: C_1  and  C_2
REMARK    2  A    between atoms: C_2  and  O_3
REMARK    3  A    between atoms: O_3  and  C_4
REMARK    4  A    between atoms: C_4  and  C_6
REMARK    5  A    between atoms: C_8  and  C_9
REMARK    6  A    between atoms: N_15  and  C_16
REMARK    7  A    between atoms: C_16  and  C_17
REMARK    8  A    between atoms: C_17  and  C_18
REMARK    9  A    between atoms: N_20  and  C_21
REMARK   10  A    between atoms: C_26  and  N_27
REMARK   11  A    between atoms: N_30  and  C_31
REMARK   12  A    between atoms: C_34  and  C_35
REMARK                            x       y       z     vdW  Elec       q    Type
REMARK                         _______ _______ _______ _____ _____    ______ ____
ROOT
ATOM      1  C   UNL     1       2.311   6.556  18.035  0.00  0.00    +0.000 C 
ENDROOT
BRANCH   1   5
ATOM      2  C   UNL     1       5.434   4.861  17.050  0.00  0.00    +0.000 A 
ATOM      3  C   UNL     1       4.844   3.949  17.960  0.00  0.00    +0.000 A 
ATOM      4  C   UNL     1       3.672   4.487  18.473  0.00  0.00    +0.000 A 
ATOM      5  N   UNL     1       3.500   5.729  17.827  0.00  0.00    +0.000 N 
ATOM      6  C   UNL     1       4.595   5.971  17.000  0.00  0.00    +0.000 A 
ATOM      7  C   UNL     1       4.876   7.160  16.127  0.00  0.00    +0.000 C 
BRANCH   4   8
ATOM      8  C   UNL     1       2.816   3.871  19.528  0.00  0.00    +0.000 A 
ATOM      9  C   UNL     1       1.790   2.986  19.147  0.00  0.00    +0.000 A 
ATOM     10  C   UNL     1       0.956   2.371  20.091  0.00  0.00    +0.000 A 
ATOM     11  C   UNL     1       1.141   2.612  21.448  0.00  0.00    +0.000 A 
ATOM     12  C   UNL     1       2.134   3.495  21.851  0.00  0.00    +0.000 A 
ATOM     13  C   UNL     1       2.939   4.138  20.899  0.00  0.00    +0.000 A 
ENDBRANCH   4   8
BRANCH   2  14
ATOM     14  C   UNL     1       6.645   4.693  16.242  0.00  0.00    +0.000 C 
ATOM     15  O   UNL     1       6.642   4.300  15.074  0.00  0.00    +0.000 OA
BRANCH  14  16
ATOM     16  O   UNL     1       7.784   4.930  16.955  0.00  0.00    +0.000 OA
BRANCH  16  18
ATOM     17  C   UNL     1       7.929   5.683  19.214  0.00  0.00    +0.000 C 
ATOM     18  C   UNL     1       7.715   6.107  17.771  0.00  0.00    +0.000 C 
ENDBRANCH  16  18
ENDBRANCH  14  16
ENDBRANCH   2  14
ENDBRANCH   1   5
BRANCH   1  19
ATOM     19  C   UNL     1       2.447   7.875  18.765  0.00  0.00    +0.000 C 
BRANCH  19  20
ATOM     20  C   UNL     1       1.668   8.988  18.121  0.00  0.00    +0.000 C 
ATOM     21  O   UNL     1       2.025   9.539  17.092  0.00  0.00    +0.000 OA
ATOM     22  N   UNL     1       0.530   9.279  18.865  0.00  0.00    +0.000 N 
ATOM     23  H   UNL     1       0.171   8.548  19.462  0.00  0.00    +0.000 HD
BRANCH  22  24
ATOM     24  C   UNL     1      -0.452  10.156  18.377  0.00  0.00    +0.000 A 
ATOM     25  C   UNL     1      -1.428   9.601  17.526  0.00  0.00    +0.000 A 
ATOM     26  C   UNL     1      -2.360  10.418  16.905  0.00  0.00    +0.000 A 
ATOM     27  C   UNL     1      -2.341  11.786  17.158  0.00  0.00    +0.000 A 
ATOM     28  C   UNL     1      -1.370  12.326  18.012  0.00  0.00    +0.000 A 
ATOM     29  C   UNL     1      -0.382  11.544  18.637  0.00  0.00    +0.000 A 
BRANCH  29  30
ATOM     30  N   UNL     1       0.501  12.159  19.528  0.00  0.00    +0.000 N 
ATOM     31  C   UNL     1       0.321  12.165  20.988  0.00  0.00    +0.000 C 
ATOM     32  C   UNL     1       0.900  13.447  21.624  0.00  0.00    +0.000 C 
ATOM     33  N   UNL     1       2.310  13.685  21.257  0.00  0.00    +0.000 NA
ATOM     34  C   UNL     1       2.776  14.944  21.838  0.00  0.00    +0.000 C 
ATOM     35  C   UNL     1       2.424  13.719  19.781  0.00  0.00    +0.000 C 
ATOM     36  C   UNL     1       1.888  12.434  19.101  0.00  0.00    +0.000 C 
ENDBRANCH  29  30
ENDBRANCH  22  24
ENDBRANCH  19  20
ENDBRANCH   1  19
TORSDOF 9
ENDMDL
