MODEL 1
REMARK VINA RESULT:      -6.9      0.000      0.000
REMARK  Name = 
REMARK  9 active torsions:
REMARK  status: ('A' for Active; 'I' for Inactive)
REMARK    1  A    between atoms: C_1  and  C_2
REMARK    2  A    between atoms: C_2  and  C_3
REMARK    3  A    between atoms: C_3  and  C_4
REMARK    4  A    between atoms: C_4  and  C_5
REMARK    5  A    between atoms: C_4  and  N_6
REMARK    6  A    between atoms: C_11  and  C_12
REMARK    7  A    between atoms: C_16  and  C_18
REMARK    8  A    between atoms: N_27  and  C_28
REMARK    9  A    between atoms: C_31  and  O_32
REMARK                            x       y       z     vdW  Elec       q    Type
REMARK                         _______ _______ _______ _____ _____    ______ ____
ROOT
ATOM      1  N   UNL     1       2.289   7.433  20.539  0.00  0.00    +0.000 N 
ATOM      2  C   UNL     1       1.413   8.415  20.928  0.00  0.00    +0.000 A 
ATOM      3  N   UNL     1       1.523   8.798  22.213  0.00  0.00    +0.000 NA
ATOM      4  C   UNL     1       0.700   9.760  22.691  0.00  0.00    +0.000 A 
ATOM      5  C   UNL     1      -0.203  10.388  21.839  0.00  0.00    +0.000 A 
ATOM      6  C   UNL     1      -1.191  11.422  21.946  0.00  0.00    +0.000 A 
ATOM      7  C   UNL     1      -1.703  11.584  20.670  0.00  0.00    +0.000 A 
ATOM      8  N   UNL     1      -1.092  10.695  19.821  0.00  0.00    +0.000 N 
ATOM      9  C   UNL     1      -0.197   9.932  20.529  0.00  0.00    +0.000 A 
ATOM     10  N   UNL     1       0.559   8.937  20.036  0.00  0.00    +0.000 NA
ATOM     11  H   UNL     1       2.997   7.216  21.224  0.00  0.00    +0.000 HD
ENDROOT
BRANCH   6  12
ATOM     12  C   UNL     1      -1.583  12.171  23.200  0.00  0.00    +0.000 C 
ATOM     13  C   UNL     1      -3.095  12.236  23.423  0.00  0.00    +0.000 C 
ATOM     14  C   UNL     1      -3.797  13.248  22.526  0.00  0.00    +0.000 C 
ATOM     15  N   UNL     1      -3.153  14.562  22.508  0.00  0.00    +0.000 N 
ATOM     16  C   UNL     1      -3.844  15.736  22.158  0.00  0.00    +0.000 C 
ATOM     17  O   UNL     1      -3.306  16.845  22.144  0.00  0.00    +0.000 OA
ATOM     18  C   UNL     1      -1.694  14.601  22.407  0.00  0.00    +0.000 C 
ATOM     19  C   UNL     1      -0.990  13.581  23.297  0.00  0.00    +0.000 C 
BRANCH  16  20
ATOM     20  C   UNL     1      -5.298  15.670  21.802  0.00  0.00    +0.000 A 
ATOM     21  C   UNL     1      -6.231  15.855  22.801  0.00  0.00    +0.000 A 
ATOM     22  C   UNL     1      -7.542  15.755  22.399  0.00  0.00    +0.000 A 
ATOM     23  N   UNL     1      -7.913  15.510  21.133  0.00  0.00    +0.000 NA
ATOM     24  C   UNL     1      -6.927  15.380  20.238  0.00  0.00    +0.000 A 
ATOM     25  N   UNL     1      -5.613  15.454  20.505  0.00  0.00    +0.000 NA
ENDBRANCH  16  20
ENDBRANCH   6  12
BRANCH   8  26
ATOM     26  C   UNL     1      -1.364  10.629  18.387  0.00  0.00    +0.000 C 
ATOM     27  C   UNL     1      -2.405   9.550  18.045  0.00  0.00    +0.000 C 
ATOM     28  C   UNL     1      -2.734   9.523  16.554  0.00  0.00    +0.000 C 
ATOM     29  C   UNL     1      -3.136  10.908  16.052  0.00  0.00    +0.000 C 
ATOM     30  C   UNL     1      -2.025  11.923  16.310  0.00  0.00    +0.000 C 
ATOM     31  C   UNL     1      -1.691  12.008  17.795  0.00  0.00    +0.000 C 
BRANCH  29  32
ATOM     32  O   UNL     1      -3.425  10.852  14.662  0.00  0.00    +0.000 OA
ATOM     33  H   UNL     1      -2.604  11.015  14.169  0.00  0.00    +0.000 HD
ENDBRANCH  29  32
ENDBRANCH   8  26
BRANCH   1  34
ATOM     34  C   UNL     1       2.046   6.581  19.396  0.00  0.00    +0.000 C 
ATOM     35  C   UNL     1       2.955   7.024  18.249  0.00  0.00    +0.000 C 
BRANCH  34  36
ATOM     36  C   UNL     1       2.348   5.104  19.741  0.00  0.00    +0.000 C 
BRANCH  36  38
ATOM     37  C   UNL     1       1.852   3.377  21.510  0.00  0.00    +0.000 C 
ATOM     38  C   UNL     1       1.257   4.418  20.569  0.00  0.00    +0.000 C 
ENDBRANCH  36  38
ENDBRANCH  34  36
ENDBRANCH   1  34
TORSDOF 7
ENDMDL
MODEL 2
REMARK VINA RESULT:      -6.7      5.156      7.338
REMARK  Name = 
REMARK  9 active torsions:
REMARK  status: ('A' for Active; 'I' for Inactive)
REMARK    1  A    between atoms: C_1  and  C_2
REMARK    2  A    between atoms: C_2  and  C_3
REMARK    3  A    between atoms: C_3  and  C_4
REMARK    4  A    between atoms: C_4  and  C_5
REMARK    5  A    between atoms: C_4  and  N_6
REMARK    6  A    between atoms: C_11  and  C_12
REMARK    7  A    between atoms: C_16  and  C_18
REMARK    8  A    between atoms: N_27  and  C_28
REMARK    9  A    between atoms: C_31  and  O_32
REMARK                            x       y       z     vdW  Elec       q    Type
REMARK                         _______ _______ _______ _____ _____    ______ ____
ROOT
ATOM      1  N   UNL     1       3.214   3.569  20.725  0.00  0.00    +0.000 N 
ATOM      2  C   UNL     1       2.767   4.791  20.290  0.00  0.00    +0.000 A 
ATOM      3  N   UNL     1       1.761   5.318  21.013  0.00  0.00    +0.000 NA
ATOM      4  C   UNL     1       1.252   6.521  20.660  0.00  0.00    +0.000 A 
ATOM      5  C   UNL     1       1.811   7.230  19.602  0.00  0.00    +0.000 A 
ATOM      6  C   UNL     1       1.584   8.491  18.956  0.00  0.00    +0.000 A 
ATOM      7  C   UNL     1       2.559   8.590  17.978  0.00  0.00    +0.000 A 
ATOM      8  N   UNL     1       3.334   7.457  17.994  0.00  0.00    +0.000 N 
ATOM      9  C   UNL     1       2.867   6.600  18.959  0.00  0.00    +0.000 A 
ATOM     10  N   UNL     1       3.356   5.381  19.240  0.00  0.00    +0.000 NA
ATOM     11  H   UNL     1       2.827   3.279  21.610  0.00  0.00    +0.000 HD
ENDROOT
BRANCH   6  12
ATOM     12  C   UNL     1       0.500   9.492  19.284  0.00  0.00    +0.000 C 
ATOM     13  C   UNL     1       0.467  10.688  18.331  0.00  0.00    +0.000 C 
ATOM     14  C   UNL     1       1.571  11.704  18.595  0.00  0.00    +0.000 C 
ATOM     15  N   UNL     1       1.694  12.084  20.003  0.00  0.00    +0.000 N 
ATOM     16  C   UNL     1       2.281  13.296  20.409  0.00  0.00    +0.000 C 
ATOM     17  O   UNL     1       2.384  13.620  21.594  0.00  0.00    +0.000 OA
ATOM     18  C   UNL     1       1.628  11.017  21.001  0.00  0.00    +0.000 C 
ATOM     19  C   UNL     1       0.529   9.993  20.732  0.00  0.00    +0.000 C 
BRANCH  16  20
ATOM     20  C   UNL     1       2.793  14.260  19.383  0.00  0.00    +0.000 A 
ATOM     21  C   UNL     1       1.975  15.298  18.987  0.00  0.00    +0.000 A 
ATOM     22  C   UNL     1       2.507  16.124  18.024  0.00  0.00    +0.000 A 
ATOM     23  N   UNL     1       3.732  15.961  17.503  0.00  0.00    +0.000 NA
ATOM     24  C   UNL     1       4.453  14.941  17.982  0.00  0.00    +0.000 A 
ATOM     25  N   UNL     1       4.047  14.067  18.917  0.00  0.00    +0.000 NA
ENDBRANCH  16  20
ENDBRANCH   6  12
BRANCH   8  26
ATOM     26  C   UNL     1       4.487   7.253  17.120  0.00  0.00    +0.000 C 
ATOM     27  C   UNL     1       5.783   7.025  17.916  0.00  0.00    +0.000 C 
ATOM     28  C   UNL     1       6.976   6.752  17.002  0.00  0.00    +0.000 C 
ATOM     29  C   UNL     1       6.676   5.614  16.028  0.00  0.00    +0.000 C 
ATOM     30  C   UNL     1       5.448   5.935  15.179  0.00  0.00    +0.000 C 
ATOM     31  C   UNL     1       4.224   6.179  16.055  0.00  0.00    +0.000 C 
BRANCH  29  32
ATOM     32  O   UNL     1       7.799   5.391  15.187  0.00  0.00    +0.000 OA
ATOM     33  H   UNL     1       7.488   5.004  14.352  0.00  0.00    +0.000 HD
ENDBRANCH  29  32
ENDBRANCH   8  26
BRANCH   1  34
ATOM     34  C   UNL     1       3.928   2.650  19.866  0.00  0.00    +0.000 C 
ATOM     35  C   UNL     1       4.810   1.750  20.732  0.00  0.00    +0.000 C 
BRANCH  34  36
ATOM     36  C   UNL     1       2.940   1.773  19.063  0.00  0.00    +0.000 C 
BRANCH  36  38
ATOM     37  C   UNL     1       4.066   2.871  17.091  0.00  0.00    +0.000 C 
ATOM     38  C   UNL     1       2.808   2.167  17.588  0.00  0.00    +0.000 C 
ENDBRANCH  36  38
ENDBRANCH  34  36
ENDBRANCH   1  34
TORSDOF 7
ENDMDL
MODEL 3
REMARK VINA RESULT:      -6.6      5.181      7.341
REMARK  Name = 
REMARK  9 active torsions:
REMARK  status: ('A' for Active; 'I' for Inactive)
REMARK    1  A    between atoms: C_1  and  C_2
REMARK    2  A    between atoms: C_2  and  C_3
REMARK    3  A    between atoms: C_3  and  C_4
REMARK    4  A    between atoms: C_4  and  C_5
REMARK    5  A    between atoms: C_4  and  N_6
REMARK    6  A    between atoms: C_11  and  C_12
REMARK    7  A    between atoms: C_16  and  C_18
REMARK    8  A    between atoms: N_27  and  C_28
REMARK    9  A    between atoms: C_31  and  O_32
REMARK                            x       y       z     vdW  Elec       q    Type
REMARK                         _______ _______ _______ _____ _____    ______ ____
ROOT
ATOM      1  N   UNL     1       3.298   3.481  20.699  0.00  0.00    +0.000 N 
ATOM      2  C   UNL     1       2.839   4.705  20.282  0.00  0.00    +0.000 A 
ATOM      3  N   UNL     1       1.838   5.218  21.021  0.00  0.00    +0.000 NA
ATOM      4  C   UNL     1       1.317   6.422  20.688  0.00  0.00    +0.000 A 
ATOM      5  C   UNL     1       1.860   7.145  19.630  0.00  0.00    +0.000 A 
ATOM      6  C   UNL     1       1.618   8.411  19.000  0.00  0.00    +0.000 A 
ATOM      7  C   UNL     1       2.580   8.526  18.012  0.00  0.00    +0.000 A 
ATOM      8  N   UNL     1       3.363   7.398  18.008  0.00  0.00    +0.000 N 
ATOM      9  C   UNL     1       2.912   6.529  18.969  0.00  0.00    +0.000 A 
ATOM     10  N   UNL     1       3.411   5.309  19.231  0.00  0.00    +0.000 NA
ATOM     11  H   UNL     1       2.923   3.179  21.585  0.00  0.00    +0.000 HD
ENDROOT
BRANCH   6  12
ATOM     12  C   UNL     1       0.531   9.402  19.352  0.00  0.00    +0.000 C 
ATOM     13  C   UNL     1       0.454  10.587  18.387  0.00  0.00    +0.000 C 
ATOM     14  C   UNL     1       1.552  11.620  18.607  0.00  0.00    +0.000 C 
ATOM     15  N   UNL     1       1.713  12.016  20.007  0.00  0.00    +0.000 N 
ATOM     16  C   UNL     1       2.297  13.239  20.382  0.00  0.00    +0.000 C 
ATOM     17  O   UNL     1       2.433  13.577  21.560  0.00  0.00    +0.000 OA
ATOM     18  C   UNL     1       1.692  10.959  21.018  0.00  0.00    +0.000 C 
ATOM     19  C   UNL     1       0.599   9.918  20.793  0.00  0.00    +0.000 C 
BRANCH  16  20
ATOM     20  C   UNL     1       2.764  14.199  19.331  0.00  0.00    +0.000 A 
ATOM     21  C   UNL     1       4.014  14.014  18.777  0.00  0.00    +0.000 A 
ATOM     22  C   UNL     1       4.379  14.951  17.838  0.00  0.00    +0.000 A 
ATOM     23  N   UNL     1       3.592  15.970  17.463  0.00  0.00    +0.000 NA
ATOM     24  C   UNL     1       2.387  16.037  18.041  0.00  0.00    +0.000 A 
ATOM     25  N   UNL     1       1.916  15.187  18.968  0.00  0.00    +0.000 NA
ENDBRANCH  16  20
ENDBRANCH   6  12
BRANCH   8  26
ATOM     26  C   UNL     1       4.507   7.211  17.118  0.00  0.00    +0.000 C 
ATOM     27  C   UNL     1       5.833   7.122  17.892  0.00  0.00    +0.000 C 
ATOM     28  C   UNL     1       7.020   6.865  16.966  0.00  0.00    +0.000 C 
ATOM     29  C   UNL     1       6.774   5.647  16.079  0.00  0.00    +0.000 C 
ATOM     30  C   UNL     1       5.509   5.828  15.244  0.00  0.00    +0.000 C 
ATOM     31  C   UNL     1       4.291   6.051  16.134  0.00  0.00    +0.000 C 
BRANCH  29  32
ATOM     32  O   UNL     1       7.891   5.440  15.224  0.00  0.00    +0.000 OA
ATOM     33  H   UNL     1       8.504   4.825  15.659  0.00  0.00    +0.000 HD
ENDBRANCH  29  32
ENDBRANCH   8  26
BRANCH   1  34
ATOM     34  C   UNL     1       4.008   2.576  19.821  0.00  0.00    +0.000 C 
ATOM     35  C   UNL     1       4.986   1.748  20.656  0.00  0.00    +0.000 C 
BRANCH  34  36
ATOM     36  C   UNL     1       3.022   1.626  19.103  0.00  0.00    +0.000 C 
BRANCH  36  38
ATOM     37  C   UNL     1       0.651   2.382  18.692  0.00  0.00    +0.000 C 
ATOM     38  C   UNL     1       2.068   2.329  18.132  0.00  0.00    +0.000 C 
ENDBRANCH  36  38
ENDBRANCH  34  36
ENDBRANCH   1  34
TORSDOF 7
ENDMDL
MODEL 4
REMARK VINA RESULT:      -6.6      7.894     11.838
REMARK  Name = 
REMARK  9 active torsions:
REMARK  status: ('A' for Active; 'I' for Inactive)
REMARK    1  A    between atoms: C_1  and  C_2
REMARK    2  A    between atoms: C_2  and  C_3
REMARK    3  A    between atoms: C_3  and  C_4
REMARK    4  A    between atoms: C_4  and  C_5
REMARK    5  A    between atoms: C_4  and  N_6
REMARK    6  A    between atoms: C_11  and  C_12
REMARK    7  A    between atoms: C_16  and  C_18
REMARK    8  A    between atoms: N_27  and  C_28
REMARK    9  A    between atoms: C_31  and  O_32
REMARK                            x       y       z     vdW  Elec       q    Type
REMARK                         _______ _______ _______ _____ _____    ______ ____
ROOT
ATOM      1  N   UNL     1      -0.028  14.135  21.368  0.00  0.00    +0.000 N 
ATOM      2  C   UNL     1       1.250  14.395  20.940  0.00  0.00    +0.000 A 
ATOM      3  N   UNL     1       1.344  14.841  19.674  0.00  0.00    +0.000 NA
ATOM      4  C   UNL     1       2.564  15.124  19.160  0.00  0.00    +0.000 A 
ATOM      5  C   UNL     1       3.698  15.014  19.960  0.00  0.00    +0.000 A 
ATOM      6  C   UNL     1       5.107  15.230  19.806  0.00  0.00    +0.000 A 
ATOM      7  C   UNL     1       5.663  14.967  21.046  0.00  0.00    +0.000 A 
ATOM      8  N   UNL     1       4.671  14.590  21.917  0.00  0.00    +0.000 N 
ATOM      9  C   UNL     1       3.468  14.580  21.257  0.00  0.00    +0.000 A 
ATOM     10  N   UNL     1       2.281  14.230  21.780  0.00  0.00    +0.000 NA
ATOM     11  H   UNL     1      -0.747  14.439  20.730  0.00  0.00    +0.000 HD
ENDROOT
BRANCH   6  12
ATOM     12  C   UNL     1       5.824  15.655  18.544  0.00  0.00    +0.000 C 
ATOM     13  C   UNL     1       6.602  14.521  17.875  0.00  0.00    +0.000 C 
ATOM     14  C   UNL     1       7.912  14.187  18.578  0.00  0.00    +0.000 C 
ATOM     15  N   UNL     1       8.732  15.361  18.877  0.00  0.00    +0.000 N 
ATOM     16  C   UNL     1      10.122  15.279  19.076  0.00  0.00    +0.000 C 
ATOM     17  O   UNL     1      10.818  16.266  19.326  0.00  0.00    +0.000 OA
ATOM     18  C   UNL     1       8.058  16.540  19.422  0.00  0.00    +0.000 C 
ATOM     19  C   UNL     1       6.741  16.869  18.725  0.00  0.00    +0.000 C 
BRANCH  16  20
ATOM     20  C   UNL     1      10.817  13.956  18.965  0.00  0.00    +0.000 A 
ATOM     21  C   UNL     1      11.126  13.274  20.124  0.00  0.00    +0.000 A 
ATOM     22  C   UNL     1      11.785  12.081  19.939  0.00  0.00    +0.000 A 
ATOM     23  N   UNL     1      12.103  11.589  18.732  0.00  0.00    +0.000 NA
ATOM     24  C   UNL     1      11.727  12.316  17.674  0.00  0.00    +0.000 A 
ATOM     25  N   UNL     1      11.082  13.494  17.723  0.00  0.00    +0.000 NA
ENDBRANCH  16  20
ENDBRANCH   6  12
BRANCH   8  26
ATOM     26  C   UNL     1       4.905  14.286  23.327  0.00  0.00    +0.000 C 
ATOM     27  C   UNL     1       5.941  13.165  23.512  0.00  0.00    +0.000 C 
ATOM     28  C   UNL     1       6.229  12.889  24.986  0.00  0.00    +0.000 C 
ATOM     29  C   UNL     1       6.612  14.171  25.722  0.00  0.00    +0.000 C 
ATOM     30  C   UNL     1       5.504  15.215  25.608  0.00  0.00    +0.000 C 
ATOM     31  C   UNL     1       5.210  15.546  24.149  0.00  0.00    +0.000 C 
BRANCH  29  32
ATOM     32  O   UNL     1       6.864  13.884  27.091  0.00  0.00    +0.000 OA
ATOM     33  H   UNL     1       7.818  13.742  27.207  0.00  0.00    +0.000 HD
ENDBRANCH  29  32
ENDBRANCH   8  26
BRANCH   1  34
ATOM     34  C   UNL     1      -0.313  13.246  22.473  0.00  0.00    +0.000 C 
ATOM     35  C   UNL     1      -1.403  13.875  23.342  0.00  0.00    +0.000 C 
BRANCH  34  36
ATOM     36  C   UNL     1      -0.803  11.874  21.958  0.00  0.00    +0.000 C 
BRANCH  36  38
ATOM     37  C   UNL     1      -0.222   9.737  23.166  0.00  0.00    +0.000 C 
ATOM     38  C   UNL     1      -1.207  10.896  23.066  0.00  0.00    +0.000 C 
ENDBRANCH  36  38
ENDBRANCH  34  36
ENDBRANCH   1  34
TORSDOF 7
ENDMDL
MODEL 5
REMARK VINA RESULT:      -6.5      3.804      6.954
REMARK  Name = 
REMARK  9 active torsions:
REMARK  status: ('A' for Active; 'I' for Inactive)
REMARK    1  A    between atoms: C_1  and  C_2
REMARK    2  A    between atoms: C_2  and  C_3
REMARK    3  A    between atoms: C_3  and  C_4
REMARK    4  A    between atoms: C_4  and  C_5
REMARK    5  A    between atoms: C_4  and  N_6
REMARK    6  A    between atoms: C_11  and  C_12
REMARK    7  A    between atoms: C_16  and  C_18
REMARK    8  A    between atoms: N_27  and  C_28
REMARK    9  A    between atoms: C_31  and  O_32
REMARK                            x       y       z     vdW  Elec       q    Type
REMARK                         _______ _______ _______ _____ _____    ______ ____
ROOT
ATOM      1  N   UNL     1       4.505   7.296  16.095  0.00  0.00    +0.000 N 
ATOM      2  C   UNL     1       3.752   7.409  17.236  0.00  0.00    +0.000 A 
ATOM      3  N   UNL     1       3.225   8.629  17.450  0.00  0.00    +0.000 NA
ATOM      4  C   UNL     1       2.466   8.840  18.551  0.00  0.00    +0.000 A 
ATOM      5  C   UNL     1       2.185   7.785  19.413  0.00  0.00    +0.000 A 
ATOM      6  C   UNL     1       1.437   7.599  20.623  0.00  0.00    +0.000 A 
ATOM      7  C   UNL     1       1.545   6.252  20.926  0.00  0.00    +0.000 A 
ATOM      8  N   UNL     1       2.326   5.636  19.978  0.00  0.00    +0.000 N 
ATOM      9  C   UNL     1       2.753   6.568  19.067  0.00  0.00    +0.000 A 
ATOM     10  N   UNL     1       3.563   6.338  18.019  0.00  0.00    +0.000 NA
ATOM     11  H   UNL     1       4.460   8.101  15.489  0.00  0.00    +0.000 HD
ENDROOT
BRANCH   6  12
ATOM     12  C   UNL     1       0.693   8.662  21.399  0.00  0.00    +0.000 C 
ATOM     13  C   UNL     1      -0.804   8.706  21.087  0.00  0.00    +0.000 C 
ATOM     14  C   UNL     1      -1.127   9.367  19.753  0.00  0.00    +0.000 C 
ATOM     15  N   UNL     1      -0.451  10.651  19.556  0.00  0.00    +0.000 N 
ATOM     16  C   UNL     1      -0.934  11.628  18.668  0.00  0.00    +0.000 C 
ATOM     17  O   UNL     1      -0.370  12.711  18.501  0.00  0.00    +0.000 OA
ATOM     18  C   UNL     1       0.960  10.738  19.928  0.00  0.00    +0.000 C 
ATOM     19  C   UNL     1       1.287  10.068  21.259  0.00  0.00    +0.000 C 
BRANCH  16  20
ATOM     20  C   UNL     1      -2.194  11.381  17.895  0.00  0.00    +0.000 A 
ATOM     21  C   UNL     1      -2.106  10.738  16.678  0.00  0.00    +0.000 A 
ATOM     22  C   UNL     1      -3.302  10.570  16.020  0.00  0.00    +0.000 A 
ATOM     23  N   UNL     1      -4.481  10.982  16.509  0.00  0.00    +0.000 NA
ATOM     24  C   UNL     1      -4.456  11.565  17.713  0.00  0.00    +0.000 A 
ATOM     25  N   UNL     1      -3.357  11.787  18.453  0.00  0.00    +0.000 NA
ENDBRANCH  16  20
ENDBRANCH   6  12
BRANCH   8  26
ATOM     26  C   UNL     1       2.606   4.202  19.969  0.00  0.00    +0.000 C 
ATOM     27  C   UNL     1       1.810   3.465  18.879  0.00  0.00    +0.000 C 
ATOM     28  C   UNL     1       2.149   1.977  18.830  0.00  0.00    +0.000 C 
ATOM     29  C   UNL     1       3.655   1.757  18.708  0.00  0.00    +0.000 C 
ATOM     30  C   UNL     1       4.395   2.409  19.874  0.00  0.00    +0.000 C 
ATOM     31  C   UNL     1       4.112   3.906  19.936  0.00  0.00    +0.000 C 
BRANCH  29  32
ATOM     32  O   UNL     1       3.938   0.365  18.675  0.00  0.00    +0.000 OA
ATOM     33  H   UNL     1       3.153  -0.102  18.347  0.00  0.00    +0.000 HD
ENDBRANCH  29  32
ENDBRANCH   8  26
BRANCH   1  34
ATOM     34  C   UNL     1       5.503   6.263  15.921  0.00  0.00    +0.000 C 
ATOM     35  C   UNL     1       6.587   6.442  16.985  0.00  0.00    +0.000 C 
BRANCH  34  36
ATOM     36  C   UNL     1       4.871   4.861  16.071  0.00  0.00    +0.000 C 
BRANCH  36  38
ATOM     37  C   UNL     1       6.169   3.940  14.115  0.00  0.00    +0.000 C 
ATOM     38  C   UNL     1       5.755   3.717  15.565  0.00  0.00    +0.000 C 
ENDBRANCH  36  38
ENDBRANCH  34  36
ENDBRANCH   1  34
TORSDOF 7
ENDMDL
MODEL 6
REMARK VINA RESULT:      -6.4      3.839      7.009
REMARK  Name = 
REMARK  9 active torsions:
REMARK  status: ('A' for Active; 'I' for Inactive)
REMARK    1  A    between atoms: C_1  and  C_2
REMARK    2  A    between atoms: C_2  and  C_3
REMARK    3  A    between atoms: C_3  and  C_4
REMARK    4  A    between atoms: C_4  and  C_5
REMARK    5  A    between atoms: C_4  and  N_6
REMARK    6  A    between atoms: C_11  and  C_12
REMARK    7  A    between atoms: C_16  and  C_18
REMARK    8  A    between atoms: N_27  and  C_28
REMARK    9  A    between atoms: C_31  and  O_32
REMARK                            x       y       z     vdW  Elec       q    Type
REMARK                         _______ _______ _______ _____ _____    ______ ____
ROOT
ATOM      1  N   UNL     1       4.602   7.123  16.189  0.00  0.00    +0.000 N 
ATOM      2  C   UNL     1       3.822   7.295  17.305  0.00  0.00    +0.000 A 
ATOM      3  N   UNL     1       3.352   8.543  17.482  0.00  0.00    +0.000 NA
ATOM      4  C   UNL     1       2.574   8.812  18.557  0.00  0.00    +0.000 A 
ATOM      5  C   UNL     1       2.215   7.789  19.429  0.00  0.00    +0.000 A 
ATOM      6  C   UNL     1       1.425   7.663  20.619  0.00  0.00    +0.000 A 
ATOM      7  C   UNL     1       1.456   6.318  20.948  0.00  0.00    +0.000 A 
ATOM      8  N   UNL     1       2.231   5.647  20.035  0.00  0.00    +0.000 N 
ATOM      9  C   UNL     1       2.731   6.539  19.120  0.00  0.00    +0.000 A 
ATOM     10  N   UNL     1       3.557   6.249  18.100  0.00  0.00    +0.000 NA
ATOM     11  H   UNL     1       4.614   7.918  15.568  0.00  0.00    +0.000 HD
ENDROOT
BRANCH   6  12
ATOM     12  C   UNL     1       0.714   8.777  21.354  0.00  0.00    +0.000 C 
ATOM     13  C   UNL     1      -0.787   8.837  21.062  0.00  0.00    +0.000 C 
ATOM     14  C   UNL     1      -1.116   9.441  19.703  0.00  0.00    +0.000 C 
ATOM     15  N   UNL     1      -0.418  10.700  19.437  0.00  0.00    +0.000 N 
ATOM     16  C   UNL     1      -0.894  11.645  18.510  0.00  0.00    +0.000 C 
ATOM     17  O   UNL     1      -0.311  12.707  18.285  0.00  0.00    +0.000 OA
ATOM     18  C   UNL     1       1.001  10.776  19.784  0.00  0.00    +0.000 C 
ATOM     19  C   UNL     1       1.333  10.162  21.141  0.00  0.00    +0.000 C 
BRANCH  16  20
ATOM     20  C   UNL     1      -2.170  11.388  17.767  0.00  0.00    +0.000 A 
ATOM     21  C   UNL     1      -2.106  10.749  16.547  0.00  0.00    +0.000 A 
ATOM     22  C   UNL     1      -3.315  10.572  15.917  0.00  0.00    +0.000 A 
ATOM     23  N   UNL     1      -4.486  10.971  16.437  0.00  0.00    +0.000 NA
ATOM     24  C   UNL     1      -4.438  11.551  17.641  0.00  0.00    +0.000 A 
ATOM     25  N   UNL     1      -3.323  11.781  18.354  0.00  0.00    +0.000 NA
ENDBRANCH  16  20
ENDBRANCH   6  12
BRANCH   8  26
ATOM     26  C   UNL     1       2.439   4.200  20.058  0.00  0.00    +0.000 C 
ATOM     27  C   UNL     1       1.615   3.481  18.976  0.00  0.00    +0.000 C 
ATOM     28  C   UNL     1       1.879   1.977  18.962  0.00  0.00    +0.000 C 
ATOM     29  C   UNL     1       3.374   1.679  18.858  0.00  0.00    +0.000 C 
ATOM     30  C   UNL     1       4.136   2.318  20.017  0.00  0.00    +0.000 C 
ATOM     31  C   UNL     1       3.929   3.828  20.045  0.00  0.00    +0.000 C 
BRANCH  29  32
ATOM     32  O   UNL     1       3.587   0.274  18.857  0.00  0.00    +0.000 OA
ATOM     33  H   UNL     1       3.866   0.003  19.747  0.00  0.00    +0.000 HD
ENDBRANCH  29  32
ENDBRANCH   8  26
BRANCH   1  34
ATOM     34  C   UNL     1       5.551   6.039  16.062  0.00  0.00    +0.000 C 
ATOM     35  C   UNL     1       5.412   5.425  14.668  0.00  0.00    +0.000 C 
BRANCH  34  36
ATOM     36  C   UNL     1       6.997   6.553  16.248  0.00  0.00    +0.000 C 
BRANCH  36  38
ATOM     37  C   UNL     1       7.872   8.384  17.745  0.00  0.00    +0.000 C 
ATOM     38  C   UNL     1       7.337   6.958  17.686  0.00  0.00    +0.000 C 
ENDBRANCH  36  38
ENDBRANCH  34  36
ENDBRANCH   1  34
TORSDOF 7
ENDMDL
MODEL 7
REMARK VINA RESULT:      -6.4      7.624      9.980
REMARK  Name = 
REMARK  9 active torsions:
REMARK  status: ('A' for Active; 'I' for Inactive)
REMARK    1  A    between atoms: C_1  and  C_2
REMARK    2  A    between atoms: C_2  and  C_3
REMARK    3  A    between atoms: C_3  and  C_4
REMARK    4  A    between atoms: C_4  and  C_5
REMARK    5  A    between atoms: C_4  and  N_6
REMARK    6  A    between atoms: C_11  and  C_12
REMARK    7  A    between atoms: C_16  and  C_18
REMARK    8  A    between atoms: N_27  and  C_28
REMARK    9  A    between atoms: C_31  and  O_32
REMARK                            x       y       z     vdW  Elec       q    Type
REMARK                         _______ _______ _______ _____ _____    ______ ____
ROOT
ATOM      1  N   UNL     1       9.940  13.825  18.937  0.00  0.00    +0.000 N 
ATOM      2  C   UNL     1       8.678  14.162  19.360  0.00  0.00    +0.000 A 
ATOM      3  N   UNL     1       7.829  14.522  18.380  0.00  0.00    +0.000 NA
ATOM      4  C   UNL     1       6.560  14.872  18.698  0.00  0.00    +0.000 A 
ATOM      5  C   UNL     1       6.128  14.795  20.019  0.00  0.00    +0.000 A 
ATOM      6  C   UNL     1       4.911  15.047  20.733  0.00  0.00    +0.000 A 
ATOM      7  C   UNL     1       5.174  14.712  22.051  0.00  0.00    +0.000 A 
ATOM      8  N   UNL     1       6.478  14.296  22.160  0.00  0.00    +0.000 N 
ATOM      9  C   UNL     1       7.085  14.375  20.932  0.00  0.00    +0.000 A 
ATOM     10  N   UNL     1       8.368  14.082  20.661  0.00  0.00    +0.000 NA
ATOM     11  H   UNL     1      10.036  13.759  17.935  0.00  0.00    +0.000 HD
ENDROOT
BRANCH   6  12
ATOM     12  C   UNL     1       3.616  15.572  20.156  0.00  0.00    +0.000 C 
ATOM     13  C   UNL     1       2.433  15.469  21.121  0.00  0.00    +0.000 C 
ATOM     14  C   UNL     1       1.875  14.058  21.247  0.00  0.00    +0.000 C 
ATOM     15  N   UNL     1       1.636  13.404  19.959  0.00  0.00    +0.000 N 
ATOM     16  C   UNL     1       0.725  12.344  19.809  0.00  0.00    +0.000 C 
ATOM     17  O   UNL     1       0.519  11.792  18.726  0.00  0.00    +0.000 OA
ATOM     18  C   UNL     1       2.667  13.538  18.929  0.00  0.00    +0.000 C 
ATOM     19  C   UNL     1       3.234  14.949  18.809  0.00  0.00    +0.000 C 
BRANCH  16  20
ATOM     20  C   UNL     1      -0.058  11.857  20.990  0.00  0.00    +0.000 A 
ATOM     21  C   UNL     1      -1.265  12.458  21.276  0.00  0.00    +0.000 A 
ATOM     22  C   UNL     1      -1.910  11.972  22.389  0.00  0.00    +0.000 A 
ATOM     23  N   UNL     1      -1.427  10.978  23.150  0.00  0.00    +0.000 NA
ATOM     24  C   UNL     1      -0.263  10.443  22.763  0.00  0.00    +0.000 A 
ATOM     25  N   UNL     1       0.461  10.830  21.700  0.00  0.00    +0.000 NA
ENDBRANCH  16  20
ENDBRANCH   6  12
BRANCH   8  26
ATOM     26  C   UNL     1       7.075  13.822  23.407  0.00  0.00    +0.000 C 
ATOM     27  C   UNL     1       6.328  14.352  24.643  0.00  0.00    +0.000 C 
ATOM     28  C   UNL     1       6.914  13.808  25.943  0.00  0.00    +0.000 C 
ATOM     29  C   UNL     1       6.998  12.284  25.916  0.00  0.00    +0.000 C 
ATOM     30  C   UNL     1       7.845  11.807  24.738  0.00  0.00    +0.000 C 
ATOM     31  C   UNL     1       7.271  12.299  23.415  0.00  0.00    +0.000 C 
BRANCH  29  32
ATOM     32  O   UNL     1       7.556  11.810  27.134  0.00  0.00    +0.000 OA
ATOM     33  H   UNL     1       8.035  12.540  27.559  0.00  0.00    +0.000 HD
ENDBRANCH  29  32
ENDBRANCH   8  26
BRANCH   1  34
ATOM     34  C   UNL     1      11.090  13.862  19.814  0.00  0.00    +0.000 C 
ATOM     35  C   UNL     1      11.555  12.429  20.075  0.00  0.00    +0.000 C 
BRANCH  34  36
ATOM     36  C   UNL     1      12.245  14.661  19.168  0.00  0.00    +0.000 C 
BRANCH  36  38
ATOM     37  C   UNL     1      11.944  16.733  17.761  0.00  0.00    +0.000 C 
ATOM     38  C   UNL     1      11.924  15.209  17.773  0.00  0.00    +0.000 C 
ENDBRANCH  36  38
ENDBRANCH  34  36
ENDBRANCH   1  34
TORSDOF 7
ENDMDL
MODEL 8
REMARK VINA RESULT:      -6.4      5.589      8.426
REMARK  Name = 
REMARK  9 active torsions:
REMARK  status: ('A' for Active; 'I' for Inactive)
REMARK    1  A    between atoms: C_1  and  C_2
REMARK    2  A    between atoms: C_2  and  C_3
REMARK    3  A    between atoms: C_3  and  C_4
REMARK    4  A    between atoms: C_4  and  C_5
REMARK    5  A    between atoms: C_4  and  N_6
REMARK    6  A    between atoms: C_11  and  C_12
REMARK    7  A    between atoms: C_16  and  C_18
REMARK    8  A    between atoms: N_27  and  C_28
REMARK    9  A    between atoms: C_31  and  O_32
REMARK                            x       y       z     vdW  Elec       q    Type
REMARK                         _______ _______ _______ _____ _____    ______ ____
ROOT
ATOM      1  N   UNL     1       1.075   9.462  19.830  0.00  0.00    +0.000 N 
ATOM      2  C   UNL     1       1.138  10.826  19.703  0.00  0.00    +0.000 A 
ATOM      3  N   UNL     1       1.660  11.265  18.542  0.00  0.00    +0.000 NA
ATOM      4  C   UNL     1       1.764  12.596  18.324  0.00  0.00    +0.000 A 
ATOM      5  C   UNL     1       1.275  13.496  19.266  0.00  0.00    +0.000 A 
ATOM      6  C   UNL     1       1.181  14.921  19.395  0.00  0.00    +0.000 A 
ATOM      7  C   UNL     1       0.524  15.145  20.593  0.00  0.00    +0.000 A 
ATOM      8  N   UNL     1       0.241  13.939  21.187  0.00  0.00    +0.000 N 
ATOM      9  C   UNL     1       0.726  12.922  20.403  0.00  0.00    +0.000 A 
ATOM     10  N   UNL     1       0.664  11.610  20.682  0.00  0.00    +0.000 NA
ATOM     11  H   UNL     1       1.302   8.957  18.986  0.00  0.00    +0.000 HD
ENDROOT
BRANCH   6  12
ATOM     12  C   UNL     1       1.699  15.954  18.420  0.00  0.00    +0.000 C 
ATOM     13  C   UNL     1       3.003  15.543  17.734  0.00  0.00    +0.000 C 
ATOM     14  C   UNL     1       4.228  15.684  18.627  0.00  0.00    +0.000 C 
ATOM     15  N   UNL     1       4.310  16.976  19.311  0.00  0.00    +0.000 N 
ATOM     16  C   UNL     1       5.525  17.503  19.785  0.00  0.00    +0.000 C 
ATOM     17  O   UNL     1       5.599  18.591  20.359  0.00  0.00    +0.000 OA
ATOM     18  C   UNL     1       3.085  17.506  19.908  0.00  0.00    +0.000 C 
ATOM     19  C   UNL     1       1.854  17.356  19.018  0.00  0.00    +0.000 C 
BRANCH  16  20
ATOM     20  C   UNL     1       6.801  16.743  19.581  0.00  0.00    +0.000 A 
ATOM     21  C   UNL     1       7.645  17.132  18.562  0.00  0.00    +0.000 A 
ATOM     22  C   UNL     1       8.781  16.370  18.424  0.00  0.00    +0.000 A 
ATOM     23  N   UNL     1       9.076  15.328  19.217  0.00  0.00    +0.000 NA
ATOM     24  C   UNL     1       8.204  15.058  20.195  0.00  0.00    +0.000 A 
ATOM     25  N   UNL     1       7.062  15.725  20.431  0.00  0.00    +0.000 NA
ENDBRANCH  16  20
ENDBRANCH   6  12
BRANCH   8  26
ATOM     26  C   UNL     1      -0.491  13.809  22.445  0.00  0.00    +0.000 C 
ATOM     27  C   UNL     1      -0.509  15.123  23.242  0.00  0.00    +0.000 C 
ATOM     28  C   UNL     1      -1.326  15.003  24.527  0.00  0.00    +0.000 C 
ATOM     29  C   UNL     1      -2.728  14.470  24.241  0.00  0.00    +0.000 C 
ATOM     30  C   UNL     1      -2.662  13.110  23.551  0.00  0.00    +0.000 C 
ATOM     31  C   UNL     1      -1.885  13.194  22.243  0.00  0.00    +0.000 C 
BRANCH  29  32
ATOM     32  O   UNL     1      -3.459  14.360  25.455  0.00  0.00    +0.000 OA
ATOM     33  H   UNL     1      -4.332  14.767  25.329  0.00  0.00    +0.000 HD
ENDBRANCH  29  32
ENDBRANCH   8  26
BRANCH   1  34
ATOM     34  C   UNL     1       0.994   8.803  21.116  0.00  0.00    +0.000 C 
ATOM     35  C   UNL     1      -0.478   8.557  21.450  0.00  0.00    +0.000 C 
BRANCH  34  36
ATOM     36  C   UNL     1       1.740   7.449  21.084  0.00  0.00    +0.000 C 
BRANCH  36  38
ATOM     37  C   UNL     1       2.267   5.534  19.530  0.00  0.00    +0.000 C 
ATOM     38  C   UNL     1       2.254   7.049  19.697  0.00  0.00    +0.000 C 
ENDBRANCH  36  38
ENDBRANCH  34  36
ENDBRANCH   1  34
TORSDOF 7
ENDMDL
MODEL 9
REMARK VINA RESULT:      -6.4      7.454      9.752
REMARK  Name = 
REMARK  9 active torsions:
REMARK  status: ('A' for Active; 'I' for Inactive)
REMARK    1  A    between atoms: C_1  and  C_2
REMARK    2  A    between atoms: C_2  and  C_3
REMARK    3  A    between atoms: C_3  and  C_4
REMARK    4  A    between atoms: C_4  and  C_5
REMARK    5  A    between atoms: C_4  and  N_6
REMARK    6  A    between atoms: C_11  and  C_12
REMARK    7  A    between atoms: C_16  and  C_18
REMARK    8  A    between atoms: N_27  and  C_28
REMARK    9  A    between atoms: C_31  and  O_32
REMARK                            x       y       z     vdW  Elec       q    Type
REMARK                         _______ _______ _______ _____ _____    ______ ____
ROOT
ATOM      1  N   UNL     1       9.277  13.862  17.486  0.00  0.00    +0.000 N 
ATOM      2  C   UNL     1       8.158  14.240  18.185  0.00  0.00    +0.000 A 
ATOM      3  N   UNL     1       7.093  14.555  17.425  0.00  0.00    +0.000 NA
ATOM      4  C   UNL     1       5.943  14.941  18.025  0.00  0.00    +0.000 A 
ATOM      5  C   UNL     1       5.850  14.946  19.413  0.00  0.00    +0.000 A 
ATOM      6  C   UNL     1       4.846  15.257  20.389  0.00  0.00    +0.000 A 
ATOM      7  C   UNL     1       5.426  14.994  21.618  0.00  0.00    +0.000 A 
ATOM      8  N   UNL     1       6.717  14.566  21.428  0.00  0.00    +0.000 N 
ATOM      9  C   UNL     1       7.002  14.566  20.086  0.00  0.00    +0.000 A 
ATOM     10  N   UNL     1       8.179  14.239  19.526  0.00  0.00    +0.000 NA
ATOM     11  H   UNL     1       9.123  13.737  16.497  0.00  0.00    +0.000 HD
ENDROOT
BRANCH   6  12
ATOM     12  C   UNL     1       3.448  15.766  20.118  0.00  0.00    +0.000 C 
ATOM     13  C   UNL     1       2.464  15.477  21.253  0.00  0.00    +0.000 C 
ATOM     14  C   UNL     1       1.994  14.029  21.293  0.00  0.00    +0.000 C 
ATOM     15  N   UNL     1       1.552  13.520  19.994  0.00  0.00    +0.000 N 
ATOM     16  C   UNL     1       0.671  12.431  19.871  0.00  0.00    +0.000 C 
ATOM     17  O   UNL     1       0.295  12.000  18.779  0.00  0.00    +0.000 OA
ATOM     18  C   UNL     1       2.374  13.837  18.827  0.00  0.00    +0.000 C 
ATOM     19  C   UNL     1       2.854  15.285  18.790  0.00  0.00    +0.000 C 
BRANCH  16  20
ATOM     20  C   UNL     1       0.134  11.760  21.099  0.00  0.00    +0.000 A 
ATOM     21  C   UNL     1       0.647  10.531  21.457  0.00  0.00    +0.000 A 
ATOM     22  C   UNL     1       0.086   9.970  22.581  0.00  0.00    +0.000 A 
ATOM     23  N   UNL     1      -0.881  10.560  23.299  0.00  0.00    +0.000 NA
ATOM     24  C   UNL     1      -1.283  11.766  22.882  0.00  0.00    +0.000 A 
ATOM     25  N   UNL     1      -0.815  12.416  21.804  0.00  0.00    +0.000 NA
ENDBRANCH  16  20
ENDBRANCH   6  12
BRANCH   8  26
ATOM     26  C   UNL     1       7.603  14.157  22.516  0.00  0.00    +0.000 C 
ATOM     27  C   UNL     1       7.542  15.128  23.707  0.00  0.00    +0.000 C 
ATOM     28  C   UNL     1       8.421  14.666  24.867  0.00  0.00    +0.000 C 
ATOM     29  C   UNL     1       8.100  13.227  25.265  0.00  0.00    +0.000 C 
ATOM     30  C   UNL     1       8.285  12.282  24.080  0.00  0.00    +0.000 C 
ATOM     31  C   UNL     1       7.395  12.687  22.910  0.00  0.00    +0.000 C 
BRANCH  29  32
ATOM     32  O   UNL     1       8.941  12.825  26.338  0.00  0.00    +0.000 OA
ATOM     33  H   UNL     1       8.601  11.991  26.701  0.00  0.00    +0.000 HD
ENDBRANCH  29  32
ENDBRANCH   8  26
BRANCH   1  34
ATOM     34  C   UNL     1      10.608  13.933  18.049  0.00  0.00    +0.000 C 
ATOM     35  C   UNL     1      10.600  14.935  19.204  0.00  0.00    +0.000 C 
BRANCH  34  36
ATOM     36  C   UNL     1      11.051  12.550  18.580  0.00  0.00    +0.000 C 
BRANCH  36  38
ATOM     37  C   UNL     1      10.200  11.617  20.764  0.00  0.00    +0.000 C 
ATOM     38  C   UNL     1      11.252  12.497  20.098  0.00  0.00    +0.000 C 
ENDBRANCH  36  38
ENDBRANCH  34  36
ENDBRANCH   1  34
TORSDOF 7
ENDMDL
