MODEL 1
REMARK VINA RESULT:      -5.9      0.000      0.000
REMARK  Name = 
REMARK  16 active torsions:
REMARK  status: ('A' for Active; 'I' for Inactive)
REMARK    1  A    between atoms: C_1  and  C_2
REMARK    2  A    between atoms: C_2  and  C_3
REMARK    3  A    between atoms: C_3  and  C_4
REMARK    4  A    between atoms: C_4  and  C_5
REMARK    5  A    between atoms: C_5  and  C_6
REMARK    6  A    between atoms: C_6  and  C_7
REMARK    7  A    between atoms: C_8  and  C_9
REMARK    8  A    between atoms: C_10  and  C_11
REMARK    9  A    between atoms: C_11  and  C_12
REMARK   10  A    between atoms: C_12  and  C_13
REMARK   11  A    between atoms: C_13  and  C_14
REMARK   12  A    between atoms: C_14  and  C_15
REMARK   13  A    between atoms: C_15  and  C_16
REMARK   14  A    between atoms: C_16  and  C_17
REMARK   15  A    between atoms: C_17  and  C_18
REMARK   16  A    between atoms: C_18  and  O_20
REMARK                            x       y       z     vdW  Elec       q    Type
REMARK                         _______ _______ _______ _____ _____    ______ ____
ROOT
ATOM      1  C   UNL     1       3.325   6.741  18.777  0.00  0.00    +0.000 C 
ENDROOT
BRANCH   1   3
ATOM      2  C   UNL     1       4.032   4.934  17.220  0.00  0.00    +0.000 C 
ATOM      3  C   UNL     1       3.992   6.238  17.533  0.00  0.00    +0.000 C 
BRANCH   2   5
ATOM      4  C   UNL     1       5.999   4.532  15.842  0.00  0.00    +0.000 C 
ATOM      5  C   UNL     1       4.670   4.450  16.029  0.00  0.00    +0.000 C 
BRANCH   4   6
ATOM      6  C   UNL     1       6.662   4.025  14.599  0.00  0.00    +0.000 C 
BRANCH   6   7
ATOM      7  C   UNL     1       5.645   3.788  13.488  0.00  0.00    +0.000 C 
BRANCH   7   8
ATOM      8  C   UNL     1       6.343   3.409  12.185  0.00  0.00    +0.000 C 
BRANCH   8   9
ATOM      9  C   UNL     1       5.615   2.256  11.502  0.00  0.00    +0.000 C 
BRANCH   9  11
ATOM     10  C   UNL     1       6.129  -0.191  11.328  0.00  0.00    +0.000 C 
ATOM     11  C   UNL     1       6.600   1.212  10.987  0.00  0.00    +0.000 C 
ENDBRANCH   9  11
ENDBRANCH   8   9
ENDBRANCH   7   8
ENDBRANCH   6   7
ENDBRANCH   4   6
ENDBRANCH   2   5
ENDBRANCH   1   3
BRANCH   1  12
ATOM     12  C   UNL     1       1.969   6.073  18.985  0.00  0.00    +0.000 C 
BRANCH  12  13
ATOM     13  C   UNL     1       1.718   5.810  20.468  0.00  0.00    +0.000 C 
BRANCH  13  14
ATOM     14  C   UNL     1       1.428   4.334  20.713  0.00  0.00    +0.000 C 
BRANCH  14  15
ATOM     15  C   UNL     1       1.244   3.585  19.393  0.00  0.00    +0.000 C 
BRANCH  15  16
ATOM     16  C   UNL     1       2.216   2.414  19.309  0.00  0.00    +0.000 C 
BRANCH  16  17
ATOM     17  C   UNL     1       3.175   2.365  20.496  0.00  0.00    +0.000 C 
BRANCH  17  18
ATOM     18  C   UNL     1       4.608   2.394  20.018  0.00  0.00    +0.000 C 
ATOM     19  O   UNL     1       5.187   3.381  19.590  0.00  0.00    +0.000 OA
BRANCH  18  20
ATOM     20  O   UNL     1       5.218   1.191  20.107  0.00  0.00    +0.000 OA
ATOM     21  H   UNL     1       5.387   0.897  21.023  0.00  0.00    +0.000 HD
ENDBRANCH  18  20
ENDBRANCH  17  18
ENDBRANCH  16  17
ENDBRANCH  15  16
ENDBRANCH  14  15
ENDBRANCH  13  14
ENDBRANCH  12  13
ENDBRANCH   1  12
TORSDOF 15
ENDMDL
MODEL 2
REMARK VINA RESULT:      -5.8      1.263      1.760
REMARK  Name = 
REMARK  16 active torsions:
REMARK  status: ('A' for Active; 'I' for Inactive)
REMARK    1  A    between atoms: C_1  and  C_2
REMARK    2  A    between atoms: C_2  and  C_3
REMARK    3  A    between atoms: C_3  and  C_4
REMARK    4  A    between atoms: C_4  and  C_5
REMARK    5  A    between atoms: C_5  and  C_6
REMARK    6  A    between atoms: C_6  and  C_7
REMARK    7  A    between atoms: C_8  and  C_9
REMARK    8  A    between atoms: C_10  and  C_11
REMARK    9  A    between atoms: C_11  and  C_12
REMARK   10  A    between atoms: C_12  and  C_13
REMARK   11  A    between atoms: C_13  and  C_14
REMARK   12  A    between atoms: C_14  and  C_15
REMARK   13  A    between atoms: C_15  and  C_16
REMARK   14  A    between atoms: C_16  and  C_17
REMARK   15  A    between atoms: C_17  and  C_18
REMARK   16  A    between atoms: C_18  and  O_20
REMARK                            x       y       z     vdW  Elec       q    Type
REMARK                         _______ _______ _______ _____ _____    ______ ____
ROOT
ATOM      1  C   UNL     1       2.373   6.175  19.091  0.00  0.00    +0.000 C 
ENDROOT
BRANCH   1   3
ATOM      2  C   UNL     1       3.651   5.026  17.292  0.00  0.00    +0.000 C 
ATOM      3  C   UNL     1       3.640   5.671  18.469  0.00  0.00    +0.000 C 
BRANCH   2   5
ATOM      4  C   UNL     1       5.651   5.328  15.937  0.00  0.00    +0.000 C 
ATOM      5  C   UNL     1       4.863   4.544  16.693  0.00  0.00    +0.000 C 
BRANCH   4   6
ATOM      6  C   UNL     1       6.916   4.824  15.314  0.00  0.00    +0.000 C 
BRANCH   6   7
ATOM      7  C   UNL     1       6.833   4.862  13.791  0.00  0.00    +0.000 C 
BRANCH   7   8
ATOM      8  C   UNL     1       6.203   3.581  13.250  0.00  0.00    +0.000 C 
BRANCH   8   9
ATOM      9  C   UNL     1       4.850   3.878  12.611  0.00  0.00    +0.000 C 
BRANCH   9  11
ATOM     10  C   UNL     1       3.516   3.519  10.520  0.00  0.00    +0.000 C 
ATOM     11  C   UNL     1       4.581   2.944  11.437  0.00  0.00    +0.000 C 
ENDBRANCH   9  11
ENDBRANCH   8   9
ENDBRANCH   7   8
ENDBRANCH   6   7
ENDBRANCH   4   6
ENDBRANCH   2   5
ENDBRANCH   1   3
BRANCH   1  12
ATOM     12  C   UNL     1       2.327   5.856  20.582  0.00  0.00    +0.000 C 
BRANCH  12  13
ATOM     13  C   UNL     1       1.763   4.457  20.819  0.00  0.00    +0.000 C 
BRANCH  13  14
ATOM     14  C   UNL     1       0.764   4.086  19.728  0.00  0.00    +0.000 C 
BRANCH  14  15
ATOM     15  C   UNL     1       1.189   2.806  19.009  0.00  0.00    +0.000 C 
BRANCH  15  16
ATOM     16  C   UNL     1       2.241   2.064  19.826  0.00  0.00    +0.000 C 
BRANCH  16  17
ATOM     17  C   UNL     1       3.527   1.823  19.040  0.00  0.00    +0.000 C 
BRANCH  17  18
ATOM     18  C   UNL     1       4.735   2.077  19.912  0.00  0.00    +0.000 C 
ATOM     19  O   UNL     1       5.064   1.397  20.873  0.00  0.00    +0.000 OA
BRANCH  18  20
ATOM     20  O   UNL     1       5.446   3.160  19.527  0.00  0.00    +0.000 OA
ATOM     21  H   UNL     1       5.437   3.892  20.173  0.00  0.00    +0.000 HD
ENDBRANCH  18  20
ENDBRANCH  17  18
ENDBRANCH  16  17
ENDBRANCH  15  16
ENDBRANCH  14  15
ENDBRANCH  13  14
ENDBRANCH  12  13
ENDBRANCH   1  12
TORSDOF 15
ENDMDL
MODEL 3
REMARK VINA RESULT:      -5.7      3.845      5.960
REMARK  Name = 
REMARK  16 active torsions:
REMARK  status: ('A' for Active; 'I' for Inactive)
REMARK    1  A    between atoms: C_1  and  C_2
REMARK    2  A    between atoms: C_2  and  C_3
REMARK    3  A    between atoms: C_3  and  C_4
REMARK    4  A    between atoms: C_4  and  C_5
REMARK    5  A    between atoms: C_5  and  C_6
REMARK    6  A    between atoms: C_6  and  C_7
REMARK    7  A    between atoms: C_8  and  C_9
REMARK    8  A    between atoms: C_10  and  C_11
REMARK    9  A    between atoms: C_11  and  C_12
REMARK   10  A    between atoms: C_12  and  C_13
REMARK   11  A    between atoms: C_13  and  C_14
REMARK   12  A    between atoms: C_14  and  C_15
REMARK   13  A    between atoms: C_15  and  C_16
REMARK   14  A    between atoms: C_16  and  C_17
REMARK   15  A    between atoms: C_17  and  C_18
REMARK   16  A    between atoms: C_18  and  O_20
REMARK                            x       y       z     vdW  Elec       q    Type
REMARK                         _______ _______ _______ _____ _____    ______ ____
ROOT
ATOM      1  C   UNL     1       1.011   2.820  19.764  0.00  0.00    +0.000 C 
ENDROOT
BRANCH   1   3
ATOM      2  C   UNL     1       2.853   3.071  18.110  0.00  0.00    +0.000 C 
ATOM      3  C   UNL     1       1.625   3.411  18.531  0.00  0.00    +0.000 C 
BRANCH   2   5
ATOM      4  C   UNL     1       4.733   4.009  16.880  0.00  0.00    +0.000 C 
ATOM      5  C   UNL     1       3.443   3.634  16.929  0.00  0.00    +0.000 C 
BRANCH   4   6
ATOM      6  C   UNL     1       5.347   4.595  15.647  0.00  0.00    +0.000 C 
BRANCH   6   7
ATOM      7  C   UNL     1       6.222   5.798  15.985  0.00  0.00    +0.000 C 
BRANCH   7   8
ATOM      8  C   UNL     1       6.187   6.091  17.482  0.00  0.00    +0.000 C 
BRANCH   8   9
ATOM      9  C   UNL     1       7.506   6.706  17.940  0.00  0.00    +0.000 C 
BRANCH   9  11
ATOM     10  C   UNL     1       8.508   8.947  18.443  0.00  0.00    +0.000 C 
ATOM     11  C   UNL     1       7.613   8.162  17.501  0.00  0.00    +0.000 C 
ENDBRANCH   9  11
ENDBRANCH   8   9
ENDBRANCH   7   8
ENDBRANCH   6   7
ENDBRANCH   4   6
ENDBRANCH   2   5
ENDBRANCH   1   3
BRANCH   1  12
ATOM     12  C   UNL     1       1.508   3.528  21.021  0.00  0.00    +0.000 C 
BRANCH  12  13
ATOM     13  C   UNL     1       2.371   4.734  20.657  0.00  0.00    +0.000 C 
BRANCH  13  14
ATOM     14  C   UNL     1       1.543   6.014  20.672  0.00  0.00    +0.000 C 
BRANCH  14  15
ATOM     15  C   UNL     1       2.302   7.165  20.012  0.00  0.00    +0.000 C 
BRANCH  15  16
ATOM     16  C   UNL     1       2.252   7.031  18.494  0.00  0.00    +0.000 C 
BRANCH  16  17
ATOM     17  C   UNL     1       2.805   8.263  17.782  0.00  0.00    +0.000 C 
BRANCH  17  18
ATOM     18  C   UNL     1       1.771   9.364  17.752  0.00  0.00    +0.000 C 
ATOM     19  O   UNL     1       0.576   9.213  17.960  0.00  0.00    +0.000 OA
BRANCH  18  20
ATOM     20  O   UNL     1       2.297  10.576  17.465  0.00  0.00    +0.000 OA
ATOM     21  H   UNL     1       2.615  10.663  16.547  0.00  0.00    +0.000 HD
ENDBRANCH  18  20
ENDBRANCH  17  18
ENDBRANCH  16  17
ENDBRANCH  15  16
ENDBRANCH  14  15
ENDBRANCH  13  14
ENDBRANCH  12  13
ENDBRANCH   1  12
TORSDOF 15
ENDMDL
MODEL 4
REMARK VINA RESULT:      -5.7      3.524      7.487
REMARK  Name = 
REMARK  16 active torsions:
REMARK  status: ('A' for Active; 'I' for Inactive)
REMARK    1  A    between atoms: C_1  and  C_2
REMARK    2  A    between atoms: C_2  and  C_3
REMARK    3  A    between atoms: C_3  and  C_4
REMARK    4  A    between atoms: C_4  and  C_5
REMARK    5  A    between atoms: C_5  and  C_6
REMARK    6  A    between atoms: C_6  and  C_7
REMARK    7  A    between atoms: C_8  and  C_9
REMARK    8  A    between atoms: C_10  and  C_11
REMARK    9  A    between atoms: C_11  and  C_12
REMARK   10  A    between atoms: C_12  and  C_13
REMARK   11  A    between atoms: C_13  and  C_14
REMARK   12  A    between atoms: C_14  and  C_15
REMARK   13  A    between atoms: C_15  and  C_16
REMARK   14  A    between atoms: C_16  and  C_17
REMARK   15  A    between atoms: C_17  and  C_18
REMARK   16  A    between atoms: C_18  and  O_20
REMARK                            x       y       z     vdW  Elec       q    Type
REMARK                         _______ _______ _______ _____ _____    ______ ____
ROOT
ATOM      1  C   UNL     1       4.881   5.480  17.807  0.00  0.00    +0.000 C 
ENDROOT
BRANCH   1   3
ATOM      2  C   UNL     1       2.724   6.660  18.189  0.00  0.00    +0.000 C 
ATOM      3  C   UNL     1       4.054   6.712  18.016  0.00  0.00    +0.000 C 
BRANCH   2   5
ATOM      4  C   UNL     1       2.280   9.035  17.887  0.00  0.00    +0.000 C 
ATOM      5  C   UNL     1       1.929   7.839  18.391  0.00  0.00    +0.000 C 
BRANCH   4   6
ATOM      6  C   UNL     1       1.450  10.263  18.097  0.00  0.00    +0.000 C 
BRANCH   6   7
ATOM      7  C   UNL     1       0.776  10.246  19.466  0.00  0.00    +0.000 C 
BRANCH   7   8
ATOM      8  C   UNL     1      -0.742  10.173  19.322  0.00  0.00    +0.000 C 
BRANCH   8   9
ATOM      9  C   UNL     1      -1.302  11.515  18.863  0.00  0.00    +0.000 C 
BRANCH   9  11
ATOM     10  C   UNL     1      -2.125   9.926  17.108  0.00  0.00    +0.000 C 
ATOM     11  C   UNL     1      -2.007  11.384  17.517  0.00  0.00    +0.000 C 
ENDBRANCH   9  11
ENDBRANCH   8   9
ENDBRANCH   7   8
ENDBRANCH   6   7
ENDBRANCH   4   6
ENDBRANCH   2   5
ENDBRANCH   1   3
BRANCH   1  12
ATOM     12  C   UNL     1       4.212   4.527  16.822  0.00  0.00    +0.000 C 
BRANCH  12  13
ATOM     13  C   UNL     1       3.904   3.188  17.488  0.00  0.00    +0.000 C 
BRANCH  13  14
ATOM     14  C   UNL     1       2.400   2.996  17.646  0.00  0.00    +0.000 C 
BRANCH  14  15
ATOM     15  C   UNL     1       2.087   2.044  18.800  0.00  0.00    +0.000 C 
BRANCH  15  16
ATOM     16  C   UNL     1       0.861   2.527  19.566  0.00  0.00    +0.000 C 
BRANCH  16  17
ATOM     17  C   UNL     1       1.005   3.968  20.049  0.00  0.00    +0.000 C 
BRANCH  17  18
ATOM     18  C   UNL     1       1.931   4.035  21.241  0.00  0.00    +0.000 C 
ATOM     19  O   UNL     1       2.036   3.172  22.099  0.00  0.00    +0.000 OA
BRANCH  18  20
ATOM     20  O   UNL     1       2.660   5.173  21.279  0.00  0.00    +0.000 OA
ATOM     21  H   UNL     1       3.141   5.365  20.452  0.00  0.00    +0.000 HD
ENDBRANCH  18  20
ENDBRANCH  17  18
ENDBRANCH  16  17
ENDBRANCH  15  16
ENDBRANCH  14  15
ENDBRANCH  13  14
ENDBRANCH  12  13
ENDBRANCH   1  12
TORSDOF 15
ENDMDL
MODEL 5
REMARK VINA RESULT:      -5.6      3.547      8.128
REMARK  Name = 
REMARK  16 active torsions:
REMARK  status: ('A' for Active; 'I' for Inactive)
REMARK    1  A    between atoms: C_1  and  C_2
REMARK    2  A    between atoms: C_2  and  C_3
REMARK    3  A    between atoms: C_3  and  C_4
REMARK    4  A    between atoms: C_4  and  C_5
REMARK    5  A    between atoms: C_5  and  C_6
REMARK    6  A    between atoms: C_6  and  C_7
REMARK    7  A    between atoms: C_8  and  C_9
REMARK    8  A    between atoms: C_10  and  C_11
REMARK    9  A    between atoms: C_11  and  C_12
REMARK   10  A    between atoms: C_12  and  C_13
REMARK   11  A    between atoms: C_13  and  C_14
REMARK   12  A    between atoms: C_14  and  C_15
REMARK   13  A    between atoms: C_15  and  C_16
REMARK   14  A    between atoms: C_16  and  C_17
REMARK   15  A    between atoms: C_17  and  C_18
REMARK   16  A    between atoms: C_18  and  O_20
REMARK                            x       y       z     vdW  Elec       q    Type
REMARK                         _______ _______ _______ _____ _____    ______ ____
ROOT
ATOM      1  C   UNL     1       2.660   3.854  17.727  0.00  0.00    +0.000 C 
ENDROOT
BRANCH   1   3
ATOM      2  C   UNL     1       2.815   6.102  18.782  0.00  0.00    +0.000 C 
ATOM      3  C   UNL     1       2.281   5.299  17.849  0.00  0.00    +0.000 C 
BRANCH   2   5
ATOM      4  C   UNL     1       2.275   8.276  17.827  0.00  0.00    +0.000 C 
ATOM      5  C   UNL     1       2.454   7.486  18.901  0.00  0.00    +0.000 C 
BRANCH   4   6
ATOM      6  C   UNL     1       1.897   9.719  17.953  0.00  0.00    +0.000 C 
BRANCH   6   7
ATOM      7  C   UNL     1       0.610   9.885  18.755  0.00  0.00    +0.000 C 
BRANCH   7   8
ATOM      8  C   UNL     1      -0.598   9.983  17.827  0.00  0.00    +0.000 C 
BRANCH   8   9
ATOM      9  C   UNL     1      -1.754  10.693  18.525  0.00  0.00    +0.000 C 
BRANCH   9  11
ATOM     10  C   UNL     1      -1.579  12.890  19.719  0.00  0.00    +0.000 C 
ATOM     11  C   UNL     1      -1.279  11.403  19.788  0.00  0.00    +0.000 C 
ENDBRANCH   9  11
ENDBRANCH   8   9
ENDBRANCH   7   8
ENDBRANCH   6   7
ENDBRANCH   4   6
ENDBRANCH   2   5
ENDBRANCH   1   3
BRANCH   1  12
ATOM     12  C   UNL     1       4.171   3.690  17.596  0.00  0.00    +0.000 C 
BRANCH  12  13
ATOM     13  C   UNL     1       4.618   3.924  16.155  0.00  0.00    +0.000 C 
BRANCH  13  14
ATOM     14  C   UNL     1       5.869   4.793  16.112  0.00  0.00    +0.000 C 
BRANCH  14  15
ATOM     15  C   UNL     1       5.513   6.274  16.238  0.00  0.00    +0.000 C 
BRANCH  15  16
ATOM     16  C   UNL     1       6.138   6.863  17.498  0.00  0.00    +0.000 C 
BRANCH  16  17
ATOM     17  C   UNL     1       7.432   6.156  17.892  0.00  0.00    +0.000 C 
BRANCH  17  18
ATOM     18  C   UNL     1       7.314   5.574  19.282  0.00  0.00    +0.000 C 
ATOM     19  O   UNL     1       6.268   5.231  19.814  0.00  0.00    +0.000 OA
BRANCH  18  20
ATOM     20  O   UNL     1       8.505   5.463  19.911  0.00  0.00    +0.000 OA
ATOM     21  H   UNL     1       8.634   6.107  20.633  0.00  0.00    +0.000 HD
ENDBRANCH  18  20
ENDBRANCH  17  18
ENDBRANCH  16  17
ENDBRANCH  15  16
ENDBRANCH  14  15
ENDBRANCH  13  14
ENDBRANCH  12  13
ENDBRANCH   1  12
TORSDOF 15
ENDMDL
MODEL 6
REMARK VINA RESULT:      -5.6      3.526      8.059
REMARK  Name = 
REMARK  16 active torsions:
REMARK  status: ('A' for Active; 'I' for Inactive)
REMARK    1  A    between atoms: C_1  and  C_2
REMARK    2  A    between atoms: C_2  and  C_3
REMARK    3  A    between atoms: C_3  and  C_4
REMARK    4  A    between atoms: C_4  and  C_5
REMARK    5  A    between atoms: C_5  and  C_6
REMARK    6  A    between atoms: C_6  and  C_7
REMARK    7  A    between atoms: C_8  and  C_9
REMARK    8  A    between atoms: C_10  and  C_11
REMARK    9  A    between atoms: C_11  and  C_12
REMARK   10  A    between atoms: C_12  and  C_13
REMARK   11  A    between atoms: C_13  and  C_14
REMARK   12  A    between atoms: C_14  and  C_15
REMARK   13  A    between atoms: C_15  and  C_16
REMARK   14  A    between atoms: C_16  and  C_17
REMARK   15  A    between atoms: C_17  and  C_18
REMARK   16  A    between atoms: C_18  and  O_20
REMARK                            x       y       z     vdW  Elec       q    Type
REMARK                         _______ _______ _______ _____ _____    ______ ____
ROOT
ATOM      1  C   UNL     1       2.350   4.560  21.098  0.00  0.00    +0.000 C 
ENDROOT
BRANCH   1   3
ATOM      2  C   UNL     1       2.720   6.319  19.379  0.00  0.00    +0.000 C 
ATOM      3  C   UNL     1       1.891   5.686  20.223  0.00  0.00    +0.000 C 
BRANCH   2   5
ATOM      4  C   UNL     1       1.848   8.566  19.040  0.00  0.00    +0.000 C 
ATOM      5  C   UNL     1       2.284   7.398  18.538  0.00  0.00    +0.000 C 
BRANCH   4   6
ATOM      6  C   UNL     1       1.394   9.692  18.163  0.00  0.00    +0.000 C 
BRANCH   6   7
ATOM      7  C   UNL     1       0.410  10.599  18.894  0.00  0.00    +0.000 C 
BRANCH   7   8
ATOM      8  C   UNL     1      -0.060   9.953  20.195  0.00  0.00    +0.000 C 
BRANCH   8   9
ATOM      9  C   UNL     1       0.140  10.905  21.369  0.00  0.00    +0.000 C 
BRANCH   9  11
ATOM     10  C   UNL     1      -1.667  11.467  23.012  0.00  0.00    +0.000 C 
ATOM     11  C   UNL     1      -1.114  11.734  21.623  0.00  0.00    +0.000 C 
ENDBRANCH   9  11
ENDBRANCH   8   9
ENDBRANCH   7   8
ENDBRANCH   6   7
ENDBRANCH   4   6
ENDBRANCH   2   5
ENDBRANCH   1   3
BRANCH   1  12
ATOM     12  C   UNL     1       1.375   3.387  21.044  0.00  0.00    +0.000 C 
BRANCH  12  13
ATOM     13  C   UNL     1       1.807   2.374  19.986  0.00  0.00    +0.000 C 
BRANCH  13  14
ATOM     14  C   UNL     1       1.051   2.601  18.681  0.00  0.00    +0.000 C 
BRANCH  14  15
ATOM     15  C   UNL     1       1.972   3.186  17.610  0.00  0.00    +0.000 C 
BRANCH  15  16
ATOM     16  C   UNL     1       3.394   2.668  17.795  0.00  0.00    +0.000 C 
BRANCH  16  17
ATOM     17  C   UNL     1       4.442   3.760  17.594  0.00  0.00    +0.000 C 
BRANCH  17  18
ATOM     18  C   UNL     1       5.262   3.941  18.851  0.00  0.00    +0.000 C 
ATOM     19  O   UNL     1       5.837   4.971  19.174  0.00  0.00    +0.000 OA
BRANCH  18  20
ATOM     20  O   UNL     1       5.311   2.827  19.615  0.00  0.00    +0.000 OA
ATOM     21  H   UNL     1       6.171   2.682  20.052  0.00  0.00    +0.000 HD
ENDBRANCH  18  20
ENDBRANCH  17  18
ENDBRANCH  16  17
ENDBRANCH  15  16
ENDBRANCH  14  15
ENDBRANCH  13  14
ENDBRANCH  12  13
ENDBRANCH   1  12
TORSDOF 15
ENDMDL
MODEL 7
REMARK VINA RESULT:      -5.6      4.738      8.050
REMARK  Name = 
REMARK  16 active torsions:
REMARK  status: ('A' for Active; 'I' for Inactive)
REMARK    1  A    between atoms: C_1  and  C_2
REMARK    2  A    between atoms: C_2  and  C_3
REMARK    3  A    between atoms: C_3  and  C_4
REMARK    4  A    between atoms: C_4  and  C_5
REMARK    5  A    between atoms: C_5  and  C_6
REMARK    6  A    between atoms: C_6  and  C_7
REMARK    7  A    between atoms: C_8  and  C_9
REMARK    8  A    between atoms: C_10  and  C_11
REMARK    9  A    between atoms: C_11  and  C_12
REMARK   10  A    between atoms: C_12  and  C_13
REMARK   11  A    between atoms: C_13  and  C_14
REMARK   12  A    between atoms: C_14  and  C_15
REMARK   13  A    between atoms: C_15  and  C_16
REMARK   14  A    between atoms: C_16  and  C_17
REMARK   15  A    between atoms: C_17  and  C_18
REMARK   16  A    between atoms: C_18  and  O_20
REMARK                            x       y       z     vdW  Elec       q    Type
REMARK                         _______ _______ _______ _____ _____    ______ ____
ROOT
ATOM      1  C   UNL     1       5.633   6.276  16.036  0.00  0.00    +0.000 C 
ENDROOT
BRANCH   1   3
ATOM      2  C   UNL     1       3.690   6.547  17.566  0.00  0.00    +0.000 C 
ATOM      3  C   UNL     1       4.528   5.742  16.896  0.00  0.00    +0.000 C 
BRANCH   2   5
ATOM      4  C   UNL     1       2.748   5.931  19.725  0.00  0.00    +0.000 C 
ATOM      5  C   UNL     1       2.631   6.039  18.390  0.00  0.00    +0.000 C 
BRANCH   4   6
ATOM      6  C   UNL     1       1.642   5.402  20.583  0.00  0.00    +0.000 C 
BRANCH   6   7
ATOM      7  C   UNL     1       1.781   3.898  20.797  0.00  0.00    +0.000 C 
BRANCH   7   8
ATOM      8  C   UNL     1       0.738   3.136  19.983  0.00  0.00    +0.000 C 
BRANCH   8   9
ATOM      9  C   UNL     1       1.413   2.163  19.022  0.00  0.00    +0.000 C 
BRANCH   9  11
ATOM     10  C   UNL     1       3.634   2.348  17.874  0.00  0.00    +0.000 C 
ATOM     11  C   UNL     1       2.927   2.171  19.206  0.00  0.00    +0.000 C 
ENDBRANCH   9  11
ENDBRANCH   8   9
ENDBRANCH   7   8
ENDBRANCH   6   7
ENDBRANCH   4   6
ENDBRANCH   2   5
ENDBRANCH   1   3
BRANCH   1  12
ATOM     12  C   UNL     1       6.995   6.059  16.688  0.00  0.00    +0.000 C 
BRANCH  12  13
ATOM     13  C   UNL     1       7.030   6.678  18.084  0.00  0.00    +0.000 C 
BRANCH  13  14
ATOM     14  C   UNL     1       8.304   7.491  18.282  0.00  0.00    +0.000 C 
BRANCH  14  15
ATOM     15  C   UNL     1       8.070   8.965  17.955  0.00  0.00    +0.000 C 
BRANCH  15  16
ATOM     16  C   UNL     1       8.939   9.849  18.843  0.00  0.00    +0.000 C 
BRANCH  16  17
ATOM     17  C   UNL     1       9.665  10.934  18.052  0.00  0.00    +0.000 C 
BRANCH  17  18
ATOM     18  C   UNL     1       9.094  12.295  18.376  0.00  0.00    +0.000 C 
ATOM     19  O   UNL     1       8.664  13.092  17.555  0.00  0.00    +0.000 OA
BRANCH  18  20
ATOM     20  O   UNL     1       9.099  12.569  19.700  0.00  0.00    +0.000 OA
ATOM     21  H   UNL     1       9.968  12.849  20.045  0.00  0.00    +0.000 HD
ENDBRANCH  18  20
ENDBRANCH  17  18
ENDBRANCH  16  17
ENDBRANCH  15  16
ENDBRANCH  14  15
ENDBRANCH  13  14
ENDBRANCH  12  13
ENDBRANCH   1  12
TORSDOF 15
ENDMDL
MODEL 8
REMARK VINA RESULT:      -5.6      2.965      4.440
REMARK  Name = 
REMARK  16 active torsions:
REMARK  status: ('A' for Active; 'I' for Inactive)
REMARK    1  A    between atoms: C_1  and  C_2
REMARK    2  A    between atoms: C_2  and  C_3
REMARK    3  A    between atoms: C_3  and  C_4
REMARK    4  A    between atoms: C_4  and  C_5
REMARK    5  A    between atoms: C_5  and  C_6
REMARK    6  A    between atoms: C_6  and  C_7
REMARK    7  A    between atoms: C_8  and  C_9
REMARK    8  A    between atoms: C_10  and  C_11
REMARK    9  A    between atoms: C_11  and  C_12
REMARK   10  A    between atoms: C_12  and  C_13
REMARK   11  A    between atoms: C_13  and  C_14
REMARK   12  A    between atoms: C_14  and  C_15
REMARK   13  A    between atoms: C_15  and  C_16
REMARK   14  A    between atoms: C_16  and  C_17
REMARK   15  A    between atoms: C_17  and  C_18
REMARK   16  A    between atoms: C_18  and  O_20
REMARK                            x       y       z     vdW  Elec       q    Type
REMARK                         _______ _______ _______ _____ _____    ______ ____
ROOT
ATOM      1  C   UNL     1       1.439   2.349  19.667  0.00  0.00    +0.000 C 
ENDROOT
BRANCH   1   3
ATOM      2  C   UNL     1       2.552   3.220  17.620  0.00  0.00    +0.000 C 
ATOM      3  C   UNL     1       2.610   2.919  18.926  0.00  0.00    +0.000 C 
BRANCH   2   5
ATOM      4  C   UNL     1       4.931   3.674  17.370  0.00  0.00    +0.000 C 
ATOM      5  C   UNL     1       3.671   3.767  16.907  0.00  0.00    +0.000 C 
BRANCH   4   6
ATOM      6  C   UNL     1       6.098   4.243  16.624  0.00  0.00    +0.000 C 
BRANCH   6   7
ATOM      7  C   UNL     1       5.689   5.468  15.812  0.00  0.00    +0.000 C 
BRANCH   7   8
ATOM      8  C   UNL     1       5.511   5.106  14.339  0.00  0.00    +0.000 C 
BRANCH   8   9
ATOM      9  C   UNL     1       6.285   3.835  14.002  0.00  0.00    +0.000 C 
BRANCH   9  11
ATOM     10  C   UNL     1       5.350   2.781  11.929  0.00  0.00    +0.000 C 
ATOM     11  C   UNL     1       6.442   3.673  12.494  0.00  0.00    +0.000 C 
ENDBRANCH   9  11
ENDBRANCH   8   9
ENDBRANCH   7   8
ENDBRANCH   6   7
ENDBRANCH   4   6
ENDBRANCH   2   5
ENDBRANCH   1   3
BRANCH   1  12
ATOM     12  C   UNL     1       1.233   3.059  21.002  0.00  0.00    +0.000 C 
BRANCH  12  13
ATOM     13  C   UNL     1       2.218   4.215  21.157  0.00  0.00    +0.000 C 
BRANCH  13  14
ATOM     14  C   UNL     1       1.651   5.494  20.550  0.00  0.00    +0.000 C 
BRANCH  14  15
ATOM     15  C   UNL     1       2.743   6.296  19.843  0.00  0.00    +0.000 C 
BRANCH  15  16
ATOM     16  C   UNL     1       2.252   6.772  18.480  0.00  0.00    +0.000 C 
BRANCH  16  17
ATOM     17  C   UNL     1       2.777   8.161  18.124  0.00  0.00    +0.000 C 
BRANCH  17  18
ATOM     18  C   UNL     1       1.719   9.208  18.385  0.00  0.00    +0.000 C 
ATOM     19  O   UNL     1       1.195   9.423  19.467  0.00  0.00    +0.000 OA
BRANCH  18  20
ATOM     20  O   UNL     1       1.389   9.912  17.279  0.00  0.00    +0.000 OA
ATOM     21  H   UNL     1       1.362   9.379  16.462  0.00  0.00    +0.000 HD
ENDBRANCH  18  20
ENDBRANCH  17  18
ENDBRANCH  16  17
ENDBRANCH  15  16
ENDBRANCH  14  15
ENDBRANCH  13  14
ENDBRANCH  12  13
ENDBRANCH   1  12
TORSDOF 15
ENDMDL
MODEL 9
REMARK VINA RESULT:      -5.6      2.253      3.317
REMARK  Name = 
REMARK  16 active torsions:
REMARK  status: ('A' for Active; 'I' for Inactive)
REMARK    1  A    between atoms: C_1  and  C_2
REMARK    2  A    between atoms: C_2  and  C_3
REMARK    3  A    between atoms: C_3  and  C_4
REMARK    4  A    between atoms: C_4  and  C_5
REMARK    5  A    between atoms: C_5  and  C_6
REMARK    6  A    between atoms: C_6  and  C_7
REMARK    7  A    between atoms: C_8  and  C_9
REMARK    8  A    between atoms: C_10  and  C_11
REMARK    9  A    between atoms: C_11  and  C_12
REMARK   10  A    between atoms: C_12  and  C_13
REMARK   11  A    between atoms: C_13  and  C_14
REMARK   12  A    between atoms: C_14  and  C_15
REMARK   13  A    between atoms: C_15  and  C_16
REMARK   14  A    between atoms: C_16  and  C_17
REMARK   15  A    between atoms: C_17  and  C_18
REMARK   16  A    between atoms: C_18  and  O_20
REMARK                            x       y       z     vdW  Elec       q    Type
REMARK                         _______ _______ _______ _____ _____    ______ ____
ROOT
ATOM      1  C   UNL     1       4.078   4.423  17.824  0.00  0.00    +0.000 C 
ENDROOT
BRANCH   1   3
ATOM      2  C   UNL     1       5.526   4.491  15.802  0.00  0.00    +0.000 C 
ATOM      3  C   UNL     1       4.768   3.786  16.656  0.00  0.00    +0.000 C 
BRANCH   2   5
ATOM      4  C   UNL     1       5.781   4.077  13.417  0.00  0.00    +0.000 C 
ATOM      5  C   UNL     1       6.189   3.884  14.683  0.00  0.00    +0.000 C 
BRANCH   4   6
ATOM      6  C   UNL     1       6.474   3.444  12.250  0.00  0.00    +0.000 C 
BRANCH   6   7
ATOM      7  C   UNL     1       5.547   2.485  11.511  0.00  0.00    +0.000 C 
BRANCH   7   8
ATOM      8  C   UNL     1       4.087   2.895  11.692  0.00  0.00    +0.000 C 
BRANCH   8   9
ATOM      9  C   UNL     1       3.410   3.078  10.337  0.00  0.00    +0.000 C 
BRANCH   9  11
ATOM     10  C   UNL     1       2.439   4.728   8.720  0.00  0.00    +0.000 C 
ATOM     11  C   UNL     1       3.042   4.538  10.101  0.00  0.00    +0.000 C 
ENDBRANCH   9  11
ENDBRANCH   8   9
ENDBRANCH   7   8
ENDBRANCH   6   7
ENDBRANCH   4   6
ENDBRANCH   2   5
ENDBRANCH   1   3
BRANCH   1  12
ATOM     12  C   UNL     1       4.219   5.941  17.789  0.00  0.00    +0.000 C 
BRANCH  12  13
ATOM     13  C   UNL     1       3.639   6.568  19.055  0.00  0.00    +0.000 C 
BRANCH  13  14
ATOM     14  C   UNL     1       2.198   6.119  19.267  0.00  0.00    +0.000 C 
BRANCH  14  15
ATOM     15  C   UNL     1       2.025   5.457  20.633  0.00  0.00    +0.000 C 
BRANCH  15  16
ATOM     16  C   UNL     1       1.116   4.238  20.520  0.00  0.00    +0.000 C 
BRANCH  16  17
ATOM     17  C   UNL     1       1.768   3.094  19.746  0.00  0.00    +0.000 C 
BRANCH  17  18
ATOM     18  C   UNL     1       1.036   2.851  18.447  0.00  0.00    +0.000 C 
ATOM     19  O   UNL     1       1.145   3.534  17.440  0.00  0.00    +0.000 OA
BRANCH  18  20
ATOM     20  O   UNL     1       0.219   1.775  18.495  0.00  0.00    +0.000 OA
ATOM     21  H   UNL     1      -0.233   1.581  17.651  0.00  0.00    +0.000 HD
ENDBRANCH  18  20
ENDBRANCH  17  18
ENDBRANCH  16  17
ENDBRANCH  15  16
ENDBRANCH  14  15
ENDBRANCH  13  14
ENDBRANCH  12  13
ENDBRANCH   1  12
TORSDOF 15
ENDMDL
