MODEL 1
REMARK VINA RESULT:      -8.1      0.000      0.000
REMARK  Name = 
REMARK  8 active torsions:
REMARK  status: ('A' for Active; 'I' for Inactive)
REMARK    1  A    between atoms: C_1  and  O_2
REMARK    2  A    between atoms: O_2  and  C_3
REMARK    3  A    between atoms: C_6  and  C_7
REMARK    4  A    between atoms: C_9  and  C_10
REMARK    5  A    between atoms: C_10  and  N_11
REMARK    6  A    between atoms: N_11  and  C_12
REMARK    7  A    between atoms: C_12  and  C_13
REMARK    8  A    between atoms: C_17  and  C_18
REMARK                            x       y       z     vdW  Elec       q    Type
REMARK                         _______ _______ _______ _____ _____    ______ ____
ROOT
ATOM      1  C   UNL     1       6.072   5.887  16.218  0.00  0.00    +0.000 C 
ENDROOT
BRANCH   1   4
ATOM      2  C   UNL     1       7.944   8.380  17.943  0.00  0.00    +0.000 A 
ATOM      3  N   UNL     1       7.097   8.052  16.981  0.00  0.00    +0.000 NA
ATOM      4  C   UNL     1       6.908   6.692  17.149  0.00  0.00    +0.000 A 
ATOM      5  C   UNL     1       7.658   6.257  18.216  0.00  0.00    +0.000 A 
ATOM      6  O   UNL     1       8.323   7.322  18.730  0.00  0.00    +0.000 OA
BRANCH   2  10
ATOM      7  C   UNL     1       9.654  12.182  18.926  0.00  0.00    +0.000 A 
ATOM      8  C   UNL     1       8.870  12.032  17.780  0.00  0.00    +0.000 A 
ATOM      9  C   UNL     1       8.306  10.790  17.459  0.00  0.00    +0.000 A 
ATOM     10  C   UNL     1       8.533   9.674  18.275  0.00  0.00    +0.000 A 
ATOM     11  C   UNL     1       9.344   9.833  19.408  0.00  0.00    +0.000 A 
ATOM     12  C   UNL     1       9.901  11.074  19.732  0.00  0.00    +0.000 A 
BRANCH   7  14
ATOM     13  C   UNL     1      11.526  13.619  18.804  0.00  0.00    +0.000 C 
ATOM     14  O   UNL     1      10.154  13.437  19.140  0.00  0.00    +0.000 OA
ENDBRANCH   7  14
ENDBRANCH   2  10
ENDBRANCH   1   4
BRANCH   1  15
ATOM     15  N   UNL     1       4.898   5.341  16.906  0.00  0.00    +0.000 NA
ATOM     16  H   UNL     1       5.237   4.756  17.672  0.00  0.00    +0.000 HD
BRANCH  15  17
ATOM     17  C   UNL     1       4.041   6.385  17.472  0.00  0.00    +0.000 C 
BRANCH  17  18
ATOM     18  C   UNL     1       3.108   5.808  18.509  0.00  0.00    +0.000 A 
ATOM     19  C   UNL     1       2.589   6.613  19.531  0.00  0.00    +0.000 A 
ATOM     20  C   UNL     1       1.726   6.077  20.487  0.00  0.00    +0.000 A 
ATOM     21  C   UNL     1       1.373   4.729  20.433  0.00  0.00    +0.000 A 
ATOM     22  C   UNL     1       1.882   3.901  19.421  0.00  0.00    +0.000 A 
ATOM     23  C   UNL     1       2.741   4.454  18.459  0.00  0.00    +0.000 A 
BRANCH  22  24
ATOM     24  C   UNL     1       1.528   2.437  19.353  0.00  0.00    +0.000 C 
ATOM     25  F   UNL     1       1.332   1.864  20.575  0.00  0.00    +0.000 F 
ATOM     26  F   UNL     1       0.382   2.208  18.651  0.00  0.00    +0.000 F 
ATOM     27  F   UNL     1       2.492   1.692  18.745  0.00  0.00    +0.000 F 
ENDBRANCH  22  24
ENDBRANCH  17  18
ENDBRANCH  15  17
ENDBRANCH   1  15
TORSDOF 7
ENDMDL
MODEL 2
REMARK VINA RESULT:      -8.0      1.523      1.801
REMARK  Name = 
REMARK  8 active torsions:
REMARK  status: ('A' for Active; 'I' for Inactive)
REMARK    1  A    between atoms: C_1  and  O_2
REMARK    2  A    between atoms: O_2  and  C_3
REMARK    3  A    between atoms: C_6  and  C_7
REMARK    4  A    between atoms: C_9  and  C_10
REMARK    5  A    between atoms: C_10  and  N_11
REMARK    6  A    between atoms: N_11  and  C_12
REMARK    7  A    between atoms: C_12  and  C_13
REMARK    8  A    between atoms: C_17  and  C_18
REMARK                            x       y       z     vdW  Elec       q    Type
REMARK                         _______ _______ _______ _____ _____    ______ ____
ROOT
ATOM      1  C   UNL     1       6.608   5.451  16.350  0.00  0.00    +0.000 C 
ENDROOT
BRANCH   1   4
ATOM      2  C   UNL     1       8.045   8.238  18.041  0.00  0.00    +0.000 A 
ATOM      3  N   UNL     1       7.404   7.747  16.993  0.00  0.00    +0.000 NA
ATOM      4  C   UNL     1       7.229   6.410  17.303  0.00  0.00    +0.000 A 
ATOM      5  C   UNL     1       7.779   6.153  18.536  0.00  0.00    +0.000 A 
ATOM      6  O   UNL     1       8.303   7.309  19.017  0.00  0.00    +0.000 OA
BRANCH   2  10
ATOM      7  C   UNL     1       9.424  12.220  18.811  0.00  0.00    +0.000 A 
ATOM      8  C   UNL     1       8.616  11.951  17.705  0.00  0.00    +0.000 A 
ATOM      9  C   UNL     1       8.160  10.650  17.453  0.00  0.00    +0.000 A 
ATOM     10  C   UNL     1       8.521   9.593  18.300  0.00  0.00    +0.000 A 
ATOM     11  C   UNL     1       9.355   9.873  19.393  0.00  0.00    +0.000 A 
ATOM     12  C   UNL     1       9.804  11.173  19.647  0.00  0.00    +0.000 A 
BRANCH   7  14
ATOM     13  C   UNL     1      10.891  13.747  19.859  0.00  0.00    +0.000 C 
ATOM     14  O   UNL     1       9.810  13.523  18.958  0.00  0.00    +0.000 OA
ENDBRANCH   7  14
ENDBRANCH   2  10
ENDBRANCH   1   4
BRANCH   1  15
ATOM     15  N   UNL     1       5.207   5.195  16.702  0.00  0.00    +0.000 NA
ATOM     16  H   UNL     1       4.663   5.236  15.838  0.00  0.00    +0.000 HD
BRANCH  15  17
ATOM     17  C   UNL     1       5.011   3.876  17.305  0.00  0.00    +0.000 C 
BRANCH  17  18
ATOM     18  C   UNL     1       3.686   3.808  18.026  0.00  0.00    +0.000 A 
ATOM     19  C   UNL     1       2.500   4.180  17.381  0.00  0.00    +0.000 A 
ATOM     20  C   UNL     1       1.278   4.115  18.050  0.00  0.00    +0.000 A 
ATOM     21  C   UNL     1       1.229   3.680  19.375  0.00  0.00    +0.000 A 
ATOM     22  C   UNL     1       2.403   3.305  20.044  0.00  0.00    +0.000 A 
ATOM     23  C   UNL     1       3.625   3.364  19.357  0.00  0.00    +0.000 A 
BRANCH  22  24
ATOM     24  C   UNL     1       2.375   2.848  21.481  0.00  0.00    +0.000 C 
ATOM     25  F   UNL     1       3.458   2.102  21.840  0.00  0.00    +0.000 F 
ATOM     26  F   UNL     1       2.338   3.890  22.359  0.00  0.00    +0.000 F 
ATOM     27  F   UNL     1       1.286   2.082  21.767  0.00  0.00    +0.000 F 
ENDBRANCH  22  24
ENDBRANCH  17  18
ENDBRANCH  15  17
ENDBRANCH   1  15
TORSDOF 7
ENDMDL
MODEL 3
REMARK VINA RESULT:      -7.9      0.990      1.267
REMARK  Name = 
REMARK  8 active torsions:
REMARK  status: ('A' for Active; 'I' for Inactive)
REMARK    1  A    between atoms: C_1  and  O_2
REMARK    2  A    between atoms: O_2  and  C_3
REMARK    3  A    between atoms: C_6  and  C_7
REMARK    4  A    between atoms: C_9  and  C_10
REMARK    5  A    between atoms: C_10  and  N_11
REMARK    6  A    between atoms: N_11  and  C_12
REMARK    7  A    between atoms: C_12  and  C_13
REMARK    8  A    between atoms: C_17  and  C_18
REMARK                            x       y       z     vdW  Elec       q    Type
REMARK                         _______ _______ _______ _____ _____    ______ ____
ROOT
ATOM      1  C   UNL     1       6.692   5.550  16.082  0.00  0.00    +0.000 C 
ENDROOT
BRANCH   1   4
ATOM      2  C   UNL     1       8.071   8.215  18.003  0.00  0.00    +0.000 A 
ATOM      3  N   UNL     1       7.503   7.788  16.887  0.00  0.00    +0.000 NA
ATOM      4  C   UNL     1       7.262   6.447  17.123  0.00  0.00    +0.000 A 
ATOM      5  C   UNL     1       7.700   6.121  18.384  0.00  0.00    +0.000 A 
ATOM      6  O   UNL     1       8.218   7.238  18.955  0.00  0.00    +0.000 OA
BRANCH   2  10
ATOM      7  C   UNL     1       9.503  12.113  19.052  0.00  0.00    +0.000 A 
ATOM      8  C   UNL     1       8.827  11.906  17.848  0.00  0.00    +0.000 A 
ATOM      9  C   UNL     1       8.354  10.633  17.505  0.00  0.00    +0.000 A 
ATOM     10  C   UNL     1       8.565   9.541  18.358  0.00  0.00    +0.000 A 
ATOM     11  C   UNL     1       9.268   9.758  19.552  0.00  0.00    +0.000 A 
ATOM     12  C   UNL     1       9.734  11.031  19.897  0.00  0.00    +0.000 A 
BRANCH   7  14
ATOM     13  C   UNL     1      10.940  13.541  20.267  0.00  0.00    +0.000 C 
ATOM     14  O   UNL     1       9.920  13.395  19.283  0.00  0.00    +0.000 OA
ENDBRANCH   7  14
ENDBRANCH   2  10
ENDBRANCH   1   4
BRANCH   1  15
ATOM     15  N   UNL     1       5.252   5.358  16.287  0.00  0.00    +0.000 NA
ATOM     16  H   UNL     1       4.828   5.225  15.366  0.00  0.00    +0.000 HD
BRANCH  15  17
ATOM     17  C   UNL     1       4.951   4.182  17.104  0.00  0.00    +0.000 C 
BRANCH  17  18
ATOM     18  C   UNL     1       4.022   4.541  18.239  0.00  0.00    +0.000 A 
ATOM     19  C   UNL     1       3.722   5.880  18.521  0.00  0.00    +0.000 A 
ATOM     20  C   UNL     1       2.863   6.209  19.569  0.00  0.00    +0.000 A 
ATOM     21  C   UNL     1       2.295   5.201  20.350  0.00  0.00    +0.000 A 
ATOM     22  C   UNL     1       2.582   3.853  20.089  0.00  0.00    +0.000 A 
ATOM     23  C   UNL     1       3.440   3.535  19.026  0.00  0.00    +0.000 A 
BRANCH  22  24
ATOM     24  C   UNL     1       1.993   2.749  20.931  0.00  0.00    +0.000 C 
ATOM     25  F   UNL     1       0.854   3.109  21.587  0.00  0.00    +0.000 F 
ATOM     26  F   UNL     1       1.662   1.651  20.194  0.00  0.00    +0.000 F 
ATOM     27  F   UNL     1       2.851   2.308  21.892  0.00  0.00    +0.000 F 
ENDBRANCH  22  24
ENDBRANCH  17  18
ENDBRANCH  15  17
ENDBRANCH   1  15
TORSDOF 7
ENDMDL
MODEL 4
REMARK VINA RESULT:      -7.8      1.644      2.270
REMARK  Name = 
REMARK  8 active torsions:
REMARK  status: ('A' for Active; 'I' for Inactive)
REMARK    1  A    between atoms: C_1  and  O_2
REMARK    2  A    between atoms: O_2  and  C_3
REMARK    3  A    between atoms: C_6  and  C_7
REMARK    4  A    between atoms: C_9  and  C_10
REMARK    5  A    between atoms: C_10  and  N_11
REMARK    6  A    between atoms: N_11  and  C_12
REMARK    7  A    between atoms: C_12  and  C_13
REMARK    8  A    between atoms: C_17  and  C_18
REMARK                            x       y       z     vdW  Elec       q    Type
REMARK                         _______ _______ _______ _____ _____    ______ ____
ROOT
ATOM      1  C   UNL     1       5.939   6.196  16.605  0.00  0.00    +0.000 C 
ENDROOT
BRANCH   1   4
ATOM      2  C   UNL     1       8.037   8.679  18.060  0.00  0.00    +0.000 A 
ATOM      3  N   UNL     1       7.059   8.357  17.231  0.00  0.00    +0.000 NA
ATOM      4  C   UNL     1       6.901   6.995  17.411  0.00  0.00    +0.000 A 
ATOM      5  C   UNL     1       7.800   6.552  18.352  0.00  0.00    +0.000 A 
ATOM      6  O   UNL     1       8.531   7.616  18.773  0.00  0.00    +0.000 OA
BRANCH   2  10
ATOM      7  C   UNL     1       9.864  12.479  18.818  0.00  0.00    +0.000 A 
ATOM      8  C   UNL     1       8.937  12.331  17.784  0.00  0.00    +0.000 A 
ATOM      9  C   UNL     1       8.335  11.090  17.538  0.00  0.00    +0.000 A 
ATOM     10  C   UNL     1       8.665   9.972  18.315  0.00  0.00    +0.000 A 
ATOM     11  C   UNL     1       9.617  10.129  19.333  0.00  0.00    +0.000 A 
ATOM     12  C   UNL     1      10.212  11.369  19.584  0.00  0.00    +0.000 A 
BRANCH   7  14
ATOM     13  C   UNL     1       9.922  14.709  18.041  0.00  0.00    +0.000 C 
ATOM     14  O   UNL     1      10.388  13.733  18.968  0.00  0.00    +0.000 OA
ENDBRANCH   7  14
ENDBRANCH   2  10
ENDBRANCH   1   4
BRANCH   1  15
ATOM     15  N   UNL     1       5.713   4.879  17.211  0.00  0.00    +0.000 NA
ATOM     16  H   UNL     1       5.406   5.035  18.173  0.00  0.00    +0.000 HD
BRANCH  15  17
ATOM     17  C   UNL     1       4.678   4.110  16.518  0.00  0.00    +0.000 C 
BRANCH  17  18
ATOM     18  C   UNL     1       3.541   3.777  17.453  0.00  0.00    +0.000 A 
ATOM     19  C   UNL     1       2.776   2.620  17.265  0.00  0.00    +0.000 A 
ATOM     20  C   UNL     1       1.726   2.314  18.132  0.00  0.00    +0.000 A 
ATOM     21  C   UNL     1       1.428   3.166  19.196  0.00  0.00    +0.000 A 
ATOM     22  C   UNL     1       2.178   4.332  19.405  0.00  0.00    +0.000 A 
ATOM     23  C   UNL     1       3.238   4.623  18.532  0.00  0.00    +0.000 A 
BRANCH  22  24
ATOM     24  C   UNL     1       1.863   5.276  20.538  0.00  0.00    +0.000 C 
ATOM     25  F   UNL     1       0.528   5.420  20.775  0.00  0.00    +0.000 F 
ATOM     26  F   UNL     1       2.406   4.870  21.721  0.00  0.00    +0.000 F 
ATOM     27  F   UNL     1       2.339   6.533  20.322  0.00  0.00    +0.000 F 
ENDBRANCH  22  24
ENDBRANCH  17  18
ENDBRANCH  15  17
ENDBRANCH   1  15
TORSDOF 7
ENDMDL
MODEL 5
REMARK VINA RESULT:      -7.8      1.495      2.398
REMARK  Name = 
REMARK  8 active torsions:
REMARK  status: ('A' for Active; 'I' for Inactive)
REMARK    1  A    between atoms: C_1  and  O_2
REMARK    2  A    between atoms: O_2  and  C_3
REMARK    3  A    between atoms: C_6  and  C_7
REMARK    4  A    between atoms: C_9  and  C_10
REMARK    5  A    between atoms: C_10  and  N_11
REMARK    6  A    between atoms: N_11  and  C_12
REMARK    7  A    between atoms: C_12  and  C_13
REMARK    8  A    between atoms: C_17  and  C_18
REMARK                            x       y       z     vdW  Elec       q    Type
REMARK                         _______ _______ _______ _____ _____    ______ ____
ROOT
ATOM      1  C   UNL     1       6.542   6.186  16.385  0.00  0.00    +0.000 C 
ENDROOT
BRANCH   1   4
ATOM      2  C   UNL     1       8.249   8.767  18.150  0.00  0.00    +0.000 A 
ATOM      3  N   UNL     1       7.470   8.394  17.148  0.00  0.00    +0.000 NA
ATOM      4  C   UNL     1       7.301   7.035  17.342  0.00  0.00    +0.000 A 
ATOM      5  C   UNL     1       7.993   6.646  18.464  0.00  0.00    +0.000 A 
ATOM      6  O   UNL     1       8.602   7.740  18.988  0.00  0.00    +0.000 OA
BRANCH   2  10
ATOM      7  C   UNL     1       9.848  12.622  19.115  0.00  0.00    +0.000 A 
ATOM      8  C   UNL     1      10.070  11.531  19.957  0.00  0.00    +0.000 A 
ATOM      9  C   UNL     1       9.552  10.268  19.641  0.00  0.00    +0.000 A 
ATOM     10  C   UNL     1       8.788  10.082  18.481  0.00  0.00    +0.000 A 
ATOM     11  C   UNL     1       8.549  11.193  17.658  0.00  0.00    +0.000 A 
ATOM     12  C   UNL     1       9.073  12.452  17.970  0.00  0.00    +0.000 A 
BRANCH   7  14
ATOM     13  C   UNL     1      10.775  14.700  18.479  0.00  0.00    +0.000 C 
ATOM     14  O   UNL     1      10.399  13.806  19.522  0.00  0.00    +0.000 OA
ENDBRANCH   7  14
ENDBRANCH   2  10
ENDBRANCH   1   4
BRANCH   1  15
ATOM     15  N   UNL     1       5.328   5.650  17.008  0.00  0.00    +0.000 NA
ATOM     16  H   UNL     1       4.543   5.880  16.396  0.00  0.00    +0.000 HD
BRANCH  15  17
ATOM     17  C   UNL     1       5.373   4.195  17.168  0.00  0.00    +0.000 C 
BRANCH  17  18
ATOM     18  C   UNL     1       4.102   3.686  17.805  0.00  0.00    +0.000 A 
ATOM     19  C   UNL     1       3.484   2.521  17.335  0.00  0.00    +0.000 A 
ATOM     20  C   UNL     1       2.310   2.053  17.926  0.00  0.00    +0.000 A 
ATOM     21  C   UNL     1       1.739   2.747  18.993  0.00  0.00    +0.000 A 
ATOM     22  C   UNL     1       2.338   3.919  19.480  0.00  0.00    +0.000 A 
ATOM     23  C   UNL     1       3.524   4.374  18.884  0.00  0.00    +0.000 A 
BRANCH  22  24
ATOM     24  C   UNL     1       1.729   4.695  20.621  0.00  0.00    +0.000 C 
ATOM     25  F   UNL     1       0.376   4.560  20.714  0.00  0.00    +0.000 F 
ATOM     26  F   UNL     1       2.222   4.313  21.833  0.00  0.00    +0.000 F 
ATOM     27  F   UNL     1       1.963   6.033  20.529  0.00  0.00    +0.000 F 
ENDBRANCH  22  24
ENDBRANCH  17  18
ENDBRANCH  15  17
ENDBRANCH   1  15
TORSDOF 7
ENDMDL
MODEL 6
REMARK VINA RESULT:      -7.8      1.359      1.982
REMARK  Name = 
REMARK  8 active torsions:
REMARK  status: ('A' for Active; 'I' for Inactive)
REMARK    1  A    between atoms: C_1  and  O_2
REMARK    2  A    between atoms: O_2  and  C_3
REMARK    3  A    between atoms: C_6  and  C_7
REMARK    4  A    between atoms: C_9  and  C_10
REMARK    5  A    between atoms: C_10  and  N_11
REMARK    6  A    between atoms: N_11  and  C_12
REMARK    7  A    between atoms: C_12  and  C_13
REMARK    8  A    between atoms: C_17  and  C_18
REMARK                            x       y       z     vdW  Elec       q    Type
REMARK                         _______ _______ _______ _____ _____    ______ ____
ROOT
ATOM      1  C   UNL     1       6.541   5.886  16.326  0.00  0.00    +0.000 C 
ENDROOT
BRANCH   1   4
ATOM      2  C   UNL     1       8.148   8.552  18.057  0.00  0.00    +0.000 A 
ATOM      3  N   UNL     1       7.400   8.134  17.050  0.00  0.00    +0.000 NA
ATOM      4  C   UNL     1       7.259   6.777  17.276  0.00  0.00    +0.000 A 
ATOM      5  C   UNL     1       7.937   6.434  18.422  0.00  0.00    +0.000 A 
ATOM      6  O   UNL     1       8.508   7.556  18.929  0.00  0.00    +0.000 OA
BRANCH   2  10
ATOM      7  C   UNL     1       9.634  12.469  18.950  0.00  0.00    +0.000 A 
ATOM      8  C   UNL     1       9.956  11.385  19.768  0.00  0.00    +0.000 A 
ATOM      9  C   UNL     1       9.475  10.102  19.475  0.00  0.00    +0.000 A 
ATOM     10  C   UNL     1       8.649   9.889  18.364  0.00  0.00    +0.000 A 
ATOM     11  C   UNL     1       8.311  10.991  17.566  0.00  0.00    +0.000 A 
ATOM     12  C   UNL     1       8.797  12.271  17.854  0.00  0.00    +0.000 A 
BRANCH   7  14
ATOM     13  C   UNL     1       9.248  14.567  19.967  0.00  0.00    +0.000 C 
ATOM     14  O   UNL     1      10.157  13.674  19.331  0.00  0.00    +0.000 OA
ENDBRANCH   7  14
ENDBRANCH   2  10
ENDBRANCH   1   4
BRANCH   1  15
ATOM     15  N   UNL     1       5.106   5.847  16.626  0.00  0.00    +0.000 NA
ATOM     16  H   UNL     1       4.730   4.990  16.215  0.00  0.00    +0.000 HD
BRANCH  15  17
ATOM     17  C   UNL     1       4.832   5.822  18.064  0.00  0.00    +0.000 C 
BRANCH  17  18
ATOM     18  C   UNL     1       3.709   4.863  18.380  0.00  0.00    +0.000 A 
ATOM     19  C   UNL     1       2.892   4.359  17.361  0.00  0.00    +0.000 A 
ATOM     20  C   UNL     1       1.856   3.473  17.655  0.00  0.00    +0.000 A 
ATOM     21  C   UNL     1       1.624   3.083  18.974  0.00  0.00    +0.000 A 
ATOM     22  C   UNL     1       2.427   3.576  20.013  0.00  0.00    +0.000 A 
ATOM     23  C   UNL     1       3.472   4.459  19.703  0.00  0.00    +0.000 A 
BRANCH  22  24
ATOM     24  C   UNL     1       2.183   3.181  21.448  0.00  0.00    +0.000 C 
ATOM     25  F   UNL     1       2.408   4.188  22.339  0.00  0.00    +0.000 F 
ATOM     26  F   UNL     1       0.900   2.777  21.667  0.00  0.00    +0.000 F 
ATOM     27  F   UNL     1       2.973   2.148  21.850  0.00  0.00    +0.000 F 
ENDBRANCH  22  24
ENDBRANCH  17  18
ENDBRANCH  15  17
ENDBRANCH   1  15
TORSDOF 7
ENDMDL
MODEL 7
REMARK VINA RESULT:      -7.7      1.528      2.093
REMARK  Name = 
REMARK  8 active torsions:
REMARK  status: ('A' for Active; 'I' for Inactive)
REMARK    1  A    between atoms: C_1  and  O_2
REMARK    2  A    between atoms: O_2  and  C_3
REMARK    3  A    between atoms: C_6  and  C_7
REMARK    4  A    between atoms: C_9  and  C_10
REMARK    5  A    between atoms: C_10  and  N_11
REMARK    6  A    between atoms: N_11  and  C_12
REMARK    7  A    between atoms: C_12  and  C_13
REMARK    8  A    between atoms: C_17  and  C_18
REMARK                            x       y       z     vdW  Elec       q    Type
REMARK                         _______ _______ _______ _____ _____    ______ ____
ROOT
ATOM      1  C   UNL     1       6.286   6.257  16.567  0.00  0.00    +0.000 C 
ENDROOT
BRANCH   1   4
ATOM      2  C   UNL     1       8.198   8.816  18.144  0.00  0.00    +0.000 A 
ATOM      3  N   UNL     1       7.307   8.454  17.236  0.00  0.00    +0.000 NA
ATOM      4  C   UNL     1       7.155   7.094  17.438  0.00  0.00    +0.000 A 
ATOM      5  C   UNL     1       7.970   6.693  18.469  0.00  0.00    +0.000 A 
ATOM      6  O   UNL     1       8.640   7.780  18.928  0.00  0.00    +0.000 OA
BRANCH   2  10
ATOM      7  C   UNL     1       9.883  12.667  18.968  0.00  0.00    +0.000 A 
ATOM      8  C   UNL     1       8.980  12.498  17.917  0.00  0.00    +0.000 A 
ATOM      9  C   UNL     1       8.424  11.240  17.649  0.00  0.00    +0.000 A 
ATOM     10  C   UNL     1       8.778  10.126  18.421  0.00  0.00    +0.000 A 
ATOM     11  C   UNL     1       9.707  10.305  19.457  0.00  0.00    +0.000 A 
ATOM     12  C   UNL     1      10.255  11.562  19.729  0.00  0.00    +0.000 A 
BRANCH   7  14
ATOM     13  C   UNL     1      11.706  14.030  19.600  0.00  0.00    +0.000 C 
ATOM     14  O   UNL     1      10.362  13.937  19.138  0.00  0.00    +0.000 OA
ENDBRANCH   7  14
ENDBRANCH   2  10
ENDBRANCH   1   4
BRANCH   1  15
ATOM     15  N   UNL     1       6.507   4.830  16.823  0.00  0.00    +0.000 NA
ATOM     16  H   UNL     1       7.510   4.655  16.735  0.00  0.00    +0.000 HD
BRANCH  15  17
ATOM     17  C   UNL     1       6.088   4.428  18.167  0.00  0.00    +0.000 C 
BRANCH  17  18
ATOM     18  C   UNL     1       4.599   4.184  18.214  0.00  0.00    +0.000 A 
ATOM     19  C   UNL     1       3.935   3.597  17.129  0.00  0.00    +0.000 A 
ATOM     20  C   UNL     1       2.560   3.373  17.176  0.00  0.00    +0.000 A 
ATOM     21  C   UNL     1       1.830   3.736  18.308  0.00  0.00    +0.000 A 
ATOM     22  C   UNL     1       2.471   4.328  19.407  0.00  0.00    +0.000 A 
ATOM     23  C   UNL     1       3.856   4.540  19.351  0.00  0.00    +0.000 A 
BRANCH  22  24
ATOM     24  C   UNL     1       1.699   4.745  20.633  0.00  0.00    +0.000 C 
ATOM     25  F   UNL     1       1.735   6.086  20.874  0.00  0.00    +0.000 F 
ATOM     26  F   UNL     1       0.378   4.421  20.554  0.00  0.00    +0.000 F 
ATOM     27  F   UNL     1       2.160   4.153  21.769  0.00  0.00    +0.000 F 
ENDBRANCH  22  24
ENDBRANCH  17  18
ENDBRANCH  15  17
ENDBRANCH   1  15
TORSDOF 7
ENDMDL
MODEL 8
REMARK VINA RESULT:      -7.6      0.624      1.147
REMARK  Name = 
REMARK  8 active torsions:
REMARK  status: ('A' for Active; 'I' for Inactive)
REMARK    1  A    between atoms: C_1  and  O_2
REMARK    2  A    between atoms: O_2  and  C_3
REMARK    3  A    between atoms: C_6  and  C_7
REMARK    4  A    between atoms: C_9  and  C_10
REMARK    5  A    between atoms: C_10  and  N_11
REMARK    6  A    between atoms: N_11  and  C_12
REMARK    7  A    between atoms: C_12  and  C_13
REMARK    8  A    between atoms: C_17  and  C_18
REMARK                            x       y       z     vdW  Elec       q    Type
REMARK                         _______ _______ _______ _____ _____    ______ ____
ROOT
ATOM      1  C   UNL     1       6.657   5.906  16.231  0.00  0.00    +0.000 C 
ENDROOT
BRANCH   1   4
ATOM      2  C   UNL     1       8.164   8.559  18.069  0.00  0.00    +0.000 A 
ATOM      3  N   UNL     1       7.481   8.148  17.014  0.00  0.00    +0.000 NA
ATOM      4  C   UNL     1       7.317   6.791  17.228  0.00  0.00    +0.000 A 
ATOM      5  C   UNL     1       7.916   6.442  18.415  0.00  0.00    +0.000 A 
ATOM      6  O   UNL     1       8.460   7.559  18.961  0.00  0.00    +0.000 OA
BRANCH   2  10
ATOM      7  C   UNL     1       9.613  12.465  19.065  0.00  0.00    +0.000 A 
ATOM      8  C   UNL     1       9.856  11.382  19.911  0.00  0.00    +0.000 A 
ATOM      9  C   UNL     1       9.387  10.103  19.585  0.00  0.00    +0.000 A 
ATOM     10  C   UNL     1       8.652   9.892  18.411  0.00  0.00    +0.000 A 
ATOM     11  C   UNL     1       8.392  10.994  17.583  0.00  0.00    +0.000 A 
ATOM     12  C   UNL     1       8.867  12.270  17.905  0.00  0.00    +0.000 A 
BRANCH   7  14
ATOM     13  C   UNL     1      10.533  14.552  18.448  0.00  0.00    +0.000 C 
ATOM     14  O   UNL     1      10.116  13.667  19.482  0.00  0.00    +0.000 OA
ENDBRANCH   7  14
ENDBRANCH   2  10
ENDBRANCH   1   4
BRANCH   1  15
ATOM     15  N   UNL     1       5.350   5.451  16.718  0.00  0.00    +0.000 NA
ATOM     16  H   UNL     1       5.521   4.735  17.427  0.00  0.00    +0.000 HD
BRANCH  15  17
ATOM     17  C   UNL     1       4.573   6.528  17.334  0.00  0.00    +0.000 C 
BRANCH  17  18
ATOM     18  C   UNL     1       3.557   5.970  18.302  0.00  0.00    +0.000 A 
ATOM     19  C   UNL     1       2.870   6.815  19.183  0.00  0.00    +0.000 A 
ATOM     20  C   UNL     1       1.931   6.296  20.075  0.00  0.00    +0.000 A 
ATOM     21  C   UNL     1       1.672   4.926  20.099  0.00  0.00    +0.000 A 
ATOM     22  C   UNL     1       2.348   4.059  19.228  0.00  0.00    +0.000 A 
ATOM     23  C   UNL     1       3.283   4.594  18.328  0.00  0.00    +0.000 A 
BRANCH  22  24
ATOM     24  C   UNL     1       2.096   2.572  19.248  0.00  0.00    +0.000 C 
ATOM     25  F   UNL     1       1.010   2.211  19.989  0.00  0.00    +0.000 F 
ATOM     26  F   UNL     1       1.878   2.063  18.003  0.00  0.00    +0.000 F 
ATOM     27  F   UNL     1       3.144   1.869  19.760  0.00  0.00    +0.000 F 
ENDBRANCH  22  24
ENDBRANCH  17  18
ENDBRANCH  15  17
ENDBRANCH   1  15
TORSDOF 7
ENDMDL
MODEL 9
REMARK VINA RESULT:      -7.5      1.471      2.171
REMARK  Name = 
REMARK  8 active torsions:
REMARK  status: ('A' for Active; 'I' for Inactive)
REMARK    1  A    between atoms: C_1  and  O_2
REMARK    2  A    between atoms: O_2  and  C_3
REMARK    3  A    between atoms: C_6  and  C_7
REMARK    4  A    between atoms: C_9  and  C_10
REMARK    5  A    between atoms: C_10  and  N_11
REMARK    6  A    between atoms: N_11  and  C_12
REMARK    7  A    between atoms: C_12  and  C_13
REMARK    8  A    between atoms: C_17  and  C_18
REMARK                            x       y       z     vdW  Elec       q    Type
REMARK                         _______ _______ _______ _____ _____    ______ ____
ROOT
ATOM      1  C   UNL     1       6.063   6.686  16.764  0.00  0.00    +0.000 C 
ENDROOT
BRANCH   1   4
ATOM      2  C   UNL     1       8.374   8.888  18.346  0.00  0.00    +0.000 A 
ATOM      3  N   UNL     1       7.378   8.699  17.497  0.00  0.00    +0.000 NA
ATOM      4  C   UNL     1       7.089   7.351  17.611  0.00  0.00    +0.000 A 
ATOM      5  C   UNL     1       7.933   6.782  18.534  0.00  0.00    +0.000 A 
ATOM      6  O   UNL     1       8.758   7.750  19.009  0.00  0.00    +0.000 OA
BRANCH   2  10
ATOM      7  C   UNL     1      10.578  12.438  19.284  0.00  0.00    +0.000 A 
ATOM      8  C   UNL     1      10.078  11.624  20.302  0.00  0.00    +0.000 A 
ATOM      9  C   UNL     1       9.361  10.460  19.998  0.00  0.00    +0.000 A 
ATOM     10  C   UNL     1       9.119  10.101  18.665  0.00  0.00    +0.000 A 
ATOM     11  C   UNL     1       9.604  10.943  17.652  0.00  0.00    +0.000 A 
ATOM     12  C   UNL     1      10.327  12.101  17.957  0.00  0.00    +0.000 A 
BRANCH   7  14
ATOM     13  C   UNL     1      11.594  14.483  18.674  0.00  0.00    +0.000 C 
ATOM     14  O   UNL     1      11.261  13.549  19.697  0.00  0.00    +0.000 OA
ENDBRANCH   7  14
ENDBRANCH   2  10
ENDBRANCH   1   4
BRANCH   1  15
ATOM     15  N   UNL     1       6.217   5.228  16.800  0.00  0.00    +0.000 NA
ATOM     16  H   UNL     1       7.197   5.019  16.596  0.00  0.00    +0.000 HD
BRANCH  15  17
ATOM     17  C   UNL     1       5.892   4.661  18.110  0.00  0.00    +0.000 C 
BRANCH  17  18
ATOM     18  C   UNL     1       4.443   4.238  18.165  0.00  0.00    +0.000 A 
ATOM     19  C   UNL     1       3.787   3.781  17.016  0.00  0.00    +0.000 A 
ATOM     20  C   UNL     1       2.449   3.391  17.071  0.00  0.00    +0.000 A 
ATOM     21  C   UNL     1       1.750   3.456  18.277  0.00  0.00    +0.000 A 
ATOM     22  C   UNL     1       2.385   3.912  19.442  0.00  0.00    +0.000 A 
ATOM     23  C   UNL     1       3.733   4.293  19.376  0.00  0.00    +0.000 A 
BRANCH  22  24
ATOM     24  C   UNL     1       1.645   4.007  20.752  0.00  0.00    +0.000 C 
ATOM     25  F   UNL     1       2.363   4.603  21.745  0.00  0.00    +0.000 F 
ATOM     26  F   UNL     1       0.492   4.727  20.649  0.00  0.00    +0.000 F 
ATOM     27  F   UNL     1       1.280   2.789  21.238  0.00  0.00    +0.000 F 
ENDBRANCH  22  24
ENDBRANCH  17  18
ENDBRANCH  15  17
ENDBRANCH   1  15
TORSDOF 7
ENDMDL
