MODEL 1
REMARK VINA RESULT:      -7.4      0.000      0.000
REMARK  Name = 
REMARK  4 active torsions:
REMARK  status: ('A' for Active; 'I' for Inactive)
REMARK    1  A    between atoms: C_1  and  N_2
REMARK    2  A    between atoms: C_3  and  C_5
REMARK    3  A    between atoms: C_9  and  N_10
REMARK    4  A    between atoms: C_11  and  C_13
REMARK                            x       y       z     vdW  Elec       q    Type
REMARK                         _______ _______ _______ _____ _____    ______ ____
ROOT
ATOM      1  N   UNL     1       3.961   6.593  17.388  0.00  0.00    +0.000 N 
ATOM      2  C   UNL     1       2.740   6.398  18.017  0.00  0.00    +0.000 C 
ATOM      3  O   UNL     1       2.154   5.318  18.034  0.00  0.00    +0.000 OA
ATOM      4  H   UNL     1       4.441   7.460  17.616  0.00  0.00    +0.000 HD
ENDROOT
BRANCH   2   5
ATOM      5  C   UNL     1       2.143   7.605  18.676  0.00  0.00    +0.000 A 
ATOM      6  C   UNL     1       1.848   8.714  17.879  0.00  0.00    +0.000 A 
ATOM      7  C   UNL     1       1.262   9.837  18.455  0.00  0.00    +0.000 A 
ATOM      8  C   UNL     1       1.013   9.751  19.822  0.00  0.00    +0.000 A 
ATOM      9  N   UNL     1       0.424  10.639  20.693  0.00  0.00    +0.000 N 
ATOM     10  C   UNL     1       0.397  10.105  21.957  0.00  0.00    +0.000 A 
ATOM     11  C   UNL     1       0.985   8.860  21.904  0.00  0.00    +0.000 A 
ATOM     12  C   UNL     1       1.359   8.620  20.560  0.00  0.00    +0.000 A 
ATOM     13  N   UNL     1       1.936   7.518  20.019  0.00  0.00    +0.000 NA
ATOM     14  H   UNL     1       0.050  11.541  20.432  0.00  0.00    +0.000 HD
ENDBRANCH   2   5
BRANCH   1  19
ATOM     15  C   UNL     1       5.696   4.780  17.589  0.00  0.00    +0.000 C 
ATOM     16  C   UNL     1       6.649   4.195  16.545  0.00  0.00    +0.000 C 
ATOM     17  C   UNL     1       6.809   5.319  15.536  0.00  0.00    +0.000 C 
ATOM     18  C   UNL     1       5.465   6.036  15.517  0.00  0.00    +0.000 C 
ATOM     19  C   UNL     1       4.652   5.504  16.717  0.00  0.00    +0.000 C 
BRANCH  15  22
ATOM     20  C   UNL     1       3.559   1.800  18.615  0.00  0.00    +0.000 C 
ATOM     21  N   UNL     1       4.180   2.881  17.886  0.00  0.00    +0.000 N 
ATOM     22  C   UNL     1       5.104   3.705  18.492  0.00  0.00    +0.000 C 
ATOM     23  O   UNL     1       5.445   3.554  19.664  0.00  0.00    +0.000 OA
ATOM     24  H   UNL     1       4.001   2.961  16.893  0.00  0.00    +0.000 HD
ENDBRANCH  15  22
ENDBRANCH   1  19
TORSDOF 3
ENDMDL
MODEL 2
REMARK VINA RESULT:      -7.2      1.943      2.860
REMARK  Name = 
REMARK  4 active torsions:
REMARK  status: ('A' for Active; 'I' for Inactive)
REMARK    1  A    between atoms: C_1  and  N_2
REMARK    2  A    between atoms: C_3  and  C_5
REMARK    3  A    between atoms: C_9  and  N_10
REMARK    4  A    between atoms: C_11  and  C_13
REMARK                            x       y       z     vdW  Elec       q    Type
REMARK                         _______ _______ _______ _____ _____    ______ ____
ROOT
ATOM      1  N   UNL     1       4.041   6.764  17.811  0.00  0.00    +0.000 N 
ATOM      2  C   UNL     1       3.185   6.706  18.899  0.00  0.00    +0.000 C 
ATOM      3  O   UNL     1       3.184   5.782  19.710  0.00  0.00    +0.000 OA
ATOM      4  H   UNL     1       4.093   7.663  17.337  0.00  0.00    +0.000 HD
ENDROOT
BRANCH   2   5
ATOM      5  C   UNL     1       2.219   7.845  19.035  0.00  0.00    +0.000 A 
ATOM      6  C   UNL     1       1.873   8.556  17.884  0.00  0.00    +0.000 A 
ATOM      7  C   UNL     1       0.953   9.597  17.971  0.00  0.00    +0.000 A 
ATOM      8  C   UNL     1       0.443   9.844  19.243  0.00  0.00    +0.000 A 
ATOM      9  N   UNL     1      -0.493  10.752  19.683  0.00  0.00    +0.000 N 
ATOM     10  C   UNL     1      -0.673  10.617  21.037  0.00  0.00    +0.000 A 
ATOM     11  C   UNL     1       0.162   9.615  21.478  0.00  0.00    +0.000 A 
ATOM     12  C   UNL     1       0.856   9.108  20.353  0.00  0.00    +0.000 A 
ATOM     13  N   UNL     1       1.755   8.095  20.291  0.00  0.00    +0.000 NA
ATOM     14  H   UNL     1      -0.985  11.406  19.091  0.00  0.00    +0.000 HD
ENDBRANCH   2   5
BRANCH   1  19
ATOM     15  C   UNL     1       6.262   6.199  16.768  0.00  0.00    +0.000 C 
ATOM     16  C   UNL     1       6.761   4.900  16.133  0.00  0.00    +0.000 C 
ATOM     17  C   UNL     1       5.487   4.212  15.675  0.00  0.00    +0.000 C 
ATOM     18  C   UNL     1       4.431   4.597  16.702  0.00  0.00    +0.000 C 
ATOM     19  C   UNL     1       5.031   5.727  17.566  0.00  0.00    +0.000 C 
BRANCH  15  22
ATOM     20  C   UNL     1       8.468   8.981  18.144  0.00  0.00    +0.000 C 
ATOM     21  N   UNL     1       7.508   8.214  17.386  0.00  0.00    +0.000 N 
ATOM     22  C   UNL     1       7.331   6.868  17.623  0.00  0.00    +0.000 C 
ATOM     23  O   UNL     1       7.968   6.267  18.487  0.00  0.00    +0.000 OA
ATOM     24  H   UNL     1       6.894   8.702  16.746  0.00  0.00    +0.000 HD
ENDBRANCH  15  22
ENDBRANCH   1  19
TORSDOF 3
ENDMDL
MODEL 3
REMARK VINA RESULT:      -7.2      1.777      2.896
REMARK  Name = 
REMARK  4 active torsions:
REMARK  status: ('A' for Active; 'I' for Inactive)
REMARK    1  A    between atoms: C_1  and  N_2
REMARK    2  A    between atoms: C_3  and  C_5
REMARK    3  A    between atoms: C_9  and  N_10
REMARK    4  A    between atoms: C_11  and  C_13
REMARK                            x       y       z     vdW  Elec       q    Type
REMARK                         _______ _______ _______ _____ _____    ______ ____
ROOT
ATOM      1  N   UNL     1       2.566   5.727  18.691  0.00  0.00    +0.000 N 
ATOM      2  C   UNL     1       2.138   6.540  19.729  0.00  0.00    +0.000 C 
ATOM      3  O   UNL     1       1.990   6.143  20.882  0.00  0.00    +0.000 OA
ATOM      4  H   UNL     1       2.848   6.208  17.840  0.00  0.00    +0.000 HD
ENDROOT
BRANCH   2   5
ATOM      5  C   UNL     1       1.836   7.963  19.364  0.00  0.00    +0.000 A 
ATOM      6  C   UNL     1       2.248   8.424  18.112  0.00  0.00    +0.000 A 
ATOM      7  C   UNL     1       1.954   9.730  17.729  0.00  0.00    +0.000 A 
ATOM      8  C   UNL     1       1.251  10.485  18.664  0.00  0.00    +0.000 A 
ATOM      9  N   UNL     1       0.770  11.774  18.611  0.00  0.00    +0.000 N 
ATOM     10  C   UNL     1       0.133  12.084  19.786  0.00  0.00    +0.000 A 
ATOM     11  C   UNL     1       0.210  10.985  20.613  0.00  0.00    +0.000 A 
ATOM     12  C   UNL     1       0.896   9.966  19.909  0.00  0.00    +0.000 A 
ATOM     13  N   UNL     1       1.178   8.699  20.302  0.00  0.00    +0.000 NA
ATOM     14  H   UNL     1       0.859  12.390  17.815  0.00  0.00    +0.000 HD
ENDBRANCH   2   5
BRANCH   1  19
ATOM     15  C   UNL     1       3.938   3.760  17.924  0.00  0.00    +0.000 C 
ATOM     16  C   UNL     1       3.627   2.262  17.944  0.00  0.00    +0.000 C 
ATOM     17  C   UNL     1       2.109   2.210  17.923  0.00  0.00    +0.000 C 
ATOM     18  C   UNL     1       1.655   3.436  18.702  0.00  0.00    +0.000 C 
ATOM     19  C   UNL     1       2.898   4.328  18.910  0.00  0.00    +0.000 C 
BRANCH  15  22
ATOM     20  C   UNL     1       7.636   4.551  17.481  0.00  0.00    +0.000 C 
ATOM     21  N   UNL     1       6.244   4.238  17.257  0.00  0.00    +0.000 N 
ATOM     22  C   UNL     1       5.380   4.053  18.315  0.00  0.00    +0.000 C 
ATOM     23  O   UNL     1       5.749   4.152  19.484  0.00  0.00    +0.000 OA
ATOM     24  H   UNL     1       5.889   4.257  16.309  0.00  0.00    +0.000 HD
ENDBRANCH  15  22
ENDBRANCH   1  19
TORSDOF 3
ENDMDL
MODEL 4
REMARK VINA RESULT:      -7.1      1.679      3.006
REMARK  Name = 
REMARK  4 active torsions:
REMARK  status: ('A' for Active; 'I' for Inactive)
REMARK    1  A    between atoms: C_1  and  N_2
REMARK    2  A    between atoms: C_3  and  C_5
REMARK    3  A    between atoms: C_9  and  N_10
REMARK    4  A    between atoms: C_11  and  C_13
REMARK                            x       y       z     vdW  Elec       q    Type
REMARK                         _______ _______ _______ _____ _____    ______ ____
ROOT
ATOM      1  N   UNL     1       2.252   5.212  19.050  0.00  0.00    +0.000 N 
ATOM      2  C   UNL     1       2.989   6.371  19.235  0.00  0.00    +0.000 C 
ATOM      3  O   UNL     1       4.202   6.377  19.434  0.00  0.00    +0.000 OA
ATOM      4  H   UNL     1       1.309   5.340  18.691  0.00  0.00    +0.000 HD
ENDROOT
BRANCH   2   5
ATOM      5  C   UNL     1       2.213   7.654  19.201  0.00  0.00    +0.000 A 
ATOM      6  C   UNL     1       2.127   8.341  17.988  0.00  0.00    +0.000 A 
ATOM      7  C   UNL     1       1.386   9.517  17.915  0.00  0.00    +0.000 A 
ATOM      8  C   UNL     1       0.775   9.916  19.101  0.00  0.00    +0.000 A 
ATOM      9  N   UNL     1      -0.046  10.984  19.381  0.00  0.00    +0.000 N 
ATOM     10  C   UNL     1      -0.407  10.961  20.705  0.00  0.00    +0.000 A 
ATOM     11  C   UNL     1       0.195   9.868  21.289  0.00  0.00    +0.000 A 
ATOM     12  C   UNL     1       0.926   9.192  20.283  0.00  0.00    +0.000 A 
ATOM     13  N   UNL     1       1.649   8.048  20.376  0.00  0.00    +0.000 NA
ATOM     14  H   UNL     1      -0.350  11.671  18.705  0.00  0.00    +0.000 HD
ENDBRANCH   2   5
BRANCH   1  19
ATOM     15  C   UNL     1       3.245   3.366  17.655  0.00  0.00    +0.000 C 
ATOM     16  C   UNL     1       3.264   1.852  17.876  0.00  0.00    +0.000 C 
ATOM     17  C   UNL     1       2.047   1.601  18.750  0.00  0.00    +0.000 C 
ATOM     18  C   UNL     1       1.922   2.838  19.629  0.00  0.00    +0.000 C 
ATOM     19  C   UNL     1       2.883   3.901  19.054  0.00  0.00    +0.000 C 
BRANCH  15  22
ATOM     20  C   UNL     1       6.882   4.489  17.701  0.00  0.00    +0.000 C 
ATOM     21  N   UNL     1       5.563   4.033  18.070  0.00  0.00    +0.000 N 
ATOM     22  C   UNL     1       4.573   3.886  17.121  0.00  0.00    +0.000 C 
ATOM     23  O   UNL     1       4.768   4.126  15.931  0.00  0.00    +0.000 OA
ATOM     24  H   UNL     1       5.405   3.725  19.021  0.00  0.00    +0.000 HD
ENDBRANCH  15  22
ENDBRANCH   1  19
TORSDOF 3
ENDMDL
MODEL 5
REMARK VINA RESULT:      -7.1      1.948      3.556
REMARK  Name = 
REMARK  4 active torsions:
REMARK  status: ('A' for Active; 'I' for Inactive)
REMARK    1  A    between atoms: C_1  and  N_2
REMARK    2  A    between atoms: C_3  and  C_5
REMARK    3  A    between atoms: C_9  and  N_10
REMARK    4  A    between atoms: C_11  and  C_13
REMARK                            x       y       z     vdW  Elec       q    Type
REMARK                         _______ _______ _______ _____ _____    ______ ____
ROOT
ATOM      1  N   UNL     1       1.975   5.801  20.058  0.00  0.00    +0.000 N 
ATOM      2  C   UNL     1       2.640   6.756  19.305  0.00  0.00    +0.000 C 
ATOM      3  O   UNL     1       3.704   6.543  18.729  0.00  0.00    +0.000 OA
ATOM      4  H   UNL     1       1.015   6.027  20.310  0.00  0.00    +0.000 HD
ENDROOT
BRANCH   2   5
ATOM      5  C   UNL     1       1.993   8.108  19.241  0.00  0.00    +0.000 A 
ATOM      6  C   UNL     1       2.103   8.836  18.055  0.00  0.00    +0.000 A 
ATOM      7  C   UNL     1       1.485  10.079  17.952  0.00  0.00    +0.000 A 
ATOM      8  C   UNL     1       0.788  10.499  19.082  0.00  0.00    +0.000 A 
ATOM      9  N   UNL     1       0.043  11.632  19.318  0.00  0.00    +0.000 N 
ATOM     10  C   UNL     1      -0.460  11.602  20.594  0.00  0.00    +0.000 A 
ATOM     11  C   UNL     1      -0.028  10.440  21.193  0.00  0.00    +0.000 A 
ATOM     12  C   UNL     1       0.743   9.729  20.243  0.00  0.00    +0.000 A 
ATOM     13  N   UNL     1       1.343   8.519  20.366  0.00  0.00    +0.000 NA
ATOM     14  H   UNL     1      -0.122  12.365  18.642  0.00  0.00    +0.000 HD
ENDBRANCH   2   5
BRANCH   1  19
ATOM     15  C   UNL     1       1.917   3.442  19.180  0.00  0.00    +0.000 C 
ATOM     16  C   UNL     1       2.091   2.107  19.906  0.00  0.00    +0.000 C 
ATOM     17  C   UNL     1       1.678   2.418  21.335  0.00  0.00    +0.000 C 
ATOM     18  C   UNL     1       2.106   3.860  21.571  0.00  0.00    +0.000 C 
ATOM     19  C   UNL     1       2.491   4.449  20.197  0.00  0.00    +0.000 C 
BRANCH  15  22
ATOM     20  C   UNL     1       4.780   3.735  16.687  0.00  0.00    +0.000 C 
ATOM     21  N   UNL     1       3.978   3.718  17.887  0.00  0.00    +0.000 N 
ATOM     22  C   UNL     1       2.625   3.459  17.832  0.00  0.00    +0.000 C 
ATOM     23  O   UNL     1       2.047   3.226  16.771  0.00  0.00    +0.000 OA
ATOM     24  H   UNL     1       4.443   3.798  18.783  0.00  0.00    +0.000 HD
ENDBRANCH  15  22
ENDBRANCH   1  19
TORSDOF 3
ENDMDL
MODEL 6
REMARK VINA RESULT:      -7.0      0.800      1.509
REMARK  Name = 
REMARK  4 active torsions:
REMARK  status: ('A' for Active; 'I' for Inactive)
REMARK    1  A    between atoms: C_1  and  N_2
REMARK    2  A    between atoms: C_3  and  C_5
REMARK    3  A    between atoms: C_9  and  N_10
REMARK    4  A    between atoms: C_11  and  C_13
REMARK                            x       y       z     vdW  Elec       q    Type
REMARK                         _______ _______ _______ _____ _____    ______ ____
ROOT
ATOM      1  N   UNL     1       3.879   6.589  17.690  0.00  0.00    +0.000 N 
ATOM      2  C   UNL     1       2.643   6.343  18.268  0.00  0.00    +0.000 C 
ATOM      3  O   UNL     1       2.042   5.277  18.152  0.00  0.00    +0.000 OA
ATOM      4  H   UNL     1       4.365   7.418  18.024  0.00  0.00    +0.000 HD
ENDROOT
BRANCH   2   5
ATOM      5  C   UNL     1       2.046   7.477  19.046  0.00  0.00    +0.000 A 
ATOM      6  C   UNL     1       1.793   7.283  20.406  0.00  0.00    +0.000 A 
ATOM      7  C   UNL     1       1.270   8.326  21.164  0.00  0.00    +0.000 A 
ATOM      8  C   UNL     1       1.039   9.513  20.473  0.00  0.00    +0.000 A 
ATOM      9  N   UNL     1       0.572  10.735  20.902  0.00  0.00    +0.000 N 
ATOM     10  C   UNL     1       0.514  11.610  19.846  0.00  0.00    +0.000 A 
ATOM     11  C   UNL     1       0.940  10.942  18.719  0.00  0.00    +0.000 A 
ATOM     12  C   UNL     1       1.290   9.627  19.106  0.00  0.00    +0.000 A 
ATOM     13  N   UNL     1       1.793   8.620  18.349  0.00  0.00    +0.000 NA
ATOM     14  H   UNL     1       0.328  10.956  21.857  0.00  0.00    +0.000 HD
ENDBRANCH   2   5
BRANCH   1  19
ATOM     15  C   UNL     1       5.602   4.755  17.716  0.00  0.00    +0.000 C 
ATOM     16  C   UNL     1       6.563   4.277  16.625  0.00  0.00    +0.000 C 
ATOM     17  C   UNL     1       6.739   5.500  15.741  0.00  0.00    +0.000 C 
ATOM     18  C   UNL     1       5.399   6.222  15.785  0.00  0.00    +0.000 C 
ATOM     19  C   UNL     1       4.571   5.572  16.915  0.00  0.00    +0.000 C 
BRANCH  15  22
ATOM     20  C   UNL     1       3.482   1.665  18.388  0.00  0.00    +0.000 C 
ATOM     21  N   UNL     1       4.110   2.816  17.783  0.00  0.00    +0.000 N 
ATOM     22  C   UNL     1       4.997   3.595  18.495  0.00  0.00    +0.000 C 
ATOM     23  O   UNL     1       5.296   3.344  19.661  0.00  0.00    +0.000 OA
ATOM     24  H   UNL     1       3.967   2.983  16.795  0.00  0.00    +0.000 HD
ENDBRANCH  15  22
ENDBRANCH   1  19
TORSDOF 3
ENDMDL
MODEL 7
REMARK VINA RESULT:      -7.0      2.124      4.092
REMARK  Name = 
REMARK  4 active torsions:
REMARK  status: ('A' for Active; 'I' for Inactive)
REMARK    1  A    between atoms: C_1  and  N_2
REMARK    2  A    between atoms: C_3  and  C_5
REMARK    3  A    between atoms: C_9  and  N_10
REMARK    4  A    between atoms: C_11  and  C_13
REMARK                            x       y       z     vdW  Elec       q    Type
REMARK                         _______ _______ _______ _____ _____    ______ ____
ROOT
ATOM      1  N   UNL     1       1.763   5.899  20.766  0.00  0.00    +0.000 N 
ATOM      2  C   UNL     1       2.193   6.969  19.996  0.00  0.00    +0.000 C 
ATOM      3  O   UNL     1       3.054   6.871  19.124  0.00  0.00    +0.000 OA
ATOM      4  H   UNL     1       0.912   6.055  21.302  0.00  0.00    +0.000 HD
ENDROOT
BRANCH   2   5
ATOM      5  C   UNL     1       1.556   8.292  20.298  0.00  0.00    +0.000 A 
ATOM      6  C   UNL     1       1.173   8.554  21.616  0.00  0.00    +0.000 A 
ATOM      7  C   UNL     1       0.609   9.786  21.936  0.00  0.00    +0.000 A 
ATOM      8  C   UNL     1       0.475  10.678  20.875  0.00  0.00    +0.000 A 
ATOM      9  N   UNL     1       0.003  11.970  20.833  0.00  0.00    +0.000 N 
ATOM     10  C   UNL     1       0.066  12.449  19.548  0.00  0.00    +0.000 A 
ATOM     11  C   UNL     1       0.577  11.450  18.748  0.00  0.00    +0.000 A 
ATOM     12  C   UNL     1       0.855  10.337  19.577  0.00  0.00    +0.000 A 
ATOM     13  N   UNL     1       1.400   9.141  19.245  0.00  0.00    +0.000 NA
ATOM     14  H   UNL     1      -0.323  12.492  21.635  0.00  0.00    +0.000 HD
ENDBRANCH   2   5
BRANCH   1  19
ATOM     15  C   UNL     1       1.538   3.722  19.522  0.00  0.00    +0.000 C 
ATOM     16  C   UNL     1       1.844   2.289  19.961  0.00  0.00    +0.000 C 
ATOM     17  C   UNL     1       1.710   2.341  21.474  0.00  0.00    +0.000 C 
ATOM     18  C   UNL     1       2.177   3.735  21.871  0.00  0.00    +0.000 C 
ATOM     19  C   UNL     1       2.295   4.560  20.571  0.00  0.00    +0.000 C 
BRANCH  15  22
ATOM     20  C   UNL     1       3.899   4.225  16.577  0.00  0.00    +0.000 C 
ATOM     21  N   UNL     1       3.341   4.012  17.892  0.00  0.00    +0.000 N 
ATOM     22  C   UNL     1       1.977   3.989  18.088  0.00  0.00    +0.000 C 
ATOM     23  O   UNL     1       1.181   4.140  17.163  0.00  0.00    +0.000 OA
ATOM     24  H   UNL     1       3.968   3.777  18.652  0.00  0.00    +0.000 HD
ENDBRANCH  15  22
ENDBRANCH   1  19
TORSDOF 3
ENDMDL
MODEL 8
REMARK VINA RESULT:      -6.9      1.898      2.284
REMARK  Name = 
REMARK  4 active torsions:
REMARK  status: ('A' for Active; 'I' for Inactive)
REMARK    1  A    between atoms: C_1  and  N_2
REMARK    2  A    between atoms: C_3  and  C_5
REMARK    3  A    between atoms: C_9  and  N_10
REMARK    4  A    between atoms: C_11  and  C_13
REMARK                            x       y       z     vdW  Elec       q    Type
REMARK                         _______ _______ _______ _____ _____    ______ ____
ROOT
ATOM      1  N   UNL     1       4.114   6.415  17.560  0.00  0.00    +0.000 N 
ATOM      2  C   UNL     1       3.397   6.425  18.746  0.00  0.00    +0.000 C 
ATOM      3  O   UNL     1       3.495   5.550  19.603  0.00  0.00    +0.000 OA
ATOM      4  H   UNL     1       4.107   7.285  17.032  0.00  0.00    +0.000 HD
ENDROOT
BRANCH   2   5
ATOM      5  C   UNL     1       2.454   7.576  18.932  0.00  0.00    +0.000 A 
ATOM      6  C   UNL     1       2.144   8.361  17.819  0.00  0.00    +0.000 A 
ATOM      7  C   UNL     1       1.246   9.416  17.950  0.00  0.00    +0.000 A 
ATOM      8  C   UNL     1       0.718   9.600  19.226  0.00  0.00    +0.000 A 
ATOM      9  N   UNL     1      -0.206  10.502  19.703  0.00  0.00    +0.000 N 
ATOM     10  C   UNL     1      -0.414  10.293  21.043  0.00  0.00    +0.000 A 
ATOM     11  C   UNL     1       0.391   9.248  21.439  0.00  0.00    +0.000 A 
ATOM     12  C   UNL     1       1.094   8.792  20.298  0.00  0.00    +0.000 A 
ATOM     13  N   UNL     1       1.972   7.763  20.192  0.00  0.00    +0.000 NA
ATOM     14  H   UNL     1      -0.672  11.201  19.141  0.00  0.00    +0.000 HD
ENDBRANCH   2   5
BRANCH   1  19
ATOM     15  C   UNL     1       6.461   5.864  16.834  0.00  0.00    +0.000 C 
ATOM     16  C   UNL     1       6.997   4.694  16.007  0.00  0.00    +0.000 C 
ATOM     17  C   UNL     1       5.802   4.266  15.173  0.00  0.00    +0.000 C 
ATOM     18  C   UNL     1       4.586   4.522  16.054  0.00  0.00    +0.000 C 
ATOM     19  C   UNL     1       5.068   5.360  17.258  0.00  0.00    +0.000 C 
BRANCH  15  22
ATOM     20  C   UNL     1       8.315   5.412  20.128  0.00  0.00    +0.000 C 
ATOM     21  N   UNL     1       7.463   5.234  18.976  0.00  0.00    +0.000 N 
ATOM     22  C   UNL     1       7.374   6.207  18.003  0.00  0.00    +0.000 C 
ATOM     23  O   UNL     1       8.014   7.255  18.067  0.00  0.00    +0.000 OA
ATOM     24  H   UNL     1       7.010   4.338  18.842  0.00  0.00    +0.000 HD
ENDBRANCH  15  22
ENDBRANCH   1  19
TORSDOF 3
ENDMDL
MODEL 9
REMARK VINA RESULT:      -6.8      1.598      2.853
REMARK  Name = 
REMARK  4 active torsions:
REMARK  status: ('A' for Active; 'I' for Inactive)
REMARK    1  A    between atoms: C_1  and  N_2
REMARK    2  A    between atoms: C_3  and  C_5
REMARK    3  A    between atoms: C_9  and  N_10
REMARK    4  A    between atoms: C_11  and  C_13
REMARK                            x       y       z     vdW  Elec       q    Type
REMARK                         _______ _______ _______ _____ _____    ______ ____
ROOT
ATOM      1  N   UNL     1       2.924   5.824  20.189  0.00  0.00    +0.000 N 
ATOM      2  C   UNL     1       2.439   6.421  19.036  0.00  0.00    +0.000 C 
ATOM      3  O   UNL     1       2.414   5.860  17.943  0.00  0.00    +0.000 OA
ATOM      4  H   UNL     1       2.703   6.302  21.060  0.00  0.00    +0.000 HD
ENDROOT
BRANCH   2   5
ATOM      5  C   UNL     1       1.951   7.832  19.184  0.00  0.00    +0.000 A 
ATOM      6  C   UNL     1       1.988   8.663  18.062  0.00  0.00    +0.000 A 
ATOM      7  C   UNL     1       1.511   9.968  18.158  0.00  0.00    +0.000 A 
ATOM      8  C   UNL     1       1.023  10.338  19.408  0.00  0.00    +0.000 A 
ATOM      9  N   UNL     1       0.453  11.512  19.846  0.00  0.00    +0.000 N 
ATOM     10  C   UNL     1       0.122  11.403  21.174  0.00  0.00    +0.000 A 
ATOM     11  C   UNL     1       0.491  10.147  21.601  0.00  0.00    +0.000 A 
ATOM     12  C   UNL     1       1.042   9.461  20.492  0.00  0.00    +0.000 A 
ATOM     13  N   UNL     1       1.508   8.189  20.421  0.00  0.00    +0.000 NA
ATOM     14  H   UNL     1       0.287  12.324  19.268  0.00  0.00    +0.000 HD
ENDBRANCH   2   5
BRANCH   1  19
ATOM     15  C   UNL     1       4.140   4.046  18.885  0.00  0.00    +0.000 C 
ATOM     16  C   UNL     1       3.975   2.525  18.885  0.00  0.00    +0.000 C 
ATOM     17  C   UNL     1       2.537   2.320  19.331  0.00  0.00    +0.000 C 
ATOM     18  C   UNL     1       2.253   3.455  20.305  0.00  0.00    +0.000 C 
ATOM     19  C   UNL     1       3.421   4.457  20.185  0.00  0.00    +0.000 C 
BRANCH  15  22
ATOM     20  C   UNL     1       7.636   4.521  17.456  0.00  0.00    +0.000 C 
ATOM     21  N   UNL     1       6.254   4.157  17.657  0.00  0.00    +0.000 N 
ATOM     22  C   UNL     1       5.603   4.465  18.832  0.00  0.00    +0.000 C 
ATOM     23  O   UNL     1       6.161   5.063  19.750  0.00  0.00    +0.000 OA
ATOM     24  H   UNL     1       5.739   3.762  16.879  0.00  0.00    +0.000 HD
ENDBRANCH  15  22
ENDBRANCH   1  19
TORSDOF 3
ENDMDL
