MODEL 1
REMARK VINA RESULT:      -9.3      0.000      0.000
REMARK  Name = 
REMARK  6 active torsions:
REMARK  status: ('A' for Active; 'I' for Inactive)
REMARK    1  A    between atoms: C_2  and  O_3
REMARK    2  A    between atoms: C_2  and  C_4
REMARK    3  A    between atoms: C_11  and  N_12
REMARK    4  A    between atoms: N_12  and  C_13
REMARK    5  A    between atoms: C_17  and  O_18
REMARK    6  A    between atoms: O_18  and  C_19
REMARK                            x       y       z     vdW  Elec       q    Type
REMARK                         _______ _______ _______ _____ _____    ______ ____
ROOT
ATOM      1  C   UNL     1      -3.382  10.351  15.390  0.00  0.00    +0.000 A 
ATOM      2  C   UNL     1      -4.313  11.199  15.979  0.00  0.00    +0.000 A 
ATOM      3  C   UNL     1      -4.102  11.664  17.278  0.00  0.00    +0.000 A 
ATOM      4  C   UNL     1      -2.940  11.308  18.010  0.00  0.00    +0.000 A 
ATOM      5  C   UNL     1      -2.012  10.453  17.391  0.00  0.00    +0.000 A 
ATOM      6  C   UNL     1      -2.237   9.988  16.103  0.00  0.00    +0.000 A 
ATOM      7  N   UNL     1      -0.883  10.068  17.983  0.00  0.00    +0.000 NA
ATOM      8  C   UNL     1      -0.559  10.515  19.216  0.00  0.00    +0.000 A 
ATOM      9  C   UNL     1      -1.414  11.377  19.942  0.00  0.00    +0.000 A 
ATOM     10  C   UNL     1      -1.123  11.867  21.237  0.00  0.00    +0.000 A 
ATOM     11  C   UNL     1      -2.028  12.693  21.879  0.00  0.00    +0.000 A 
ATOM     12  N   UNL     1      -3.191  13.074  21.332  0.00  0.00    +0.000 NA
ATOM     13  C   UNL     1      -3.452  12.615  20.085  0.00  0.00    +0.000 A 
ATOM     14  C   UNL     1      -2.625  11.765  19.329  0.00  0.00    +0.000 A 
ENDROOT
BRANCH   1  16
ATOM     15  O   UNL     1      -4.719   9.601  13.580  0.00  0.00    +0.000 OA
ATOM     16  C   UNL     1      -3.613   9.917  13.992  0.00  0.00    +0.000 C 
BRANCH  16  17
ATOM     17  O   UNL     1      -2.497   9.856  13.241  0.00  0.00    +0.000 OA
ATOM     18  H   UNL     1      -2.586  10.181  12.328  0.00  0.00    +0.000 HD
ENDBRANCH  16  17
ENDBRANCH   1  16
BRANCH   8  19
ATOM     19  N   UNL     1       0.688  10.121  19.780  0.00  0.00    +0.000 N 
ATOM     20  H   UNL     1       0.612  10.165  20.795  0.00  0.00    +0.000 HD
BRANCH  19  21
ATOM     21  C   UNL     1       1.471   9.000  19.404  0.00  0.00    +0.000 A 
ATOM     22  C   UNL     1       2.107   8.891  18.165  0.00  0.00    +0.000 A 
ATOM     23  C   UNL     1       2.785   7.726  17.800  0.00  0.00    +0.000 A 
ATOM     24  C   UNL     1       2.830   6.646  18.677  0.00  0.00    +0.000 A 
ATOM     25  C   UNL     1       2.241   6.752  19.935  0.00  0.00    +0.000 A 
ATOM     26  C   UNL     1       1.657   7.963  20.328  0.00  0.00    +0.000 A 
BRANCH  25  27
ATOM     27  O   UNL     1       2.283   5.621  20.723  0.00  0.00    +0.000 OA
BRANCH  27  28
ATOM     28  C   UNL     1       2.228   4.378  20.129  0.00  0.00    +0.000 A 
ATOM     29  C   UNL     1       3.350   3.625  19.765  0.00  0.00    +0.000 A 
ATOM     30  C   UNL     1       3.196   2.441  19.044  0.00  0.00    +0.000 A 
ATOM     31  C   UNL     1       1.919   1.961  18.763  0.00  0.00    +0.000 A 
ATOM     32  C   UNL     1       0.797   2.651  19.226  0.00  0.00    +0.000 A 
ATOM     33  C   UNL     1       0.952   3.859  19.908  0.00  0.00    +0.000 A 
ENDBRANCH  27  28
ENDBRANCH  25  27
ENDBRANCH  19  21
ENDBRANCH   8  19
TORSDOF 6
ENDMDL
MODEL 2
REMARK VINA RESULT:      -9.3      2.026      3.080
REMARK  Name = 
REMARK  6 active torsions:
REMARK  status: ('A' for Active; 'I' for Inactive)
REMARK    1  A    between atoms: C_2  and  O_3
REMARK    2  A    between atoms: C_2  and  C_4
REMARK    3  A    between atoms: C_11  and  N_12
REMARK    4  A    between atoms: N_12  and  C_13
REMARK    5  A    between atoms: C_17  and  O_18
REMARK    6  A    between atoms: O_18  and  C_19
REMARK                            x       y       z     vdW  Elec       q    Type
REMARK                         _______ _______ _______ _____ _____    ______ ____
ROOT
ATOM      1  C   UNL     1      -2.947  10.346  15.771  0.00  0.00    +0.000 A 
ATOM      2  C   UNL     1      -3.711  11.281  16.460  0.00  0.00    +0.000 A 
ATOM      3  C   UNL     1      -3.344  11.657  17.753  0.00  0.00    +0.000 A 
ATOM      4  C   UNL     1      -2.190  11.120  18.379  0.00  0.00    +0.000 A 
ATOM      5  C   UNL     1      -1.432  10.179  17.660  0.00  0.00    +0.000 A 
ATOM      6  C   UNL     1      -1.812   9.805  16.379  0.00  0.00    +0.000 A 
ATOM      7  N   UNL     1      -0.324   9.624  18.148  0.00  0.00    +0.000 NA
ATOM      8  C   UNL     1       0.146   9.971  19.367  0.00  0.00    +0.000 A 
ATOM      9  C   UNL     1      -0.530  10.904  20.186  0.00  0.00    +0.000 A 
ATOM     10  C   UNL     1      -0.081  11.294  21.470  0.00  0.00    +0.000 A 
ATOM     11  C   UNL     1      -0.818  12.202  22.208  0.00  0.00    +0.000 A 
ATOM     12  N   UNL     1      -1.957  12.756  21.768  0.00  0.00    +0.000 NA
ATOM     13  C   UNL     1      -2.369  12.390  20.531  0.00  0.00    +0.000 A 
ATOM     14  C   UNL     1      -1.720  11.474  19.683  0.00  0.00    +0.000 A 
ENDROOT
BRANCH   1  16
ATOM     15  O   UNL     1      -2.512   9.800  13.503  0.00  0.00    +0.000 OA
ATOM     16  C   UNL     1      -3.337  10.008  14.381  0.00  0.00    +0.000 C 
BRANCH  16  17
ATOM     17  O   UNL     1      -4.666  10.001  14.167  0.00  0.00    +0.000 OA
ATOM     18  H   UNL     1      -5.090  10.875  14.124  0.00  0.00    +0.000 HD
ENDBRANCH  16  17
ENDBRANCH   1  16
BRANCH   8  19
ATOM     19  N   UNL     1       1.367   9.392  19.816  0.00  0.00    +0.000 N 
ATOM     20  H   UNL     1       1.584   9.771  20.737  0.00  0.00    +0.000 HD
BRANCH  19  21
ATOM     21  C   UNL     1       1.726   8.021  19.764  0.00  0.00    +0.000 A 
ATOM     22  C   UNL     1       1.309   7.084  20.712  0.00  0.00    +0.000 A 
ATOM     23  C   UNL     1       1.768   5.765  20.676  0.00  0.00    +0.000 A 
ATOM     24  C   UNL     1       2.660   5.368  19.684  0.00  0.00    +0.000 A 
ATOM     25  C   UNL     1       3.052   6.276  18.702  0.00  0.00    +0.000 A 
ATOM     26  C   UNL     1       2.501   7.564  18.690  0.00  0.00    +0.000 A 
BRANCH  25  27
ATOM     27  O   UNL     1       3.978   5.821  17.788  0.00  0.00    +0.000 OA
BRANCH  27  28
ATOM     28  C   UNL     1       5.321   6.025  18.024  0.00  0.00    +0.000 A 
ATOM     29  C   UNL     1       6.063   5.352  19.002  0.00  0.00    +0.000 A 
ATOM     30  C   UNL     1       7.382   5.725  19.261  0.00  0.00    +0.000 A 
ATOM     31  C   UNL     1       7.990   6.707  18.483  0.00  0.00    +0.000 A 
ATOM     32  C   UNL     1       7.289   7.298  17.431  0.00  0.00    +0.000 A 
ATOM     33  C   UNL     1       5.955   6.957  17.203  0.00  0.00    +0.000 A 
ENDBRANCH  27  28
ENDBRANCH  25  27
ENDBRANCH  19  21
ENDBRANCH   8  19
TORSDOF 6
ENDMDL
MODEL 3
REMARK VINA RESULT:      -9.3      5.237      8.038
REMARK  Name = 
REMARK  6 active torsions:
REMARK  status: ('A' for Active; 'I' for Inactive)
REMARK    1  A    between atoms: C_2  and  O_3
REMARK    2  A    between atoms: C_2  and  C_4
REMARK    3  A    between atoms: C_11  and  N_12
REMARK    4  A    between atoms: N_12  and  C_13
REMARK    5  A    between atoms: C_17  and  O_18
REMARK    6  A    between atoms: O_18  and  C_19
REMARK                            x       y       z     vdW  Elec       q    Type
REMARK                         _______ _______ _______ _____ _____    ______ ____
ROOT
ATOM      1  C   UNL     1       1.464   9.079  19.325  0.00  0.00    +0.000 A 
ATOM      2  C   UNL     1       1.169   8.640  20.611  0.00  0.00    +0.000 A 
ATOM      3  C   UNL     1       1.418   7.313  20.963  0.00  0.00    +0.000 A 
ATOM      4  C   UNL     1       1.989   6.398  20.041  0.00  0.00    +0.000 A 
ATOM      5  C   UNL     1       2.282   6.868  18.749  0.00  0.00    +0.000 A 
ATOM      6  C   UNL     1       2.021   8.186  18.406  0.00  0.00    +0.000 A 
ATOM      7  N   UNL     1       2.831   6.097  17.812  0.00  0.00    +0.000 NA
ATOM      8  C   UNL     1       3.166   4.815  18.078  0.00  0.00    +0.000 A 
ATOM      9  C   UNL     1       2.918   4.228  19.340  0.00  0.00    +0.000 A 
ATOM     10  C   UNL     1       3.245   2.890  19.664  0.00  0.00    +0.000 A 
ATOM     11  C   UNL     1       2.949   2.396  20.921  0.00  0.00    +0.000 A 
ATOM     12  N   UNL     1       2.364   3.128  21.880  0.00  0.00    +0.000 NA
ATOM     13  C   UNL     1       2.072   4.412  21.566  0.00  0.00    +0.000 A 
ATOM     14  C   UNL     1       2.310   5.034  20.327  0.00  0.00    +0.000 A 
ENDROOT
BRANCH   1  16
ATOM     15  O   UNL     1       0.588  11.247  19.728  0.00  0.00    +0.000 OA
ATOM     16  C   UNL     1       1.234  10.507  19.000  0.00  0.00    +0.000 C 
BRANCH  16  17
ATOM     17  O   UNL     1       1.752  10.894  17.820  0.00  0.00    +0.000 OA
ATOM     18  H   UNL     1       1.950  10.178  17.191  0.00  0.00    +0.000 HD
ENDBRANCH  16  17
ENDBRANCH   1  16
BRANCH   8  19
ATOM     19  N   UNL     1       3.807   4.052  17.059  0.00  0.00    +0.000 N 
ATOM     20  H   UNL     1       3.143   3.907  16.300  0.00  0.00    +0.000 HD
BRANCH  19  21
ATOM     21  C   UNL     1       5.105   4.267  16.529  0.00  0.00    +0.000 A 
ATOM     22  C   UNL     1       6.222   4.531  17.325  0.00  0.00    +0.000 A 
ATOM     23  C   UNL     1       7.460   4.835  16.755  0.00  0.00    +0.000 A 
ATOM     24  C   UNL     1       7.594   4.883  15.370  0.00  0.00    +0.000 A 
ATOM     25  C   UNL     1       6.502   4.579  14.560  0.00  0.00    +0.000 A 
ATOM     26  C   UNL     1       5.296   4.173  15.145  0.00  0.00    +0.000 A 
BRANCH  25  27
ATOM     27  O   UNL     1       6.701   4.702  13.200  0.00  0.00    +0.000 OA
BRANCH  27  28
ATOM     28  C   UNL     1       6.423   3.633  12.375  0.00  0.00    +0.000 A 
ATOM     29  C   UNL     1       5.134   3.233  12.006  0.00  0.00    +0.000 A 
ATOM     30  C   UNL     1       4.945   2.057  11.280  0.00  0.00    +0.000 A 
ATOM     31  C   UNL     1       6.049   1.326  10.845  0.00  0.00    +0.000 A 
ATOM     32  C   UNL     1       7.339   1.785  11.112  0.00  0.00    +0.000 A 
ATOM     33  C   UNL     1       7.526   2.938  11.878  0.00  0.00    +0.000 A 
ENDBRANCH  27  28
ENDBRANCH  25  27
ENDBRANCH  19  21
ENDBRANCH   8  19
TORSDOF 6
ENDMDL
MODEL 4
REMARK VINA RESULT:      -9.2      0.187      1.053
REMARK  Name = 
REMARK  6 active torsions:
REMARK  status: ('A' for Active; 'I' for Inactive)
REMARK    1  A    between atoms: C_2  and  O_3
REMARK    2  A    between atoms: C_2  and  C_4
REMARK    3  A    between atoms: C_11  and  N_12
REMARK    4  A    between atoms: N_12  and  C_13
REMARK    5  A    between atoms: C_17  and  O_18
REMARK    6  A    between atoms: O_18  and  C_19
REMARK                            x       y       z     vdW  Elec       q    Type
REMARK                         _______ _______ _______ _____ _____    ______ ____
ROOT
ATOM      1  C   UNL     1      -3.316  10.330  15.409  0.00  0.00    +0.000 A 
ATOM      2  C   UNL     1      -4.243  11.180  16.002  0.00  0.00    +0.000 A 
ATOM      3  C   UNL     1      -4.026  11.641  17.300  0.00  0.00    +0.000 A 
ATOM      4  C   UNL     1      -2.864  11.278  18.030  0.00  0.00    +0.000 A 
ATOM      5  C   UNL     1      -1.941  10.421  17.406  0.00  0.00    +0.000 A 
ATOM      6  C   UNL     1      -2.171   9.960  16.118  0.00  0.00    +0.000 A 
ATOM      7  N   UNL     1      -0.813  10.030  17.995  0.00  0.00    +0.000 NA
ATOM      8  C   UNL     1      -0.485  10.473  19.229  0.00  0.00    +0.000 A 
ATOM      9  C   UNL     1      -1.334  11.336  19.959  0.00  0.00    +0.000 A 
ATOM     10  C   UNL     1      -1.038  11.822  21.254  0.00  0.00    +0.000 A 
ATOM     11  C   UNL     1      -1.938  12.650  21.900  0.00  0.00    +0.000 A 
ATOM     12  N   UNL     1      -3.101  13.038  21.356  0.00  0.00    +0.000 NA
ATOM     13  C   UNL     1      -3.367  12.583  20.109  0.00  0.00    +0.000 A 
ATOM     14  C   UNL     1      -2.545  11.731  19.349  0.00  0.00    +0.000 A 
ENDROOT
BRANCH   1  16
ATOM     15  O   UNL     1      -2.643   9.773  13.202  0.00  0.00    +0.000 OA
ATOM     16  C   UNL     1      -3.552   9.900  14.010  0.00  0.00    +0.000 C 
BRANCH  16  17
ATOM     17  O   UNL     1      -4.849   9.714  13.701  0.00  0.00    +0.000 OA
ATOM     18  H   UNL     1      -5.377  10.525  13.594  0.00  0.00    +0.000 HD
ENDBRANCH  16  17
ENDBRANCH   1  16
BRANCH   8  19
ATOM     19  N   UNL     1       0.762  10.072  19.789  0.00  0.00    +0.000 N 
ATOM     20  H   UNL     1       0.674  10.071  20.804  0.00  0.00    +0.000 HD
BRANCH  19  21
ATOM     21  C   UNL     1       1.565   8.979  19.375  0.00  0.00    +0.000 A 
ATOM     22  C   UNL     1       2.229   8.939  18.146  0.00  0.00    +0.000 A 
ATOM     23  C   UNL     1       2.926   7.800  17.738  0.00  0.00    +0.000 A 
ATOM     24  C   UNL     1       2.964   6.677  18.560  0.00  0.00    +0.000 A 
ATOM     25  C   UNL     1       2.346   6.713  19.808  0.00  0.00    +0.000 A 
ATOM     26  C   UNL     1       1.741   7.898  20.248  0.00  0.00    +0.000 A 
BRANCH  25  27
ATOM     27  O   UNL     1       2.382   5.544  20.539  0.00  0.00    +0.000 OA
BRANCH  27  28
ATOM     28  C   UNL     1       2.279   4.334  19.887  0.00  0.00    +0.000 A 
ATOM     29  C   UNL     1       1.071   3.756  19.479  0.00  0.00    +0.000 A 
ATOM     30  C   UNL     1       1.054   2.465  18.951  0.00  0.00    +0.000 A 
ATOM     31  C   UNL     1       2.252   1.784  18.746  0.00  0.00    +0.000 A 
ATOM     32  C   UNL     1       3.466   2.403  19.044  0.00  0.00    +0.000 A 
ATOM     33  C   UNL     1       3.479   3.677  19.615  0.00  0.00    +0.000 A 
ENDBRANCH  27  28
ENDBRANCH  25  27
ENDBRANCH  19  21
ENDBRANCH   8  19
TORSDOF 6
ENDMDL
MODEL 5
REMARK VINA RESULT:      -9.1      4.014      8.900
REMARK  Name = 
REMARK  6 active torsions:
REMARK  status: ('A' for Active; 'I' for Inactive)
REMARK    1  A    between atoms: C_2  and  O_3
REMARK    2  A    between atoms: C_2  and  C_4
REMARK    3  A    between atoms: C_11  and  N_12
REMARK    4  A    between atoms: N_12  and  C_13
REMARK    5  A    between atoms: C_17  and  O_18
REMARK    6  A    between atoms: O_18  and  C_19
REMARK                            x       y       z     vdW  Elec       q    Type
REMARK                         _______ _______ _______ _____ _____    ______ ____
ROOT
ATOM      1  C   UNL     1       5.733   4.799  16.016  0.00  0.00    +0.000 A 
ATOM      2  C   UNL     1       5.199   3.517  15.936  0.00  0.00    +0.000 A 
ATOM      3  C   UNL     1       4.181   3.137  16.811  0.00  0.00    +0.000 A 
ATOM      4  C   UNL     1       3.658   4.039  17.774  0.00  0.00    +0.000 A 
ATOM      5  C   UNL     1       4.213   5.329  17.831  0.00  0.00    +0.000 A 
ATOM      6  C   UNL     1       5.232   5.694  16.963  0.00  0.00    +0.000 A 
ATOM      7  N   UNL     1       3.788   6.257  18.687  0.00  0.00    +0.000 NA
ATOM      8  C   UNL     1       2.765   6.003  19.533  0.00  0.00    +0.000 A 
ATOM      9  C   UNL     1       2.128   4.741  19.571  0.00  0.00    +0.000 A 
ATOM     10  C   UNL     1       1.057   4.426  20.441  0.00  0.00    +0.000 A 
ATOM     11  C   UNL     1       0.507   3.158  20.421  0.00  0.00    +0.000 A 
ATOM     12  N   UNL     1       0.930   2.185  19.600  0.00  0.00    +0.000 NA
ATOM     13  C   UNL     1       1.942   2.502  18.759  0.00  0.00    +0.000 A 
ATOM     14  C   UNL     1       2.594   3.746  18.684  0.00  0.00    +0.000 A 
ENDROOT
BRANCH   1  16
ATOM     15  O   UNL     1       6.787   4.765  13.890  0.00  0.00    +0.000 OA
ATOM     16  C   UNL     1       6.778   5.186  15.037  0.00  0.00    +0.000 C 
BRANCH  16  17
ATOM     17  O   UNL     1       7.731   5.992  15.539  0.00  0.00    +0.000 OA
ATOM     18  H   UNL     1       7.798   6.013  16.509  0.00  0.00    +0.000 HD
ENDBRANCH  16  17
ENDBRANCH   1  16
BRANCH   8  19
ATOM     19  N   UNL     1       2.309   7.049  20.386  0.00  0.00    +0.000 N 
ATOM     20  H   UNL     1       3.003   7.195  21.116  0.00  0.00    +0.000 HD
BRANCH  19  21
ATOM     21  C   UNL     1       1.765   8.295  19.982  0.00  0.00    +0.000 A 
ATOM     22  C   UNL     1       1.690   8.701  18.647  0.00  0.00    +0.000 A 
ATOM     23  C   UNL     1       1.239   9.978  18.304  0.00  0.00    +0.000 A 
ATOM     24  C   UNL     1       0.859  10.871  19.301  0.00  0.00    +0.000 A 
ATOM     25  C   UNL     1       0.884  10.469  20.636  0.00  0.00    +0.000 A 
ATOM     26  C   UNL     1       1.238   9.152  20.956  0.00  0.00    +0.000 A 
BRANCH  25  27
ATOM     27  O   UNL     1       0.545  11.429  21.566  0.00  0.00    +0.000 OA
BRANCH  27  28
ATOM     28  C   UNL     1      -0.781  11.756  21.750  0.00  0.00    +0.000 A 
ATOM     29  C   UNL     1      -1.606  12.303  20.760  0.00  0.00    +0.000 A 
ATOM     30  C   UNL     1      -2.895  12.730  21.078  0.00  0.00    +0.000 A 
ATOM     31  C   UNL     1      -3.395  12.529  22.363  0.00  0.00    +0.000 A 
ATOM     32  C   UNL     1      -2.616  11.879  23.321  0.00  0.00    +0.000 A 
ATOM     33  C   UNL     1      -1.310  11.493  23.015  0.00  0.00    +0.000 A 
ENDBRANCH  27  28
ENDBRANCH  25  27
ENDBRANCH  19  21
ENDBRANCH   8  19
TORSDOF 6
ENDMDL
MODEL 6
REMARK VINA RESULT:      -9.0      3.416      8.712
REMARK  Name = 
REMARK  6 active torsions:
REMARK  status: ('A' for Active; 'I' for Inactive)
REMARK    1  A    between atoms: C_2  and  O_3
REMARK    2  A    between atoms: C_2  and  C_4
REMARK    3  A    between atoms: C_11  and  N_12
REMARK    4  A    between atoms: N_12  and  C_13
REMARK    5  A    between atoms: C_17  and  O_18
REMARK    6  A    between atoms: O_18  and  C_19
REMARK                            x       y       z     vdW  Elec       q    Type
REMARK                         _______ _______ _______ _____ _____    ______ ____
ROOT
ATOM      1  C   UNL     1       5.979   5.270  16.498  0.00  0.00    +0.000 A 
ATOM      2  C   UNL     1       5.380   4.111  16.017  0.00  0.00    +0.000 A 
ATOM      3  C   UNL     1       4.253   3.597  16.659  0.00  0.00    +0.000 A 
ATOM      4  C   UNL     1       3.685   4.245  17.786  0.00  0.00    +0.000 A 
ATOM      5  C   UNL     1       4.307   5.417  18.250  0.00  0.00    +0.000 A 
ATOM      6  C   UNL     1       5.433   5.914  17.611  0.00  0.00    +0.000 A 
ATOM      7  N   UNL     1       3.848   6.110  19.291  0.00  0.00    +0.000 NA
ATOM      8  C   UNL     1       2.727   5.726  19.940  0.00  0.00    +0.000 A 
ATOM      9  C   UNL     1       2.015   4.563  19.568  0.00  0.00    +0.000 A 
ATOM     10  C   UNL     1       0.840   4.117  20.219  0.00  0.00    +0.000 A 
ATOM     11  C   UNL     1       0.220   2.955  19.797  0.00  0.00    +0.000 A 
ATOM     12  N   UNL     1       0.670   2.210  18.777  0.00  0.00    +0.000 NA
ATOM     13  C   UNL     1       1.784   2.654  18.149  0.00  0.00    +0.000 A 
ATOM     14  C   UNL     1       2.514   3.810  18.483  0.00  0.00    +0.000 A 
ENDROOT
BRANCH   1  16
ATOM     15  O   UNL     1       7.525   5.346  14.699  0.00  0.00    +0.000 OA
ATOM     16  C   UNL     1       7.144   5.816  15.761  0.00  0.00    +0.000 C 
BRANCH  16  17
ATOM     17  O   UNL     1       7.766   6.832  16.388  0.00  0.00    +0.000 OA
ATOM     18  H   UNL     1       7.261   7.259  17.102  0.00  0.00    +0.000 HD
ENDBRANCH  16  17
ENDBRANCH   1  16
BRANCH   8  19
ATOM     19  N   UNL     1       2.245   6.537  21.008  0.00  0.00    +0.000 N 
ATOM     20  H   UNL     1       2.980   6.616  21.708  0.00  0.00    +0.000 HD
BRANCH  19  21
ATOM     21  C   UNL     1       1.555   7.770  20.891  0.00  0.00    +0.000 A 
ATOM     22  C   UNL     1       0.963   8.422  21.976  0.00  0.00    +0.000 A 
ATOM     23  C   UNL     1       0.209   9.583  21.798  0.00  0.00    +0.000 A 
ATOM     24  C   UNL     1       0.032  10.107  20.520  0.00  0.00    +0.000 A 
ATOM     25  C   UNL     1       0.652   9.497  19.431  0.00  0.00    +0.000 A 
ATOM     26  C   UNL     1       1.492   8.395  19.639  0.00  0.00    +0.000 A 
BRANCH  25  27
ATOM     27  O   UNL     1       0.385  10.045  18.194  0.00  0.00    +0.000 OA
BRANCH  27  28
ATOM     28  C   UNL     1      -0.917  10.342  17.851  0.00  0.00    +0.000 A 
ATOM     29  C   UNL     1      -1.678   9.614  16.930  0.00  0.00    +0.000 A 
ATOM     30  C   UNL     1      -2.938  10.072  16.543  0.00  0.00    +0.000 A 
ATOM     31  C   UNL     1      -3.476  11.209  17.143  0.00  0.00    +0.000 A 
ATOM     32  C   UNL     1      -2.768  11.870  18.146  0.00  0.00    +0.000 A 
ATOM     33  C   UNL     1      -1.488  11.438  18.499  0.00  0.00    +0.000 A 
ENDBRANCH  27  28
ENDBRANCH  25  27
ENDBRANCH  19  21
ENDBRANCH   8  19
TORSDOF 6
ENDMDL
MODEL 7
REMARK VINA RESULT:      -9.0      3.819      9.026
REMARK  Name = 
REMARK  6 active torsions:
REMARK  status: ('A' for Active; 'I' for Inactive)
REMARK    1  A    between atoms: C_2  and  O_3
REMARK    2  A    between atoms: C_2  and  C_4
REMARK    3  A    between atoms: C_11  and  N_12
REMARK    4  A    between atoms: N_12  and  C_13
REMARK    5  A    between atoms: C_17  and  O_18
REMARK    6  A    between atoms: O_18  and  C_19
REMARK                            x       y       z     vdW  Elec       q    Type
REMARK                         _______ _______ _______ _____ _____    ______ ____
ROOT
ATOM      1  C   UNL     1       6.007   5.324  16.534  0.00  0.00    +0.000 A 
ATOM      2  C   UNL     1       5.448   4.145  16.054  0.00  0.00    +0.000 A 
ATOM      3  C   UNL     1       4.328   3.602  16.686  0.00  0.00    +0.000 A 
ATOM      4  C   UNL     1       3.728   4.241  17.803  0.00  0.00    +0.000 A 
ATOM      5  C   UNL     1       4.309   5.434  18.265  0.00  0.00    +0.000 A 
ATOM      6  C   UNL     1       5.428   5.959  17.636  0.00  0.00    +0.000 A 
ATOM      7  N   UNL     1       3.818   6.120  19.296  0.00  0.00    +0.000 NA
ATOM      8  C   UNL     1       2.700   5.707  19.934  0.00  0.00    +0.000 A 
ATOM      9  C   UNL     1       2.028   4.521  19.562  0.00  0.00    +0.000 A 
ATOM     10  C   UNL     1       0.858   4.046  20.201  0.00  0.00    +0.000 A 
ATOM     11  C   UNL     1       0.277   2.864  19.780  0.00  0.00    +0.000 A 
ATOM     12  N   UNL     1       0.761   2.125  18.771  0.00  0.00    +0.000 NA
ATOM     13  C   UNL     1       1.869   2.598  18.153  0.00  0.00    +0.000 A 
ATOM     14  C   UNL     1       2.561   3.776  18.488  0.00  0.00    +0.000 A 
ENDROOT
BRANCH   1  16
ATOM     15  O   UNL     1       7.555   5.450  14.741  0.00  0.00    +0.000 OA
ATOM     16  C   UNL     1       7.164   5.899  15.808  0.00  0.00    +0.000 C 
BRANCH  16  17
ATOM     17  O   UNL     1       7.768   6.916  16.450  0.00  0.00    +0.000 OA
ATOM     18  H   UNL     1       7.624   7.800  16.069  0.00  0.00    +0.000 HD
ENDBRANCH  16  17
ENDBRANCH   1  16
BRANCH   8  19
ATOM     19  N   UNL     1       2.183   6.510  20.991  0.00  0.00    +0.000 N 
ATOM     20  H   UNL     1       2.929   6.679  21.663  0.00  0.00    +0.000 HD
BRANCH  19  21
ATOM     21  C   UNL     1       1.383   7.674  20.857  0.00  0.00    +0.000 A 
ATOM     22  C   UNL     1       0.329   7.981  21.721  0.00  0.00    +0.000 A 
ATOM     23  C   UNL     1      -0.495   9.086  21.492  0.00  0.00    +0.000 A 
ATOM     24  C   UNL     1      -0.274   9.899  20.384  0.00  0.00    +0.000 A 
ATOM     25  C   UNL     1       0.800   9.634  19.536  0.00  0.00    +0.000 A 
ATOM     26  C   UNL     1       1.680   8.587  19.837  0.00  0.00    +0.000 A 
BRANCH  25  27
ATOM     27  O   UNL     1       0.919  10.453  18.432  0.00  0.00    +0.000 OA
BRANCH  27  28
ATOM     28  C   UNL     1       0.906  11.821  18.598  0.00  0.00    +0.000 A 
ATOM     29  C   UNL     1      -0.251  12.608  18.586  0.00  0.00    +0.000 A 
ATOM     30  C   UNL     1      -0.153  14.000  18.623  0.00  0.00    +0.000 A 
ATOM     31  C   UNL     1       1.095  14.603  18.762  0.00  0.00    +0.000 A 
ATOM     32  C   UNL     1       2.240  13.817  18.891  0.00  0.00    +0.000 A 
ATOM     33  C   UNL     1       2.145  12.426  18.808  0.00  0.00    +0.000 A 
ENDBRANCH  27  28
ENDBRANCH  25  27
ENDBRANCH  19  21
ENDBRANCH   8  19
TORSDOF 6
ENDMDL
MODEL 8
REMARK VINA RESULT:      -8.9      2.014      2.743
REMARK  Name = 
REMARK  6 active torsions:
REMARK  status: ('A' for Active; 'I' for Inactive)
REMARK    1  A    between atoms: C_2  and  O_3
REMARK    2  A    between atoms: C_2  and  C_4
REMARK    3  A    between atoms: C_11  and  N_12
REMARK    4  A    between atoms: N_12  and  C_13
REMARK    5  A    between atoms: C_17  and  O_18
REMARK    6  A    between atoms: O_18  and  C_19
REMARK                            x       y       z     vdW  Elec       q    Type
REMARK                         _______ _______ _______ _____ _____    ______ ____
ROOT
ATOM      1  C   UNL     1      -3.241  10.333  15.467  0.00  0.00    +0.000 A 
ATOM      2  C   UNL     1      -4.111  11.184  16.141  0.00  0.00    +0.000 A 
ATOM      3  C   UNL     1      -3.802  11.605  17.435  0.00  0.00    +0.000 A 
ATOM      4  C   UNL     1      -2.603  11.202  18.077  0.00  0.00    +0.000 A 
ATOM      5  C   UNL     1      -1.739  10.346  17.373  0.00  0.00    +0.000 A 
ATOM      6  C   UNL     1      -2.060   9.924  16.091  0.00  0.00    +0.000 A 
ATOM      7  N   UNL     1      -0.582   9.919  17.877  0.00  0.00    +0.000 NA
ATOM      8  C   UNL     1      -0.167  10.322  19.098  0.00  0.00    +0.000 A 
ATOM      9  C   UNL     1      -0.950  11.181  19.903  0.00  0.00    +0.000 A 
ATOM     10  C   UNL     1      -0.562  11.626  21.189  0.00  0.00    +0.000 A 
ATOM     11  C   UNL     1      -1.402  12.452  21.913  0.00  0.00    +0.000 A 
ATOM     12  N   UNL     1      -2.590  12.875  21.456  0.00  0.00    +0.000 NA
ATOM     13  C   UNL     1      -2.944  12.459  20.218  0.00  0.00    +0.000 A 
ATOM     14  C   UNL     1      -2.190  11.613  19.384  0.00  0.00    +0.000 A 
ENDROOT
BRANCH   1  16
ATOM     15  O   UNL     1      -4.718   9.693  13.724  0.00  0.00    +0.000 OA
ATOM     16  C   UNL     1      -3.575   9.946  14.076  0.00  0.00    +0.000 C 
BRANCH  16  17
ATOM     17  O   UNL     1      -2.510   9.851  13.259  0.00  0.00    +0.000 OA
ATOM     18  H   UNL     1      -1.953   9.063  13.383  0.00  0.00    +0.000 HD
ENDBRANCH  16  17
ENDBRANCH   1  16
BRANCH   8  19
ATOM     19  N   UNL     1       1.106   9.884  19.565  0.00  0.00    +0.000 N 
ATOM     20  H   UNL     1       1.184  10.118  20.554  0.00  0.00    +0.000 HD
BRANCH  19  21
ATOM     21  C   UNL     1       1.712   8.626  19.318  0.00  0.00    +0.000 A 
ATOM     22  C   UNL     1       1.643   7.555  20.212  0.00  0.00    +0.000 A 
ATOM     23  C   UNL     1       2.338   6.368  19.973  0.00  0.00    +0.000 A 
ATOM     24  C   UNL     1       3.121   6.240  18.829  0.00  0.00    +0.000 A 
ATOM     25  C   UNL     1       3.166   7.281  17.903  0.00  0.00    +0.000 A 
ATOM     26  C   UNL     1       2.380   8.422  18.104  0.00  0.00    +0.000 A 
BRANCH  25  27
ATOM     27  O   UNL     1       4.006   7.098  16.824  0.00  0.00    +0.000 OA
BRANCH  27  28
ATOM     28  C   UNL     1       5.114   6.290  16.956  0.00  0.00    +0.000 A 
ATOM     29  C   UNL     1       6.245   6.618  17.713  0.00  0.00    +0.000 A 
ATOM     30  C   UNL     1       7.375   5.800  17.675  0.00  0.00    +0.000 A 
ATOM     31  C   UNL     1       7.345   4.608  16.954  0.00  0.00    +0.000 A 
ATOM     32  C   UNL     1       6.178   4.222  16.294  0.00  0.00    +0.000 A 
ATOM     33  C   UNL     1       5.064   5.063  16.294  0.00  0.00    +0.000 A 
ENDBRANCH  27  28
ENDBRANCH  25  27
ENDBRANCH  19  21
ENDBRANCH   8  19
TORSDOF 6
ENDMDL
MODEL 9
REMARK VINA RESULT:      -8.9      5.117      9.206
REMARK  Name = 
REMARK  6 active torsions:
REMARK  status: ('A' for Active; 'I' for Inactive)
REMARK    1  A    between atoms: C_2  and  O_3
REMARK    2  A    between atoms: C_2  and  C_4
REMARK    3  A    between atoms: C_11  and  N_12
REMARK    4  A    between atoms: N_12  and  C_13
REMARK    5  A    between atoms: C_17  and  O_18
REMARK    6  A    between atoms: O_18  and  C_19
REMARK                            x       y       z     vdW  Elec       q    Type
REMARK                         _______ _______ _______ _____ _____    ______ ____
ROOT
ATOM      1  C   UNL     1       5.772   3.665  13.201  0.00  0.00    +0.000 A 
ATOM      2  C   UNL     1       6.742   4.661  13.229  0.00  0.00    +0.000 A 
ATOM      3  C   UNL     1       7.097   5.246  14.445  0.00  0.00    +0.000 A 
ATOM      4  C   UNL     1       6.503   4.832  15.666  0.00  0.00    +0.000 A 
ATOM      5  C   UNL     1       5.529   3.821  15.610  0.00  0.00    +0.000 A 
ATOM      6  C   UNL     1       5.176   3.253  14.395  0.00  0.00    +0.000 A 
ATOM      7  N   UNL     1       4.920   3.350  16.697  0.00  0.00    +0.000 NA
ATOM      8  C   UNL     1       5.241   3.810  17.926  0.00  0.00    +0.000 A 
ATOM      9  C   UNL     1       6.204   4.829  18.110  0.00  0.00    +0.000 A 
ATOM     10  C   UNL     1       6.570   5.347  19.375  0.00  0.00    +0.000 A 
ATOM     11  C   UNL     1       7.511   6.357  19.457  0.00  0.00    +0.000 A 
ATOM     12  N   UNL     1       8.120   6.883  18.385  0.00  0.00    +0.000 NA
ATOM     13  C   UNL     1       7.777   6.368  17.181  0.00  0.00    +0.000 A 
ATOM     14  C   UNL     1       6.832   5.351  16.958  0.00  0.00    +0.000 A 
ENDROOT
BRANCH   1  16
ATOM     15  O   UNL     1       4.571   3.446  11.166  0.00  0.00    +0.000 OA
ATOM     16  C   UNL     1       5.456   3.030  11.899  0.00  0.00    +0.000 C 
BRANCH  16  17
ATOM     17  O   UNL     1       6.191   1.936  11.626  0.00  0.00    +0.000 OA
ATOM     18  H   UNL     1       6.517   1.443  12.400  0.00  0.00    +0.000 HD
ENDBRANCH  16  17
ENDBRANCH   1  16
BRANCH   8  19
ATOM     19  N   UNL     1       4.603   3.229  19.060  0.00  0.00    +0.000 N 
ATOM     20  H   UNL     1       5.287   3.154  19.811  0.00  0.00    +0.000 HD
BRANCH  19  21
ATOM     21  C   UNL     1       3.338   3.583  19.594  0.00  0.00    +0.000 A 
ATOM     22  C   UNL     1       2.243   2.716  19.607  0.00  0.00    +0.000 A 
ATOM     23  C   UNL     1       0.989   3.141  20.053  0.00  0.00    +0.000 A 
ATOM     24  C   UNL     1       0.816   4.452  20.489  0.00  0.00    +0.000 A 
ATOM     25  C   UNL     1       1.906   5.318  20.526  0.00  0.00    +0.000 A 
ATOM     26  C   UNL     1       3.178   4.847  20.177  0.00  0.00    +0.000 A 
BRANCH  25  27
ATOM     27  O   UNL     1       1.641   6.613  20.920  0.00  0.00    +0.000 OA
BRANCH  27  28
ATOM     28  C   UNL     1       1.705   7.630  19.993  0.00  0.00    +0.000 A 
ATOM     29  C   UNL     1       1.127   8.894  20.163  0.00  0.00    +0.000 A 
ATOM     30  C   UNL     1       1.126   9.812  19.112  0.00  0.00    +0.000 A 
ATOM     31  C   UNL     1       1.780   9.503  17.921  0.00  0.00    +0.000 A 
ATOM     32  C   UNL     1       2.456   8.290  17.791  0.00  0.00    +0.000 A 
ATOM     33  C   UNL     1       2.418   7.354  18.825  0.00  0.00    +0.000 A 
ENDBRANCH  27  28
ENDBRANCH  25  27
ENDBRANCH  19  21
ENDBRANCH   8  19
TORSDOF 6
ENDMDL
