MODEL 1
REMARK VINA RESULT:      -8.0      0.000      0.000
REMARK  Name = 
REMARK  8 active torsions:
REMARK  status: ('A' for Active; 'I' for Inactive)
REMARK    1  A    between atoms: C_1  and  C_2
REMARK    2  A    between atoms: C_5  and  C_6
REMARK    3  A    between atoms: C_6  and  N_7
REMARK    4  A    between atoms: N_7  and  C_8
REMARK    5  A    between atoms: C_9  and  C_11
REMARK    6  A    between atoms: C_11  and  N_12
REMARK    7  A    between atoms: C_16  and  C_17
REMARK    8  A    between atoms: C_17  and  N_18
REMARK                            x       y       z     vdW  Elec       q    Type
REMARK                         _______ _______ _______ _____ _____    ______ ____
ROOT
ATOM      1  C   UNL     1       2.305   7.546  19.151  0.00  0.00    +0.000 C 
ENDROOT
BRANCH   1   2
ATOM      2  N   UNL     1       2.713   6.511  18.165  0.00  0.00    +0.000 NA
ATOM      3  C   UNL     1       4.148   6.586  17.860  0.00  0.00    +0.000 C 
ATOM      4  C   UNL     1       4.532   5.554  16.803  0.00  0.00    +0.000 C 
ATOM      5  C   UNL     1       4.146   4.141  17.228  0.00  0.00    +0.000 C 
ATOM      6  C   UNL     1       2.669   4.074  17.640  0.00  0.00    +0.000 C 
ATOM      7  C   UNL     1       2.348   5.179  18.661  0.00  0.00    +0.000 C 
BRANCH   6   8
ATOM      8  C   UNL     1       2.285   2.716  18.253  0.00  0.00    +0.000 C 
BRANCH   8   9
ATOM      9  N   UNL     1       2.211   2.713  19.694  0.00  0.00    +0.000 N 
ATOM     10  C   UNL     1       3.229   2.589  20.586  0.00  0.00    +0.000 A 
ATOM     11  N   UNL     1       2.746   2.597  21.806  0.00  0.00    +0.000 NA
ATOM     12  C   UNL     1       1.400   2.711  21.601  0.00  0.00    +0.000 A 
ATOM     13  N   UNL     1       1.023   2.771  20.321  0.00  0.00    +0.000 NA
ENDBRANCH   8   9
ENDBRANCH   6   8
ENDBRANCH   1   2
BRANCH   1  16
ATOM     14  N   UNL     1       1.000   9.702  19.233  0.00  0.00    +0.000 N 
ATOM     15  C   UNL     1       0.609   9.463  20.609  0.00  0.00    +0.000 C 
ATOM     16  C   UNL     1       1.801   8.842  18.484  0.00  0.00    +0.000 C 
ATOM     17  O   UNL     1       2.118   9.080  17.317  0.00  0.00    +0.000 OA
BRANCH  14  18
ATOM     18  C   UNL     1       0.506  10.922  18.593  0.00  0.00    +0.000 C 
BRANCH  18  23
ATOM     19  C   UNL     1      -5.294  10.755  17.988  0.00  0.00    +0.000 C 
ATOM     20  C   UNL     1      -3.797  10.853  18.048  0.00  0.00    +0.000 A 
ATOM     21  C   UNL     1      -2.983   9.934  17.384  0.00  0.00    +0.000 A 
ATOM     22  C   UNL     1      -1.589   9.994  17.512  0.00  0.00    +0.000 A 
ATOM     23  C   UNL     1      -0.980  10.976  18.309  0.00  0.00    +0.000 A 
ATOM     24  C   UNL     1      -1.799  11.928  18.930  0.00  0.00    +0.000 A 
ATOM     25  C   UNL     1      -3.192  11.857  18.813  0.00  0.00    +0.000 A 
ENDBRANCH  18  23
ENDBRANCH  14  18
ENDBRANCH   1  16
TORSDOF 6
ENDMDL
MODEL 2
REMARK VINA RESULT:      -7.9      0.567      1.243
REMARK  Name = 
REMARK  8 active torsions:
REMARK  status: ('A' for Active; 'I' for Inactive)
REMARK    1  A    between atoms: C_1  and  C_2
REMARK    2  A    between atoms: C_5  and  C_6
REMARK    3  A    between atoms: C_6  and  N_7
REMARK    4  A    between atoms: N_7  and  C_8
REMARK    5  A    between atoms: C_9  and  C_11
REMARK    6  A    between atoms: C_11  and  N_12
REMARK    7  A    between atoms: C_16  and  C_17
REMARK    8  A    between atoms: C_17  and  N_18
REMARK                            x       y       z     vdW  Elec       q    Type
REMARK                         _______ _______ _______ _____ _____    ______ ____
ROOT
ATOM      1  C   UNL     1       2.469   7.420  19.072  0.00  0.00    +0.000 C 
ENDROOT
BRANCH   1   2
ATOM      2  N   UNL     1       2.871   6.419  18.050  0.00  0.00    +0.000 NA
ATOM      3  C   UNL     1       4.303   6.506  17.736  0.00  0.00    +0.000 C 
ATOM      4  C   UNL     1       4.680   5.509  16.643  0.00  0.00    +0.000 C 
ATOM      5  C   UNL     1       4.298   4.083  17.024  0.00  0.00    +0.000 C 
ATOM      6  C   UNL     1       2.824   4.000  17.445  0.00  0.00    +0.000 C 
ATOM      7  C   UNL     1       2.510   5.071  18.504  0.00  0.00    +0.000 C 
BRANCH   6   8
ATOM      8  C   UNL     1       2.446   2.623  18.015  0.00  0.00    +0.000 C 
BRANCH   8   9
ATOM      9  N   UNL     1       2.238   2.606  19.443  0.00  0.00    +0.000 N 
ATOM     10  C   UNL     1       1.065   2.725  20.120  0.00  0.00    +0.000 A 
ATOM     11  N   UNL     1       1.300   2.697  21.411  0.00  0.00    +0.000 NA
ATOM     12  C   UNL     1       2.660   2.576  21.471  0.00  0.00    +0.000 A 
ATOM     13  N   UNL     1       3.280   2.530  20.289  0.00  0.00    +0.000 NA
ENDBRANCH   8   9
ENDBRANCH   6   8
ENDBRANCH   1   2
BRANCH   1  16
ATOM     14  N   UNL     1       1.102   9.532  19.249  0.00  0.00    +0.000 N 
ATOM     15  C   UNL     1       0.772   9.252  20.634  0.00  0.00    +0.000 C 
ATOM     16  C   UNL     1       1.900   8.713  18.452  0.00  0.00    +0.000 C 
ATOM     17  O   UNL     1       2.164   8.984  17.280  0.00  0.00    +0.000 OA
BRANCH  14  18
ATOM     18  C   UNL     1       0.546  10.749  18.656  0.00  0.00    +0.000 C 
BRANCH  18  23
ATOM     19  C   UNL     1      -5.126  11.253  17.390  0.00  0.00    +0.000 C 
ATOM     20  C   UNL     1      -3.695  11.056  17.800  0.00  0.00    +0.000 A 
ATOM     21  C   UNL     1      -3.120  11.820  18.816  0.00  0.00    +0.000 A 
ATOM     22  C   UNL     1      -1.762  11.676  19.133  0.00  0.00    +0.000 A 
ATOM     23  C   UNL     1      -0.951  10.765  18.438  0.00  0.00    +0.000 A 
ATOM     24  C   UNL     1      -1.547   9.964  17.456  0.00  0.00    +0.000 A 
ATOM     25  C   UNL     1      -2.899  10.119  17.129  0.00  0.00    +0.000 A 
ENDBRANCH  18  23
ENDBRANCH  14  18
ENDBRANCH   1  16
TORSDOF 6
ENDMDL
MODEL 3
REMARK VINA RESULT:      -7.1      2.041      3.373
REMARK  Name = 
REMARK  8 active torsions:
REMARK  status: ('A' for Active; 'I' for Inactive)
REMARK    1  A    between atoms: C_1  and  C_2
REMARK    2  A    between atoms: C_5  and  C_6
REMARK    3  A    between atoms: C_6  and  N_7
REMARK    4  A    between atoms: N_7  and  C_8
REMARK    5  A    between atoms: C_9  and  C_11
REMARK    6  A    between atoms: C_11  and  N_12
REMARK    7  A    between atoms: C_16  and  C_17
REMARK    8  A    between atoms: C_17  and  N_18
REMARK                            x       y       z     vdW  Elec       q    Type
REMARK                         _______ _______ _______ _____ _____    ______ ____
ROOT
ATOM      1  C   UNL     1       2.413   7.535  19.134  0.00  0.00    +0.000 C 
ENDROOT
BRANCH   1   2
ATOM      2  N   UNL     1       2.746   6.469  18.154  0.00  0.00    +0.000 NA
ATOM      3  C   UNL     1       4.189   6.406  17.886  0.00  0.00    +0.000 C 
ATOM      4  C   UNL     1       4.499   5.343  16.835  0.00  0.00    +0.000 C 
ATOM      5  C   UNL     1       3.968   3.973  17.243  0.00  0.00    +0.000 C 
ATOM      6  C   UNL     1       2.481   4.048  17.616  0.00  0.00    +0.000 C 
ATOM      7  C   UNL     1       2.241   5.176  18.634  0.00  0.00    +0.000 C 
BRANCH   6   8
ATOM      8  C   UNL     1       1.952   2.732  18.212  0.00  0.00    +0.000 C 
BRANCH   8   9
ATOM      9  N   UNL     1       2.045   2.650  19.650  0.00  0.00    +0.000 N 
ATOM     10  C   UNL     1       1.049   2.795  20.563  0.00  0.00    +0.000 A 
ATOM     11  N   UNL     1       1.545   2.685  21.774  0.00  0.00    +0.000 NA
ATOM     12  C   UNL     1       2.877   2.487  21.540  0.00  0.00    +0.000 A 
ATOM     13  N   UNL     1       3.233   2.472  20.254  0.00  0.00    +0.000 NA
ENDBRANCH   8   9
ENDBRANCH   6   8
ENDBRANCH   1   2
BRANCH   1  16
ATOM     14  N   UNL     1       1.093   9.681  19.251  0.00  0.00    +0.000 N 
ATOM     15  C   UNL     1       0.825   9.488  20.664  0.00  0.00    +0.000 C 
ATOM     16  C   UNL     1       1.837   8.802  18.467  0.00  0.00    +0.000 C 
ATOM     17  O   UNL     1       2.049   8.999  17.269  0.00  0.00    +0.000 OA
BRANCH  14  18
ATOM     18  C   UNL     1       0.530  10.872  18.614  0.00  0.00    +0.000 C 
BRANCH  18  23
ATOM     19  C   UNL     1       2.980  16.140  19.151  0.00  0.00    +0.000 C 
ATOM     20  C   UNL     1       2.422  14.747  19.089  0.00  0.00    +0.000 A 
ATOM     21  C   UNL     1       3.004  13.768  18.282  0.00  0.00    +0.000 A 
ATOM     22  C   UNL     1       2.425  12.495  18.177  0.00  0.00    +0.000 A 
ATOM     23  C   UNL     1       1.250  12.177  18.876  0.00  0.00    +0.000 A 
ATOM     24  C   UNL     1       0.701  13.147  19.724  0.00  0.00    +0.000 A 
ATOM     25  C   UNL     1       1.271  14.421  19.817  0.00  0.00    +0.000 A 
ENDBRANCH  18  23
ENDBRANCH  14  18
ENDBRANCH   1  16
TORSDOF 6
ENDMDL
MODEL 4
REMARK VINA RESULT:      -6.8      2.776      8.683
REMARK  Name = 
REMARK  8 active torsions:
REMARK  status: ('A' for Active; 'I' for Inactive)
REMARK    1  A    between atoms: C_1  and  C_2
REMARK    2  A    between atoms: C_5  and  C_6
REMARK    3  A    between atoms: C_6  and  N_7
REMARK    4  A    between atoms: N_7  and  C_8
REMARK    5  A    between atoms: C_9  and  C_11
REMARK    6  A    between atoms: C_11  and  N_12
REMARK    7  A    between atoms: C_16  and  C_17
REMARK    8  A    between atoms: C_17  and  N_18
REMARK                            x       y       z     vdW  Elec       q    Type
REMARK                         _______ _______ _______ _____ _____    ______ ____
ROOT
ATOM      1  C   UNL     1       2.345   6.000  20.085  0.00  0.00    +0.000 C 
ENDROOT
BRANCH   1   2
ATOM      2  N   UNL     1       2.312   7.414  19.628  0.00  0.00    +0.000 NA
ATOM      3  C   UNL     1       2.219   7.512  18.165  0.00  0.00    +0.000 C 
ATOM      4  C   UNL     1       2.244   8.971  17.717  0.00  0.00    +0.000 C 
ATOM      5  C   UNL     1       1.139   9.785  18.382  0.00  0.00    +0.000 C 
ATOM      6  C   UNL     1       1.170   9.613  19.907  0.00  0.00    +0.000 C 
ATOM      7  C   UNL     1       1.200   8.120  20.277  0.00  0.00    +0.000 C 
BRANCH   6   8
ATOM      8  C   UNL     1      -0.039  10.264  20.601  0.00  0.00    +0.000 C 
BRANCH   8   9
ATOM      9  N   UNL     1       0.068  11.693  20.769  0.00  0.00    +0.000 N 
ATOM     10  C   UNL     1      -0.871  12.640  20.504  0.00  0.00    +0.000 A 
ATOM     11  N   UNL     1      -0.375  13.830  20.755  0.00  0.00    +0.000 NA
ATOM     12  C   UNL     1       0.900  13.550  21.160  0.00  0.00    +0.000 A 
ATOM     13  N   UNL     1       1.221  12.254  21.171  0.00  0.00    +0.000 NA
ENDBRANCH   8   9
ENDBRANCH   6   8
ENDBRANCH   1   2
BRANCH   1  16
ATOM     14  N   UNL     1       3.327   4.151  18.678  0.00  0.00    +0.000 N 
ATOM     15  C   UNL     1       2.009   3.715  18.257  0.00  0.00    +0.000 C 
ATOM     16  C   UNL     1       3.561   5.223  19.536  0.00  0.00    +0.000 C 
ATOM     17  O   UNL     1       4.695   5.570  19.870  0.00  0.00    +0.000 OA
BRANCH  14  18
ATOM     18  C   UNL     1       4.478   3.403  18.173  0.00  0.00    +0.000 C 
BRANCH  18  23
ATOM     19  C   UNL     1       7.580   5.220  13.578  0.00  0.00    +0.000 C 
ATOM     20  C   UNL     1       6.757   4.859  14.781  0.00  0.00    +0.000 A 
ATOM     21  C   UNL     1       7.299   4.894  16.067  0.00  0.00    +0.000 A 
ATOM     22  C   UNL     1       6.540   4.480  17.171  0.00  0.00    +0.000 A 
ATOM     23  C   UNL     1       5.223   4.021  17.010  0.00  0.00    +0.000 A 
ATOM     24  C   UNL     1       4.668   4.038  15.724  0.00  0.00    +0.000 A 
ATOM     25  C   UNL     1       5.432   4.437  14.621  0.00  0.00    +0.000 A 
ENDBRANCH  18  23
ENDBRANCH  14  18
ENDBRANCH   1  16
TORSDOF 6
ENDMDL
MODEL 5
REMARK VINA RESULT:      -6.7      3.565      8.832
REMARK  Name = 
REMARK  8 active torsions:
REMARK  status: ('A' for Active; 'I' for Inactive)
REMARK    1  A    between atoms: C_1  and  C_2
REMARK    2  A    between atoms: C_5  and  C_6
REMARK    3  A    between atoms: C_6  and  N_7
REMARK    4  A    between atoms: N_7  and  C_8
REMARK    5  A    between atoms: C_9  and  C_11
REMARK    6  A    between atoms: C_11  and  N_12
REMARK    7  A    between atoms: C_16  and  C_17
REMARK    8  A    between atoms: C_17  and  N_18
REMARK                            x       y       z     vdW  Elec       q    Type
REMARK                         _______ _______ _______ _____ _____    ______ ____
ROOT
ATOM      1  C   UNL     1       0.385  10.221  19.359  0.00  0.00    +0.000 C 
ENDROOT
BRANCH   1   2
ATOM      2  N   UNL     1       0.056  11.216  20.413  0.00  0.00    +0.000 NA
ATOM      3  C   UNL     1       0.861  12.437  20.280  0.00  0.00    +0.000 C 
ATOM      4  C   UNL     1       0.548  13.419  21.406  0.00  0.00    +0.000 C 
ATOM      5  C   UNL     1      -0.938  13.758  21.461  0.00  0.00    +0.000 C 
ATOM      6  C   UNL     1      -1.793  12.484  21.506  0.00  0.00    +0.000 C 
ATOM      7  C   UNL     1      -1.379  11.523  20.377  0.00  0.00    +0.000 C 
BRANCH   6   8
ATOM      8  C   UNL     1      -3.297  12.774  21.373  0.00  0.00    +0.000 C 
BRANCH   8   9
ATOM      9  N   UNL     1      -4.021  12.754  22.621  0.00  0.00    +0.000 N 
ATOM     10  C   UNL     1      -5.176  13.401  22.931  0.00  0.00    +0.000 A 
ATOM     11  N   UNL     1      -5.493  13.155  24.181  0.00  0.00    +0.000 NA
ATOM     12  C   UNL     1      -4.471  12.353  24.603  0.00  0.00    +0.000 A 
ATOM     13  N   UNL     1      -3.537  12.091  23.685  0.00  0.00    +0.000 NA
ENDBRANCH   8   9
ENDBRANCH   6   8
ENDBRANCH   1   2
BRANCH   1  16
ATOM     14  N   UNL     1       2.048   8.349  19.061  0.00  0.00    +0.000 N 
ATOM     15  C   UNL     1       2.312   8.744  17.690  0.00  0.00    +0.000 C 
ATOM     16  C   UNL     1       1.153   9.000  19.907  0.00  0.00    +0.000 C 
ATOM     17  O   UNL     1       0.957   8.639  21.069  0.00  0.00    +0.000 OA
BRANCH  14  18
ATOM     18  C   UNL     1       2.763   7.179  19.575  0.00  0.00    +0.000 C 
BRANCH  18  23
ATOM     19  C   UNL     1       0.732   1.752  18.899  0.00  0.00    +0.000 C 
ATOM     20  C   UNL     1       1.156   3.186  19.036  0.00  0.00    +0.000 A 
ATOM     21  C   UNL     1       1.666   3.898  17.949  0.00  0.00    +0.000 A 
ATOM     22  C   UNL     1       2.129   5.211  18.112  0.00  0.00    +0.000 A 
ATOM     23  C   UNL     1       2.093   5.839  19.367  0.00  0.00    +0.000 A 
ATOM     24  C   UNL     1       1.532   5.138  20.442  0.00  0.00    +0.000 A 
ATOM     25  C   UNL     1       1.084   3.822  20.282  0.00  0.00    +0.000 A 
ENDBRANCH  18  23
ENDBRANCH  14  18
ENDBRANCH   1  16
TORSDOF 6
ENDMDL
MODEL 6
REMARK VINA RESULT:      -6.7      3.474      8.807
REMARK  Name = 
REMARK  8 active torsions:
REMARK  status: ('A' for Active; 'I' for Inactive)
REMARK    1  A    between atoms: C_1  and  C_2
REMARK    2  A    between atoms: C_5  and  C_6
REMARK    3  A    between atoms: C_6  and  N_7
REMARK    4  A    between atoms: N_7  and  C_8
REMARK    5  A    between atoms: C_9  and  C_11
REMARK    6  A    between atoms: C_11  and  N_12
REMARK    7  A    between atoms: C_16  and  C_17
REMARK    8  A    between atoms: C_17  and  N_18
REMARK                            x       y       z     vdW  Elec       q    Type
REMARK                         _______ _______ _______ _____ _____    ______ ____
ROOT
ATOM      1  C   UNL     1      -0.184  10.011  20.070  0.00  0.00    +0.000 C 
ENDROOT
BRANCH   1   2
ATOM      2  N   UNL     1       0.068  11.312  20.741  0.00  0.00    +0.000 NA
ATOM      3  C   UNL     1       1.054  12.121  20.010  0.00  0.00    +0.000 C 
ATOM      4  C   UNL     1       1.339  13.426  20.749  0.00  0.00    +0.000 C 
ATOM      5  C   UNL     1       0.064  14.225  20.995  0.00  0.00    +0.000 C 
ATOM      6  C   UNL     1      -1.007  13.360  21.675  0.00  0.00    +0.000 C 
ATOM      7  C   UNL     1      -1.196  12.041  20.905  0.00  0.00    +0.000 C 
BRANCH   6   8
ATOM      8  C   UNL     1      -2.368  14.069  21.771  0.00  0.00    +0.000 C 
BRANCH   8   9
ATOM      9  N   UNL     1      -3.342  13.381  22.584  0.00  0.00    +0.000 N 
ATOM     10  C   UNL     1      -4.557  12.901  22.210  0.00  0.00    +0.000 A 
ATOM     11  N   UNL     1      -5.158  12.373  23.250  0.00  0.00    +0.000 NA
ATOM     12  C   UNL     1      -4.258  12.576  24.258  0.00  0.00    +0.000 A 
ATOM     13  N   UNL     1      -3.135  13.204  23.901  0.00  0.00    +0.000 NA
ENDBRANCH   8   9
ENDBRANCH   6   8
ENDBRANCH   1   2
BRANCH   1  16
ATOM     14  N   UNL     1       1.683   8.519  19.264  0.00  0.00    +0.000 N 
ATOM     15  C   UNL     1       1.504   8.964  17.895  0.00  0.00    +0.000 C 
ATOM     16  C   UNL     1       0.924   8.973  20.341  0.00  0.00    +0.000 C 
ATOM     17  O   UNL     1       1.107   8.577  21.494  0.00  0.00    +0.000 OA
BRANCH  14  18
ATOM     18  C   UNL     1       2.722   7.520  19.519  0.00  0.00    +0.000 C 
BRANCH  18  23
ATOM     19  C   UNL     1       0.578   2.146  18.776  0.00  0.00    +0.000 C 
ATOM     20  C   UNL     1       1.226   3.482  18.996  0.00  0.00    +0.000 A 
ATOM     21  C   UNL     1       1.295   4.054  20.268  0.00  0.00    +0.000 A 
ATOM     22  C   UNL     1       1.834   5.336  20.444  0.00  0.00    +0.000 A 
ATOM     23  C   UNL     1       2.316   6.072  19.351  0.00  0.00    +0.000 A 
ATOM     24  C   UNL     1       2.293   5.472  18.085  0.00  0.00    +0.000 A 
ATOM     25  C   UNL     1       1.740   4.199  17.908  0.00  0.00    +0.000 A 
ENDBRANCH  18  23
ENDBRANCH  14  18
ENDBRANCH   1  16
TORSDOF 6
ENDMDL
MODEL 7
REMARK VINA RESULT:      -6.7      2.109      3.769
REMARK  Name = 
REMARK  8 active torsions:
REMARK  status: ('A' for Active; 'I' for Inactive)
REMARK    1  A    between atoms: C_1  and  C_2
REMARK    2  A    between atoms: C_5  and  C_6
REMARK    3  A    between atoms: C_6  and  N_7
REMARK    4  A    between atoms: N_7  and  C_8
REMARK    5  A    between atoms: C_9  and  C_11
REMARK    6  A    between atoms: C_11  and  N_12
REMARK    7  A    between atoms: C_16  and  C_17
REMARK    8  A    between atoms: C_17  and  N_18
REMARK                            x       y       z     vdW  Elec       q    Type
REMARK                         _______ _______ _______ _____ _____    ______ ____
ROOT
ATOM      1  C   UNL     1       2.193   6.817  19.864  0.00  0.00    +0.000 C 
ENDROOT
BRANCH   1   2
ATOM      2  N   UNL     1       2.868   5.704  19.147  0.00  0.00    +0.000 NA
ATOM      3  C   UNL     1       1.909   4.877  18.401  0.00  0.00    +0.000 C 
ATOM      4  C   UNL     1       2.617   3.708  17.721  0.00  0.00    +0.000 C 
ATOM      5  C   UNL     1       3.742   4.183  16.807  0.00  0.00    +0.000 C 
ATOM      6  C   UNL     1       4.697   5.125  17.554  0.00  0.00    +0.000 C 
ATOM      7  C   UNL     1       3.906   6.241  18.259  0.00  0.00    +0.000 C 
BRANCH   6   8
ATOM      8  C   UNL     1       5.736   5.775  16.625  0.00  0.00    +0.000 C 
BRANCH   8   9
ATOM      9  N   UNL     1       6.757   6.531  17.309  0.00  0.00    +0.000 N 
ATOM     10  C   UNL     1       7.533   6.137  18.353  0.00  0.00    +0.000 A 
ATOM     11  N   UNL     1       8.317   7.127  18.714  0.00  0.00    +0.000 NA
ATOM     12  C   UNL     1       7.962   8.127  17.852  0.00  0.00    +0.000 A 
ATOM     13  N   UNL     1       6.999   7.812  16.982  0.00  0.00    +0.000 NA
ENDBRANCH   8   9
ENDBRANCH   6   8
ENDBRANCH   1   2
BRANCH   1  16
ATOM     14  N   UNL     1       1.275   9.139  19.509  0.00  0.00    +0.000 N 
ATOM     15  C   UNL     1       0.820   9.215  20.885  0.00  0.00    +0.000 C 
ATOM     16  C   UNL     1       1.932   8.040  18.960  0.00  0.00    +0.000 C 
ATOM     17  O   UNL     1       2.309   8.012  17.787  0.00  0.00    +0.000 OA
BRANCH  14  18
ATOM     18  C   UNL     1       1.010  10.291  18.646  0.00  0.00    +0.000 C 
BRANCH  18  23
ATOM     19  C   UNL     1      -4.733  10.991  17.896  0.00  0.00    +0.000 C 
ATOM     20  C   UNL     1      -3.240  10.870  17.996  0.00  0.00    +0.000 A 
ATOM     21  C   UNL     1      -2.545   9.877  17.303  0.00  0.00    +0.000 A 
ATOM     22  C   UNL     1      -1.161   9.730  17.468  0.00  0.00    +0.000 A 
ATOM     23  C   UNL     1      -0.443  10.573  18.331  0.00  0.00    +0.000 A 
ATOM     24  C   UNL     1      -1.137  11.601  18.982  0.00  0.00    +0.000 A 
ATOM     25  C   UNL     1      -2.521  11.737  18.829  0.00  0.00    +0.000 A 
ENDBRANCH  18  23
ENDBRANCH  14  18
ENDBRANCH   1  16
TORSDOF 6
ENDMDL
MODEL 8
REMARK VINA RESULT:      -6.6      2.402      3.611
REMARK  Name = 
REMARK  8 active torsions:
REMARK  status: ('A' for Active; 'I' for Inactive)
REMARK    1  A    between atoms: C_1  and  C_2
REMARK    2  A    between atoms: C_5  and  C_6
REMARK    3  A    between atoms: C_6  and  N_7
REMARK    4  A    between atoms: N_7  and  C_8
REMARK    5  A    between atoms: C_9  and  C_11
REMARK    6  A    between atoms: C_11  and  N_12
REMARK    7  A    between atoms: C_16  and  C_17
REMARK    8  A    between atoms: C_17  and  N_18
REMARK                            x       y       z     vdW  Elec       q    Type
REMARK                         _______ _______ _______ _____ _____    ______ ____
ROOT
ATOM      1  C   UNL     1       1.268   9.767  17.999  0.00  0.00    +0.000 C 
ENDROOT
BRANCH   1   2
ATOM      2  N   UNL     1       1.883   8.754  18.896  0.00  0.00    +0.000 NA
ATOM      3  C   UNL     1       1.014   8.437  20.037  0.00  0.00    +0.000 C 
ATOM      4  C   UNL     1       1.690   7.439  20.973  0.00  0.00    +0.000 C 
ATOM      5  C   UNL     1       2.101   6.166  20.240  0.00  0.00    +0.000 C 
ATOM      6  C   UNL     1       2.933   6.494  18.991  0.00  0.00    +0.000 C 
ATOM      7  C   UNL     1       2.212   7.546  18.130  0.00  0.00    +0.000 C 
BRANCH   6   8
ATOM      8  C   UNL     1       3.208   5.256  18.121  0.00  0.00    +0.000 C 
BRANCH   8   9
ATOM      9  N   UNL     1       2.491   4.071  18.526  0.00  0.00    +0.000 N 
ATOM     10  C   UNL     1       2.902   3.092  19.376  0.00  0.00    +0.000 A 
ATOM     11  N   UNL     1       1.976   2.166  19.457  0.00  0.00    +0.000 NA
ATOM     12  C   UNL     1       1.009   2.625  18.608  0.00  0.00    +0.000 A 
ATOM     13  N   UNL     1       1.287   3.783  18.003  0.00  0.00    +0.000 NA
ENDBRANCH   8   9
ENDBRANCH   6   8
ENDBRANCH   1   2
BRANCH   1  16
ATOM     14  N   UNL     1      -0.527  11.333  18.826  0.00  0.00    +0.000 N 
ATOM     15  C   UNL     1      -1.572  10.507  18.249  0.00  0.00    +0.000 C 
ATOM     16  C   UNL     1       0.833  11.044  18.749  0.00  0.00    +0.000 C 
ATOM     17  O   UNL     1       1.694  11.766  19.255  0.00  0.00    +0.000 OA
BRANCH  14  18
ATOM     18  C   UNL     1      -0.939  12.554  19.520  0.00  0.00    +0.000 C 
BRANCH  18  23
ATOM     19  C   UNL     1      -4.069  12.401  24.441  0.00  0.00    +0.000 C 
ATOM     20  C   UNL     1      -3.292  12.334  23.158  0.00  0.00    +0.000 A 
ATOM     21  C   UNL     1      -1.992  11.828  23.123  0.00  0.00    +0.000 A 
ATOM     22  C   UNL     1      -1.253  11.844  21.932  0.00  0.00    +0.000 A 
ATOM     23  C   UNL     1      -1.801  12.368  20.750  0.00  0.00    +0.000 A 
ATOM     24  C   UNL     1      -3.125  12.825  20.779  0.00  0.00    +0.000 A 
ATOM     25  C   UNL     1      -3.855  12.823  21.973  0.00  0.00    +0.000 A 
ENDBRANCH  18  23
ENDBRANCH  14  18
ENDBRANCH   1  16
TORSDOF 6
ENDMDL
MODEL 9
REMARK VINA RESULT:      -6.6      3.053      8.388
REMARK  Name = 
REMARK  8 active torsions:
REMARK  status: ('A' for Active; 'I' for Inactive)
REMARK    1  A    between atoms: C_1  and  C_2
REMARK    2  A    between atoms: C_5  and  C_6
REMARK    3  A    between atoms: C_6  and  N_7
REMARK    4  A    between atoms: N_7  and  C_8
REMARK    5  A    between atoms: C_9  and  C_11
REMARK    6  A    between atoms: C_11  and  N_12
REMARK    7  A    between atoms: C_16  and  C_17
REMARK    8  A    between atoms: C_17  and  N_18
REMARK                            x       y       z     vdW  Elec       q    Type
REMARK                         _______ _______ _______ _____ _____    ______ ____
ROOT
ATOM      1  C   UNL     1      -1.114  11.214  20.088  0.00  0.00    +0.000 C 
ENDROOT
BRANCH   1   2
ATOM      2  N   UNL     1      -1.761  11.191  18.750  0.00  0.00    +0.000 NA
ATOM      3  C   UNL     1      -1.696   9.857  18.137  0.00  0.00    +0.000 C 
ATOM      4  C   UNL     1      -2.314   9.871  16.741  0.00  0.00    +0.000 C 
ATOM      5  C   UNL     1      -3.750  10.382  16.765  0.00  0.00    +0.000 C 
ATOM      6  C   UNL     1      -3.842  11.734  17.488  0.00  0.00    +0.000 C 
ATOM      7  C   UNL     1      -3.149  11.655  18.859  0.00  0.00    +0.000 C 
BRANCH   6   8
ATOM      8  C   UNL     1      -5.294  12.195  17.701  0.00  0.00    +0.000 C 
BRANCH   8   9
ATOM      9  N   UNL     1      -5.974  11.539  18.791  0.00  0.00    +0.000 N 
ATOM     10  C   UNL     1      -6.107  11.966  20.075  0.00  0.00    +0.000 A 
ATOM     11  N   UNL     1      -6.765  11.067  20.769  0.00  0.00    +0.000 NA
ATOM     12  C   UNL     1      -6.999  10.083  19.851  0.00  0.00    +0.000 A 
ATOM     13  N   UNL     1      -6.521  10.321  18.627  0.00  0.00    +0.000 NA
ENDBRANCH   8   9
ENDBRANCH   6   8
ENDBRANCH   1   2
BRANCH   1  16
ATOM     14  N   UNL     1       0.412   9.388  20.922  0.00  0.00    +0.000 N 
ATOM     15  C   UNL     1      -0.634   8.841  21.765  0.00  0.00    +0.000 C 
ATOM     16  C   UNL     1       0.256  10.504  20.102  0.00  0.00    +0.000 C 
ATOM     17  O   UNL     1       1.166  10.939  19.395  0.00  0.00    +0.000 OA
BRANCH  14  18
ATOM     18  C   UNL     1       1.717   8.726  20.950  0.00  0.00    +0.000 C 
BRANCH  18  23
ATOM     19  C   UNL     1       2.926   4.052  17.674  0.00  0.00    +0.000 C 
ATOM     20  C   UNL     1       2.516   5.260  18.467  0.00  0.00    +0.000 A 
ATOM     21  C   UNL     1       2.672   6.550  17.956  0.00  0.00    +0.000 A 
ATOM     22  C   UNL     1       2.356   7.668  18.739  0.00  0.00    +0.000 A 
ATOM     23  C   UNL     1       1.877   7.520  20.050  0.00  0.00    +0.000 A 
ATOM     24  C   UNL     1       1.673   6.223  20.538  0.00  0.00    +0.000 A 
ATOM     25  C   UNL     1       2.003   5.107  19.761  0.00  0.00    +0.000 A 
ENDBRANCH  18  23
ENDBRANCH  14  18
ENDBRANCH   1  16
TORSDOF 6
ENDMDL
