MODEL 1
REMARK VINA RESULT:      -7.6      0.000      0.000
REMARK  Name = 
REMARK  11 active torsions:
REMARK  status: ('A' for Active; 'I' for Inactive)
REMARK    1  A    between atoms: C_1  and  O_2
REMARK    2  A    between atoms: O_2  and  C_3
REMARK    3  A    between atoms: C_5  and  C_6
REMARK    4  A    between atoms: N_7  and  N_8
REMARK    5  A    between atoms: C_9  and  C_11
REMARK    6  A    between atoms: C_15  and  N_16
REMARK    7  A    between atoms: C_17  and  C_18
REMARK    8  A    between atoms: C_21  and  O_22
REMARK    9  A    between atoms: O_22  and  C_23
REMARK   10  A    between atoms: C_24  and  O_25
REMARK   11  A    between atoms: O_25  and  C_26
REMARK                            x       y       z     vdW  Elec       q    Type
REMARK                         _______ _______ _______ _____ _____    ______ ____
ROOT
ATOM      1  N   UNL     1       7.775   7.334  17.874  0.00  0.00    +0.000 N 
ATOM      2  C   UNL     1       7.539   6.039  18.344  0.00  0.00    +0.000 C 
ATOM      3  O   UNL     1       7.987   5.574  19.391  0.00  0.00    +0.000 OA
ATOM      4  H   UNL     1       7.520   7.582  16.927  0.00  0.00    +0.000 HD
ENDROOT
BRANCH   2   5
ATOM      5  C   UNL     1       6.710   5.235  17.455  0.00  0.00    +0.000 A 
ATOM      6  C   UNL     1       6.517   5.396  16.053  0.00  0.00    +0.000 A 
ATOM      7  N   UNL     1       5.718   4.473  15.522  0.00  0.00    +0.000 NA
ATOM      8  N   UNL     1       5.347   3.739  16.583  0.00  0.00    +0.000 N 
ATOM      9  C   UNL     1       5.889   4.165  17.774  0.00  0.00    +0.000 A 
ATOM     10  H   UNL     1       4.713   2.953  16.459  0.00  0.00    +0.000 HD
BRANCH   9  11
ATOM     11  N   UNL     1       5.586   3.550  18.983  0.00  0.00    +0.000 N 
ATOM     12  C   UNL     1       4.315   3.056  19.235  0.00  0.00    +0.000 C 
ATOM     13  C   UNL     1       4.121   2.475  20.610  0.00  0.00    +0.000 C 
ATOM     14  O   UNL     1       3.394   3.056  18.417  0.00  0.00    +0.000 OA
ATOM     15  H   UNL     1       6.318   3.513  19.690  0.00  0.00    +0.000 HD
ENDBRANCH   9  11
ENDBRANCH   2   5
BRANCH   1  17
ATOM     16  C   UNL     1       8.540   9.446  18.162  0.00  0.00    +0.000 C 
ATOM     17  N   UNL     1       8.524   8.223  18.594  0.00  0.00    +0.000 NA
BRANCH  16  20
ATOM     18  C   UNL     1      11.031  12.250  18.551  0.00  0.00    +0.000 A 
ATOM     19  C   UNL     1      10.383  11.104  18.065  0.00  0.00    +0.000 A 
ATOM     20  C   UNL     1       9.392  10.475  18.807  0.00  0.00    +0.000 A 
ATOM     21  C   UNL     1       9.133  10.898  20.106  0.00  0.00    +0.000 A 
ATOM     22  C   UNL     1       9.824  12.000  20.641  0.00  0.00    +0.000 A 
ATOM     23  C   UNL     1      10.781  12.698  19.867  0.00  0.00    +0.000 A 
BRANCH  18  25
ATOM     24  C   UNL     1      11.313  13.641  16.659  0.00  0.00    +0.000 C 
ATOM     25  O   UNL     1      11.911  12.928  17.746  0.00  0.00    +0.000 OA
ENDBRANCH  18  25
BRANCH  22  26
ATOM     26  O   UNL     1       9.462  12.261  21.944  0.00  0.00    +0.000 OA
ATOM     27  C   UNL     1       8.249  11.689  22.419  0.00  0.00    +0.000 C 
ENDBRANCH  22  26
BRANCH  23  28
ATOM     28  O   UNL     1      11.394  13.748  20.494  0.00  0.00    +0.000 OA
ATOM     29  C   UNL     1      10.904  15.072  20.360  0.00  0.00    +0.000 C 
ENDBRANCH  23  28
ENDBRANCH  16  20
ENDBRANCH   1  17
TORSDOF 7
ENDMDL
MODEL 2
REMARK VINA RESULT:      -7.5      6.972     10.037
REMARK  Name = 
REMARK  11 active torsions:
REMARK  status: ('A' for Active; 'I' for Inactive)
REMARK    1  A    between atoms: C_1  and  O_2
REMARK    2  A    between atoms: O_2  and  C_3
REMARK    3  A    between atoms: C_5  and  C_6
REMARK    4  A    between atoms: N_7  and  N_8
REMARK    5  A    between atoms: C_9  and  C_11
REMARK    6  A    between atoms: C_15  and  N_16
REMARK    7  A    between atoms: C_17  and  C_18
REMARK    8  A    between atoms: C_21  and  O_22
REMARK    9  A    between atoms: O_22  and  C_23
REMARK   10  A    between atoms: C_24  and  O_25
REMARK   11  A    between atoms: O_25  and  C_26
REMARK                            x       y       z     vdW  Elec       q    Type
REMARK                         _______ _______ _______ _____ _____    ______ ____
ROOT
ATOM      1  N   UNL     1       0.883   9.616  18.268  0.00  0.00    +0.000 N 
ATOM      2  C   UNL     1       1.053  10.991  18.456  0.00  0.00    +0.000 C 
ATOM      3  O   UNL     1       2.101  11.608  18.271  0.00  0.00    +0.000 OA
ATOM      4  H   UNL     1       0.049   9.159  18.609  0.00  0.00    +0.000 HD
ENDROOT
BRANCH   2   5
ATOM      5  C   UNL     1      -0.146  11.668  18.936  0.00  0.00    +0.000 A 
ATOM      6  C   UNL     1      -0.419  12.142  20.251  0.00  0.00    +0.000 A 
ATOM      7  N   UNL     1      -1.599  12.748  20.358  0.00  0.00    +0.000 NA
ATOM      8  N   UNL     1      -2.121  12.626  19.128  0.00  0.00    +0.000 N 
ATOM      9  C   UNL     1      -1.307  11.964  18.238  0.00  0.00    +0.000 A 
ATOM     10  H   UNL     1      -3.045  13.003  18.929  0.00  0.00    +0.000 HD
BRANCH   9  11
ATOM     11  N   UNL     1      -1.699  11.710  16.929  0.00  0.00    +0.000 N 
ATOM     12  C   UNL     1      -2.553  10.660  16.629  0.00  0.00    +0.000 C 
ATOM     13  C   UNL     1      -2.836  10.471  15.163  0.00  0.00    +0.000 C 
ATOM     14  O   UNL     1      -3.076   9.927  17.469  0.00  0.00    +0.000 OA
ATOM     15  H   UNL     1      -1.303  12.297  16.196  0.00  0.00    +0.000 HD
ENDBRANCH   9  11
ENDBRANCH   2   5
BRANCH   1  17
ATOM     16  C   UNL     1       1.945   7.616  18.255  0.00  0.00    +0.000 C 
ATOM     17  N   UNL     1       1.907   8.835  17.810  0.00  0.00    +0.000 NA
BRANCH  16  20
ATOM     18  C   UNL     1       3.795   4.449  17.381  0.00  0.00    +0.000 A 
ATOM     19  C   UNL     1       2.864   5.332  17.949  0.00  0.00    +0.000 A 
ATOM     20  C   UNL     1       3.061   6.706  17.901  0.00  0.00    +0.000 A 
ATOM     21  C   UNL     1       4.261   7.211  17.411  0.00  0.00    +0.000 A 
ATOM     22  C   UNL     1       5.240   6.339  16.905  0.00  0.00    +0.000 A 
ATOM     23  C   UNL     1       5.018   4.941  16.876  0.00  0.00    +0.000 A 
BRANCH  18  25
ATOM     24  C   UNL     1       2.329   2.706  18.019  0.00  0.00    +0.000 C 
ATOM     25  O   UNL     1       3.514   3.107  17.325  0.00  0.00    +0.000 OA
ENDBRANCH  18  25
BRANCH  22  26
ATOM     26  O   UNL     1       6.371   7.006  16.489  0.00  0.00    +0.000 OA
ATOM     27  C   UNL     1       7.370   7.285  17.463  0.00  0.00    +0.000 C 
ENDBRANCH  22  26
BRANCH  23  28
ATOM     28  O   UNL     1       6.044   4.191  16.367  0.00  0.00    +0.000 OA
ATOM     29  C   UNL     1       6.149   3.936  14.977  0.00  0.00    +0.000 C 
ENDBRANCH  23  28
ENDBRANCH  16  20
ENDBRANCH   1  17
TORSDOF 7
ENDMDL
MODEL 3
REMARK VINA RESULT:      -7.4      6.729      8.869
REMARK  Name = 
REMARK  11 active torsions:
REMARK  status: ('A' for Active; 'I' for Inactive)
REMARK    1  A    between atoms: C_1  and  O_2
REMARK    2  A    between atoms: O_2  and  C_3
REMARK    3  A    between atoms: C_5  and  C_6
REMARK    4  A    between atoms: N_7  and  N_8
REMARK    5  A    between atoms: C_9  and  C_11
REMARK    6  A    between atoms: C_15  and  N_16
REMARK    7  A    between atoms: C_17  and  C_18
REMARK    8  A    between atoms: C_21  and  O_22
REMARK    9  A    between atoms: O_22  and  C_23
REMARK   10  A    between atoms: C_24  and  O_25
REMARK   11  A    between atoms: O_25  and  C_26
REMARK                            x       y       z     vdW  Elec       q    Type
REMARK                         _______ _______ _______ _____ _____    ______ ____
ROOT
ATOM      1  N   UNL     1       2.899   6.504  19.664  0.00  0.00    +0.000 N 
ATOM      2  C   UNL     1       2.659   5.329  18.945  0.00  0.00    +0.000 C 
ATOM      3  O   UNL     1       1.729   5.158  18.159  0.00  0.00    +0.000 OA
ATOM      4  H   UNL     1       3.574   6.506  20.417  0.00  0.00    +0.000 HD
ENDROOT
BRANCH   2   5
ATOM      5  C   UNL     1       3.616   4.265  19.225  0.00  0.00    +0.000 A 
ATOM      6  C   UNL     1       3.401   3.065  19.959  0.00  0.00    +0.000 A 
ATOM      7  N   UNL     1       4.474   2.279  20.010  0.00  0.00    +0.000 NA
ATOM      8  N   UNL     1       5.406   2.988  19.354  0.00  0.00    +0.000 N 
ATOM      9  C   UNL     1       4.958   4.200  18.883  0.00  0.00    +0.000 A 
ATOM     10  H   UNL     1       6.347   2.615  19.250  0.00  0.00    +0.000 HD
BRANCH   9  11
ATOM     11  N   UNL     1       5.794   5.086  18.213  0.00  0.00    +0.000 N 
ATOM     12  C   UNL     1       6.885   5.659  18.849  0.00  0.00    +0.000 C 
ATOM     13  C   UNL     1       7.659   6.645  18.017  0.00  0.00    +0.000 C 
ATOM     14  O   UNL     1       7.238   5.393  19.999  0.00  0.00    +0.000 OA
ATOM     15  H   UNL     1       5.551   5.330  17.254  0.00  0.00    +0.000 HD
ENDBRANCH   9  11
ENDBRANCH   2   5
BRANCH   1  17
ATOM     16  C   UNL     1       1.606   8.114  20.595  0.00  0.00    +0.000 C 
ATOM     17  N   UNL     1       2.101   7.603  19.509  0.00  0.00    +0.000 NA
BRANCH  16  20
ATOM     18  C   UNL     1      -0.354  11.149  21.671  0.00  0.00    +0.000 A 
ATOM     19  C   UNL     1       0.330   9.924  21.711  0.00  0.00    +0.000 A 
ATOM     20  C   UNL     1       0.653   9.248  20.541  0.00  0.00    +0.000 A 
ATOM     21  C   UNL     1       0.172   9.715  19.323  0.00  0.00    +0.000 A 
ATOM     22  C   UNL     1      -0.581  10.902  19.269  0.00  0.00    +0.000 A 
ATOM     23  C   UNL     1      -0.849  11.642  20.444  0.00  0.00    +0.000 A 
BRANCH  18  25
ATOM     24  C   UNL     1      -1.856  11.764  23.392  0.00  0.00    +0.000 C 
ATOM     25  O   UNL     1      -0.544  11.861  22.829  0.00  0.00    +0.000 OA
ENDBRANCH  18  25
BRANCH  22  26
ATOM     26  O   UNL     1      -0.997  11.199  17.990  0.00  0.00    +0.000 OA
ATOM     27  C   UNL     1      -1.840  10.258  17.334  0.00  0.00    +0.000 C 
ENDBRANCH  22  26
BRANCH  23  28
ATOM     28  O   UNL     1      -1.595  12.776  20.270  0.00  0.00    +0.000 OA
ATOM     29  C   UNL     1      -3.011  12.725  20.221  0.00  0.00    +0.000 C 
ENDBRANCH  23  28
ENDBRANCH  16  20
ENDBRANCH   1  17
TORSDOF 7
ENDMDL
MODEL 4
REMARK VINA RESULT:      -7.4      2.991      9.514
REMARK  Name = 
REMARK  11 active torsions:
REMARK  status: ('A' for Active; 'I' for Inactive)
REMARK    1  A    between atoms: C_1  and  O_2
REMARK    2  A    between atoms: O_2  and  C_3
REMARK    3  A    between atoms: C_5  and  C_6
REMARK    4  A    between atoms: N_7  and  N_8
REMARK    5  A    between atoms: C_9  and  C_11
REMARK    6  A    between atoms: C_15  and  N_16
REMARK    7  A    between atoms: C_17  and  C_18
REMARK    8  A    between atoms: C_21  and  O_22
REMARK    9  A    between atoms: O_22  and  C_23
REMARK   10  A    between atoms: C_24  and  O_25
REMARK   11  A    between atoms: O_25  and  C_26
REMARK                            x       y       z     vdW  Elec       q    Type
REMARK                         _______ _______ _______ _____ _____    ______ ____
ROOT
ATOM      1  N   UNL     1       8.272   9.773  17.566  0.00  0.00    +0.000 N 
ATOM      2  C   UNL     1       9.089  10.395  18.516  0.00  0.00    +0.000 C 
ATOM      3  O   UNL     1       9.200  10.047  19.690  0.00  0.00    +0.000 OA
ATOM      4  H   UNL     1       8.100  10.222  16.677  0.00  0.00    +0.000 HD
ENDROOT
BRANCH   2   5
ATOM      5  C   UNL     1       9.809  11.553  18.000  0.00  0.00    +0.000 A 
ATOM      6  C   UNL     1      11.217  11.760  17.955  0.00  0.00    +0.000 A 
ATOM      7  N   UNL     1      11.561  12.915  17.391  0.00  0.00    +0.000 NA
ATOM      8  N   UNL     1      10.379  13.488  17.114  0.00  0.00    +0.000 N 
ATOM      9  C   UNL     1       9.291  12.729  17.481  0.00  0.00    +0.000 A 
ATOM     10  H   UNL     1      10.350  14.406  16.677  0.00  0.00    +0.000 HD
BRANCH   9  11
ATOM     11  N   UNL     1       7.987  13.178  17.306  0.00  0.00    +0.000 N 
ATOM     12  C   UNL     1       7.514  14.285  17.995  0.00  0.00    +0.000 C 
ATOM     13  C   UNL     1       6.065  14.612  17.752  0.00  0.00    +0.000 C 
ATOM     14  O   UNL     1       8.199  14.984  18.742  0.00  0.00    +0.000 OA
ATOM     15  H   UNL     1       7.382  12.640  16.689  0.00  0.00    +0.000 HD
ENDBRANCH   9  11
ENDBRANCH   2   5
BRANCH   1  17
ATOM     16  C   UNL     1       7.746   7.608  17.159  0.00  0.00    +0.000 C 
ATOM     17  N   UNL     1       7.537   8.665  17.883  0.00  0.00    +0.000 NA
BRANCH  16  20
ATOM     18  C   UNL     1       5.191   5.231  18.586  0.00  0.00    +0.000 A 
ATOM     19  C   UNL     1       6.156   6.245  18.488  0.00  0.00    +0.000 A 
ATOM     20  C   UNL     1       6.941   6.378  17.350  0.00  0.00    +0.000 A 
ATOM     21  C   UNL     1       6.872   5.412  16.351  0.00  0.00    +0.000 A 
ATOM     22  C   UNL     1       5.964   4.344  16.464  0.00  0.00    +0.000 A 
ATOM     23  C   UNL     1       5.103   4.241  17.582  0.00  0.00    +0.000 A 
BRANCH  18  25
ATOM     24  C   UNL     1       3.146   5.975  19.512  0.00  0.00    +0.000 C 
ATOM     25  O   UNL     1       4.340   5.201  19.662  0.00  0.00    +0.000 OA
ENDBRANCH  18  25
BRANCH  22  26
ATOM     26  O   UNL     1       6.050   3.472  15.401  0.00  0.00    +0.000 OA
ATOM     27  C   UNL     1       6.006   4.023  14.089  0.00  0.00    +0.000 C 
ENDBRANCH  22  26
BRANCH  23  28
ATOM     28  O   UNL     1       4.267   3.158  17.586  0.00  0.00    +0.000 OA
ATOM     29  C   UNL     1       2.923   3.264  17.148  0.00  0.00    +0.000 C 
ENDBRANCH  23  28
ENDBRANCH  16  20
ENDBRANCH   1  17
TORSDOF 7
ENDMDL
MODEL 5
REMARK VINA RESULT:      -7.3      6.420      8.496
REMARK  Name = 
REMARK  11 active torsions:
REMARK  status: ('A' for Active; 'I' for Inactive)
REMARK    1  A    between atoms: C_1  and  O_2
REMARK    2  A    between atoms: O_2  and  C_3
REMARK    3  A    between atoms: C_5  and  C_6
REMARK    4  A    between atoms: N_7  and  N_8
REMARK    5  A    between atoms: C_9  and  C_11
REMARK    6  A    between atoms: C_15  and  N_16
REMARK    7  A    between atoms: C_17  and  C_18
REMARK    8  A    between atoms: C_21  and  O_22
REMARK    9  A    between atoms: O_22  and  C_23
REMARK   10  A    between atoms: C_24  and  O_25
REMARK   11  A    between atoms: O_25  and  C_26
REMARK                            x       y       z     vdW  Elec       q    Type
REMARK                         _______ _______ _______ _____ _____    ______ ____
ROOT
ATOM      1  N   UNL     1       3.796   7.138  17.591  0.00  0.00    +0.000 N 
ATOM      2  C   UNL     1       4.535   6.028  18.011  0.00  0.00    +0.000 C 
ATOM      3  O   UNL     1       4.412   5.466  19.098  0.00  0.00    +0.000 OA
ATOM      4  H   UNL     1       4.076   7.647  16.763  0.00  0.00    +0.000 HD
ENDROOT
BRANCH   2   5
ATOM      5  C   UNL     1       5.524   5.581  17.038  0.00  0.00    +0.000 A 
ATOM      6  C   UNL     1       5.614   4.311  16.400  0.00  0.00    +0.000 A 
ATOM      7  N   UNL     1       6.621   4.228  15.533  0.00  0.00    +0.000 NA
ATOM      8  N   UNL     1       7.221   5.424  15.642  0.00  0.00    +0.000 N 
ATOM      9  C   UNL     1       6.624   6.268  16.549  0.00  0.00    +0.000 A 
ATOM     10  H   UNL     1       8.046   5.630  15.083  0.00  0.00    +0.000 HD
BRANCH   9  11
ATOM     11  N   UNL     1       7.131   7.534  16.822  0.00  0.00    +0.000 N 
ATOM     12  C   UNL     1       7.904   7.766  17.950  0.00  0.00    +0.000 C 
ATOM     13  C   UNL     1       8.327   9.197  18.146  0.00  0.00    +0.000 C 
ATOM     14  O   UNL     1       8.256   6.893  18.744  0.00  0.00    +0.000 OA
ATOM     15  H   UNL     1       6.878   8.290  16.188  0.00  0.00    +0.000 HD
ENDBRANCH   9  11
ENDBRANCH   2   5
BRANCH   1  17
ATOM     16  C   UNL     1       2.089   8.605  17.841  0.00  0.00    +0.000 C 
ATOM     17  N   UNL     1       2.818   7.675  18.379  0.00  0.00    +0.000 NA
BRANCH  16  20
ATOM     18  C   UNL     1       0.396  10.283  20.763  0.00  0.00    +0.000 A 
ATOM     19  C   UNL     1       1.191   9.404  20.011  0.00  0.00    +0.000 A 
ATOM     20  C   UNL     1       1.061   9.325  18.631  0.00  0.00    +0.000 A 
ATOM     21  C   UNL     1       0.036  10.019  17.997  0.00  0.00    +0.000 A 
ATOM     22  C   UNL     1      -0.821  10.849  18.742  0.00  0.00    +0.000 A 
ATOM     23  C   UNL     1      -0.649  10.999  20.138  0.00  0.00    +0.000 A 
BRANCH  18  25
ATOM     24  C   UNL     1      -0.100   9.553  22.957  0.00  0.00    +0.000 C 
ATOM     25  O   UNL     1       0.634  10.438  22.105  0.00  0.00    +0.000 OA
ENDBRANCH  18  25
BRANCH  22  26
ATOM     26  O   UNL     1      -1.791  11.435  17.959  0.00  0.00    +0.000 OA
ATOM     27  C   UNL     1      -3.056  10.787  17.879  0.00  0.00    +0.000 C 
ENDBRANCH  22  26
BRANCH  23  28
ATOM     28  O   UNL     1      -1.546  11.826  20.758  0.00  0.00    +0.000 OA
ATOM     29  C   UNL     1      -1.251  13.194  20.980  0.00  0.00    +0.000 C 
ENDBRANCH  23  28
ENDBRANCH  16  20
ENDBRANCH   1  17
TORSDOF 7
ENDMDL
MODEL 6
REMARK VINA RESULT:      -7.2      6.947      9.773
REMARK  Name = 
REMARK  11 active torsions:
REMARK  status: ('A' for Active; 'I' for Inactive)
REMARK    1  A    between atoms: C_1  and  O_2
REMARK    2  A    between atoms: O_2  and  C_3
REMARK    3  A    between atoms: C_5  and  C_6
REMARK    4  A    between atoms: N_7  and  N_8
REMARK    5  A    between atoms: C_9  and  C_11
REMARK    6  A    between atoms: C_15  and  N_16
REMARK    7  A    between atoms: C_17  and  C_18
REMARK    8  A    between atoms: C_21  and  O_22
REMARK    9  A    between atoms: O_22  and  C_23
REMARK   10  A    between atoms: C_24  and  O_25
REMARK   11  A    between atoms: O_25  and  C_26
REMARK                            x       y       z     vdW  Elec       q    Type
REMARK                         _______ _______ _______ _____ _____    ______ ____
ROOT
ATOM      1  N   UNL     1       0.682   9.850  18.228  0.00  0.00    +0.000 N 
ATOM      2  C   UNL     1       1.153  11.153  18.416  0.00  0.00    +0.000 C 
ATOM      3  O   UNL     1       2.276  11.551  18.111  0.00  0.00    +0.000 OA
ATOM      4  H   UNL     1      -0.183   9.557  18.664  0.00  0.00    +0.000 HD
ENDROOT
BRANCH   2   5
ATOM      5  C   UNL     1       0.186  12.038  19.054  0.00  0.00    +0.000 A 
ATOM      6  C   UNL     1       0.226  12.574  20.373  0.00  0.00    +0.000 A 
ATOM      7  N   UNL     1      -0.798  13.381  20.644  0.00  0.00    +0.000 NA
ATOM      8  N   UNL     1      -1.535  13.332  19.523  0.00  0.00    +0.000 N 
ATOM      9  C   UNL     1      -1.009  12.521  18.544  0.00  0.00    +0.000 A 
ATOM     10  H   UNL     1      -2.401  13.862  19.462  0.00  0.00    +0.000 HD
BRANCH   9  11
ATOM     11  N   UNL     1      -1.654  12.319  17.329  0.00  0.00    +0.000 N 
ATOM     12  C   UNL     1      -2.323  11.133  17.065  0.00  0.00    +0.000 C 
ATOM     13  C   UNL     1      -2.918  11.034  15.686  0.00  0.00    +0.000 C 
ATOM     14  O   UNL     1      -2.460  10.216  17.875  0.00  0.00    +0.000 OA
ATOM     15  H   UNL     1      -1.581  13.054  16.628  0.00  0.00    +0.000 HD
ENDBRANCH   9  11
ENDBRANCH   2   5
BRANCH   1  17
ATOM     16  C   UNL     1       2.095   8.091  18.427  0.00  0.00    +0.000 C 
ATOM     17  N   UNL     1       1.459   8.897  17.632  0.00  0.00    +0.000 NA
BRANCH  16  20
ATOM     18  C   UNL     1       5.244   6.587  16.998  0.00  0.00    +0.000 A 
ATOM     19  C   UNL     1       4.212   7.497  17.279  0.00  0.00    +0.000 A 
ATOM     20  C   UNL     1       3.040   7.079  17.896  0.00  0.00    +0.000 A 
ATOM     21  C   UNL     1       2.823   5.722  18.111  0.00  0.00    +0.000 A 
ATOM     22  C   UNL     1       3.813   4.786  17.768  0.00  0.00    +0.000 A 
ATOM     23  C   UNL     1       5.045   5.206  17.212  0.00  0.00    +0.000 A 
BRANCH  18  25
ATOM     24  C   UNL     1       7.392   7.438  17.506  0.00  0.00    +0.000 C 
ATOM     25  O   UNL     1       6.441   7.046  16.511  0.00  0.00    +0.000 OA
ENDBRANCH  18  25
BRANCH  22  26
ATOM     26  O   UNL     1       3.419   3.491  18.025  0.00  0.00    +0.000 OA
ATOM     27  C   UNL     1       3.720   2.951  19.308  0.00  0.00    +0.000 C 
ENDBRANCH  22  26
BRANCH  23  28
ATOM     28  O   UNL     1       5.929   4.206  16.913  0.00  0.00    +0.000 OA
ATOM     29  C   UNL     1       6.059   3.709  15.592  0.00  0.00    +0.000 C 
ENDBRANCH  23  28
ENDBRANCH  16  20
ENDBRANCH   1  17
TORSDOF 7
ENDMDL
MODEL 7
REMARK VINA RESULT:      -7.2      1.391      2.594
REMARK  Name = 
REMARK  11 active torsions:
REMARK  status: ('A' for Active; 'I' for Inactive)
REMARK    1  A    between atoms: C_1  and  O_2
REMARK    2  A    between atoms: O_2  and  C_3
REMARK    3  A    between atoms: C_5  and  C_6
REMARK    4  A    between atoms: N_7  and  N_8
REMARK    5  A    between atoms: C_9  and  C_11
REMARK    6  A    between atoms: C_15  and  N_16
REMARK    7  A    between atoms: C_17  and  C_18
REMARK    8  A    between atoms: C_21  and  O_22
REMARK    9  A    between atoms: O_22  and  C_23
REMARK   10  A    between atoms: C_24  and  O_25
REMARK   11  A    between atoms: O_25  and  C_26
REMARK                            x       y       z     vdW  Elec       q    Type
REMARK                         _______ _______ _______ _____ _____    ______ ____
ROOT
ATOM      1  N   UNL     1       7.714   7.050  18.080  0.00  0.00    +0.000 N 
ATOM      2  C   UNL     1       7.494   5.803  18.674  0.00  0.00    +0.000 C 
ATOM      3  O   UNL     1       8.063   5.389  19.682  0.00  0.00    +0.000 OA
ATOM      4  H   UNL     1       7.340   7.245  17.161  0.00  0.00    +0.000 HD
ENDROOT
BRANCH   2   5
ATOM      5  C   UNL     1       6.518   4.983  17.967  0.00  0.00    +0.000 A 
ATOM      6  C   UNL     1       5.416   4.266  18.513  0.00  0.00    +0.000 A 
ATOM      7  N   UNL     1       4.691   3.634  17.593  0.00  0.00    +0.000 NA
ATOM      8  N   UNL     1       5.346   3.894  16.451  0.00  0.00    +0.000 N 
ATOM      9  C   UNL     1       6.466   4.676  16.616  0.00  0.00    +0.000 A 
ATOM     10  H   UNL     1       5.004   3.514  15.571  0.00  0.00    +0.000 HD
BRANCH   9  11
ATOM     11  N   UNL     1       7.292   5.016  15.550  0.00  0.00    +0.000 N 
ATOM     12  C   UNL     1       6.895   4.793  14.240  0.00  0.00    +0.000 C 
ATOM     13  C   UNL     1       7.918   5.152  13.197  0.00  0.00    +0.000 C 
ATOM     14  O   UNL     1       5.791   4.355  13.913  0.00  0.00    +0.000 OA
ATOM     15  H   UNL     1       8.212   5.394  15.768  0.00  0.00    +0.000 HD
ENDBRANCH   9  11
ENDBRANCH   2   5
BRANCH   1  17
ATOM     16  C   UNL     1       8.359   9.200  18.378  0.00  0.00    +0.000 C 
ATOM     17  N   UNL     1       8.590   7.947  18.625  0.00  0.00    +0.000 NA
BRANCH  16  20
ATOM     18  C   UNL     1      10.925  11.961  18.255  0.00  0.00    +0.000 A 
ATOM     19  C   UNL     1      10.208  10.796  17.941  0.00  0.00    +0.000 A 
ATOM     20  C   UNL     1       9.295  10.255  18.838  0.00  0.00    +0.000 A 
ATOM     21  C   UNL     1       9.189  10.790  20.117  0.00  0.00    +0.000 A 
ATOM     22  C   UNL     1       9.955  11.913  20.478  0.00  0.00    +0.000 A 
ATOM     23  C   UNL     1      10.831  12.521  19.548  0.00  0.00    +0.000 A 
BRANCH  18  25
ATOM     24  C   UNL     1      11.115  13.629  16.589  0.00  0.00    +0.000 C 
ATOM     25  O   UNL     1      11.721  12.548  17.304  0.00  0.00    +0.000 OA
ENDBRANCH  18  25
BRANCH  22  26
ATOM     26  O   UNL     1       9.745  12.290  21.786  0.00  0.00    +0.000 OA
ATOM     27  C   UNL     1       8.501  11.939  22.383  0.00  0.00    +0.000 C 
ENDBRANCH  22  26
BRANCH  23  28
ATOM     28  O   UNL     1      11.528  13.603  20.013  0.00  0.00    +0.000 OA
ATOM     29  C   UNL     1      10.970  14.905  19.982  0.00  0.00    +0.000 C 
ENDBRANCH  23  28
ENDBRANCH  16  20
ENDBRANCH   1  17
TORSDOF 7
ENDMDL
MODEL 8
REMARK VINA RESULT:      -7.1      6.688      8.591
REMARK  Name = 
REMARK  11 active torsions:
REMARK  status: ('A' for Active; 'I' for Inactive)
REMARK    1  A    between atoms: C_1  and  O_2
REMARK    2  A    between atoms: O_2  and  C_3
REMARK    3  A    between atoms: C_5  and  C_6
REMARK    4  A    between atoms: N_7  and  N_8
REMARK    5  A    between atoms: C_9  and  C_11
REMARK    6  A    between atoms: C_15  and  N_16
REMARK    7  A    between atoms: C_17  and  C_18
REMARK    8  A    between atoms: C_21  and  O_22
REMARK    9  A    between atoms: O_22  and  C_23
REMARK   10  A    between atoms: C_24  and  O_25
REMARK   11  A    between atoms: O_25  and  C_26
REMARK                            x       y       z     vdW  Elec       q    Type
REMARK                         _______ _______ _______ _____ _____    ______ ____
ROOT
ATOM      1  N   UNL     1       2.186   5.953  20.505  0.00  0.00    +0.000 N 
ATOM      2  C   UNL     1       2.601   5.324  19.327  0.00  0.00    +0.000 C 
ATOM      3  O   UNL     1       2.232   5.627  18.194  0.00  0.00    +0.000 OA
ATOM      4  H   UNL     1       2.395   5.535  21.402  0.00  0.00    +0.000 HD
ENDROOT
BRANCH   2   5
ATOM      5  C   UNL     1       3.522   4.216  19.550  0.00  0.00    +0.000 A 
ATOM      6  C   UNL     1       3.316   3.050  20.341  0.00  0.00    +0.000 A 
ATOM      7  N   UNL     1       4.345   2.206  20.314  0.00  0.00    +0.000 NA
ATOM      8  N   UNL     1       5.245   2.842  19.548  0.00  0.00    +0.000 N 
ATOM      9  C   UNL     1       4.819   4.065  19.083  0.00  0.00    +0.000 A 
ATOM     10  H   UNL     1       6.150   2.414  19.367  0.00  0.00    +0.000 HD
BRANCH   9  11
ATOM     11  N   UNL     1       5.632   4.882  18.306  0.00  0.00    +0.000 N 
ATOM     12  C   UNL     1       6.729   5.528  18.856  0.00  0.00    +0.000 C 
ATOM     13  C   UNL     1       7.476   6.428  17.908  0.00  0.00    +0.000 C 
ATOM     14  O   UNL     1       7.108   5.387  20.019  0.00  0.00    +0.000 OA
ATOM     15  H   UNL     1       5.368   5.022  17.332  0.00  0.00    +0.000 HD
ENDBRANCH   9  11
ENDBRANCH   2   5
BRANCH   1  17
ATOM     16  C   UNL     1       1.836   8.152  20.090  0.00  0.00    +0.000 C 
ATOM     17  N   UNL     1       1.331   7.019  20.473  0.00  0.00    +0.000 NA
BRANCH  16  20
ATOM     18  C   UNL     1      -0.511  10.868  18.937  0.00  0.00    +0.000 A 
ATOM     19  C   UNL     1       0.462   9.857  18.924  0.00  0.00    +0.000 A 
ATOM     20  C   UNL     1       1.028   9.395  20.106  0.00  0.00    +0.000 A 
ATOM     21  C   UNL     1       0.733  10.035  21.305  0.00  0.00    +0.000 A 
ATOM     22  C   UNL     1      -0.183  11.101  21.330  0.00  0.00    +0.000 A 
ATOM     23  C   UNL     1      -0.826  11.530  20.144  0.00  0.00    +0.000 A 
BRANCH  18  25
ATOM     24  C   UNL     1      -1.922  10.172  17.171  0.00  0.00    +0.000 C 
ATOM     25  O   UNL     1      -1.148  11.214  17.772  0.00  0.00    +0.000 OA
ENDBRANCH  18  25
BRANCH  22  26
ATOM     26  O   UNL     1      -0.334  11.632  22.591  0.00  0.00    +0.000 OA
ATOM     27  C   UNL     1      -1.506  11.284  23.319  0.00  0.00    +0.000 C 
ENDBRANCH  22  26
BRANCH  23  28
ATOM     28  O   UNL     1      -1.693  12.579  20.288  0.00  0.00    +0.000 OA
ATOM     29  C   UNL     1      -3.093  12.397  20.173  0.00  0.00    +0.000 C 
ENDBRANCH  23  28
ENDBRANCH  16  20
ENDBRANCH   1  17
TORSDOF 7
ENDMDL
MODEL 9
REMARK VINA RESULT:      -7.1      1.634      1.843
REMARK  Name = 
REMARK  11 active torsions:
REMARK  status: ('A' for Active; 'I' for Inactive)
REMARK    1  A    between atoms: C_1  and  O_2
REMARK    2  A    between atoms: O_2  and  C_3
REMARK    3  A    between atoms: C_5  and  C_6
REMARK    4  A    between atoms: N_7  and  N_8
REMARK    5  A    between atoms: C_9  and  C_11
REMARK    6  A    between atoms: C_15  and  N_16
REMARK    7  A    between atoms: C_17  and  C_18
REMARK    8  A    between atoms: C_21  and  O_22
REMARK    9  A    between atoms: O_22  and  C_23
REMARK   10  A    between atoms: C_24  and  O_25
REMARK   11  A    between atoms: O_25  and  C_26
REMARK                            x       y       z     vdW  Elec       q    Type
REMARK                         _______ _______ _______ _____ _____    ______ ____
ROOT
ATOM      1  N   UNL     1       7.740   7.535  17.796  0.00  0.00    +0.000 N 
ATOM      2  C   UNL     1       7.374   6.295  18.330  0.00  0.00    +0.000 C 
ATOM      3  O   UNL     1       7.772   5.841  19.401  0.00  0.00    +0.000 OA
ATOM      4  H   UNL     1       7.513   7.759  16.836  0.00  0.00    +0.000 HD
ENDROOT
BRANCH   2   5
ATOM      5  C   UNL     1       6.471   5.534  17.476  0.00  0.00    +0.000 A 
ATOM      6  C   UNL     1       6.743   4.331  16.764  0.00  0.00    +0.000 A 
ATOM      7  N   UNL     1       5.691   3.866  16.095  0.00  0.00    +0.000 NA
ATOM      8  N   UNL     1       4.745   4.789  16.326  0.00  0.00    +0.000 N 
ATOM      9  C   UNL     1       5.162   5.828  17.126  0.00  0.00    +0.000 A 
ATOM     10  H   UNL     1       3.821   4.683  15.914  0.00  0.00    +0.000 HD
BRANCH   9  11
ATOM     11  N   UNL     1       4.330   6.896  17.441  0.00  0.00    +0.000 N 
ATOM     12  C   UNL     1       3.052   6.684  17.936  0.00  0.00    +0.000 C 
ATOM     13  C   UNL     1       2.246   7.933  18.170  0.00  0.00    +0.000 C 
ATOM     14  O   UNL     1       2.582   5.575  18.196  0.00  0.00    +0.000 OA
ATOM     15  H   UNL     1       4.677   7.835  17.256  0.00  0.00    +0.000 HD
ENDBRANCH   9  11
ENDBRANCH   2   5
BRANCH   1  17
ATOM     16  C   UNL     1       8.460   9.643  18.203  0.00  0.00    +0.000 C 
ATOM     17  N   UNL     1       8.572   8.379  18.476  0.00  0.00    +0.000 NA
BRANCH  16  20
ATOM     18  C   UNL     1      11.048  12.372  18.479  0.00  0.00    +0.000 A 
ATOM     19  C   UNL     1      10.342  11.249  18.019  0.00  0.00    +0.000 A 
ATOM     20  C   UNL     1       9.374  10.641  18.809  0.00  0.00    +0.000 A 
ATOM     21  C   UNL     1       9.197  11.061  20.123  0.00  0.00    +0.000 A 
ATOM     22  C   UNL     1       9.948  12.137  20.628  0.00  0.00    +0.000 A 
ATOM     23  C   UNL     1      10.882  12.815  19.809  0.00  0.00    +0.000 A 
BRANCH  18  25
ATOM     24  C   UNL     1      11.283  13.993  16.773  0.00  0.00    +0.000 C 
ATOM     25  O   UNL     1      11.902  13.032  17.632  0.00  0.00    +0.000 OA
ENDBRANCH  18  25
BRANCH  22  26
ATOM     26  O   UNL     1       9.664  12.397  21.950  0.00  0.00    +0.000 OA
ATOM     27  C   UNL     1       8.417  13.016  22.249  0.00  0.00    +0.000 C 
ENDBRANCH  22  26
BRANCH  23  28
ATOM     28  O   UNL     1      11.557  13.842  20.409  0.00  0.00    +0.000 OA
ATOM     29  C   UNL     1      11.077  15.174  20.348  0.00  0.00    +0.000 C 
ENDBRANCH  23  28
ENDBRANCH  16  20
ENDBRANCH   1  17
TORSDOF 7
ENDMDL
