MODEL 1
REMARK VINA RESULT:      -7.6      0.000      0.000
REMARK  Name = 
REMARK  17 active torsions:
REMARK  status: ('A' for Active; 'I' for Inactive)
REMARK    1  A    between atoms: C_1  and  C_2
REMARK    2  A    between atoms: C_2  and  C_3
REMARK    3  A    between atoms: C_2  and  C_4
REMARK    4  A    between atoms: C_4  and  C_5
REMARK    5  A    between atoms: C_5  and  C_6
REMARK    6  A    between atoms: C_5  and  N_8
REMARK    7  A    between atoms: N_11  and  C_12
REMARK    8  A    between atoms: C_12  and  C_13
REMARK    9  A    between atoms: C_12  and  C_29
REMARK   10  A    between atoms: N_15  and  CA_16
REMARK   11  A    between atoms: CA_16  and  CB_17
REMARK   12  A    between atoms: CA_16  and  C_22
REMARK   13  A    between atoms: CB_17  and  CG_18
REMARK   14  A    between atoms: CG_18  and  CD_19
REMARK   15  A    between atoms: N_24  and  CA_25
REMARK   16  A    between atoms: CA_25  and  CB_26
REMARK   17  A    between atoms: CA_25  and  C_27
REMARK                            x       y       z     vdW  Elec       q    Type
REMARK                         _______ _______ _______ _____ _____    ______ ____
ROOT
ATOM      1  C   UNK A   1       2.983   5.579  19.227  0.00  0.00    +0.000 C 
ENDROOT
BRANCH   1   2
ATOM      2  C   UNK A   1       1.713   4.696  19.426  0.00  0.00    +0.000 C 
ATOM      3  C   UNK A   1       1.441   4.229  20.865  0.00  0.00    +0.000 C 
ATOM      4  C   UNK A   1       1.175   2.734  21.029  0.00  0.00    +0.000 C 
ATOM      5  N   UNK A   1       1.847   1.860  20.061  0.00  0.00    +0.000 NA
ATOM      6  C   UNK A   1       1.954   2.329  18.877  0.00  0.00    +0.000 C 
ATOM      7  N   UNK A   1       2.347   1.597  17.821  0.00  0.00    +0.000 N 
ATOM      8  N   UNK A   1       1.728   3.591  18.501  0.00  0.00    +0.000 N 
ATOM      9  H   UNK A   1       2.522   0.625  18.094  0.00  0.00    +0.000 HD
ATOM     10  H   UNK A   1       3.209   1.917  17.399  0.00  0.00    +0.000 HD
ATOM     11  H   UNK A   1       1.888   3.820  17.528  0.00  0.00    +0.000 HD
ENDBRANCH   1   2
BRANCH   1  15
ATOM     12  N   UNK A   0       1.956   8.966  18.211  0.00  0.00    +0.000 N 
ATOM     13  C   UNK A   0       2.139   7.936  19.101  0.00  0.00    +0.000 C 
ATOM     14  O   UNK A   0       1.819   7.983  20.280  0.00  0.00    +0.000 OA
ATOM     15  N   UNK A   1       2.687   6.838  18.490  0.00  0.00    +0.000 N 
ATOM     16  H   UNK A   1       1.750   8.644  17.273  0.00  0.00    +0.000 HD
ATOM     17  H   UNK A   1       3.365   7.069  17.772  0.00  0.00    +0.000 HD
BRANCH  12  18
ATOM     18  C   UNK A   1       1.207  10.170  18.608  0.00  0.00    +0.000 C 
BRANCH  18  19
ATOM     19  C   UNK A   1      -0.164  10.087  17.942  0.00  0.00    +0.000 C 
ATOM     20  O   UNK A   1      -1.043  10.936  18.082  0.00  0.00    +0.000 OA
ENDBRANCH  18  19
BRANCH  18  21
ATOM     21  C   UNK A   1       1.958  11.440  18.164  0.00  0.00    +0.000 C 
BRANCH  21  23
ATOM     22  C   UNK A   1       1.049  13.796  18.591  0.00  0.00    +0.000 C 
ATOM     23  C   UNK A   1       1.907  12.651  19.126  0.00  0.00    +0.000 C 
ATOM     24  C   UNK A   1       1.363  12.217  20.495  0.00  0.00    +0.000 C 
ENDBRANCH  21  23
ENDBRANCH  18  21
ENDBRANCH  12  18
ENDBRANCH   1  15
BRANCH   1  25
ATOM     25  C   UNK A   1       4.224   4.962  18.502  0.00  0.00    +0.000 C 
ATOM     26  O   UNK A   1       4.945   4.154  19.098  0.00  0.00    +0.000 OA
ATOM     27  N   GLN A   2       4.510   5.352  17.227  0.00  0.00    +0.000 N 
ATOM     28  H   GLN A   2       4.029   6.144  16.814  0.00  0.00    +0.000 HD
BRANCH  27  29
ATOM     29  CA  GLN A   2       5.492   4.691  16.358  0.00  0.00    +0.000 C 
BRANCH  29  30
ATOM     30  C   GLN A   2       6.878   5.134  16.864  0.00  0.00    +0.000 C 
ATOM     31  O   GLN A   2       7.866   4.409  16.690  0.00  0.00    +0.000 OA
ATOM     32  N   ALA A   3       6.945   6.339  17.525  0.00  0.00    +0.000 N 
ATOM     33  H   ALA A   3       6.129   6.948  17.477  0.00  0.00    +0.000 HD
BRANCH  32  34
ATOM     34  CA  ALA A   3       8.123   6.842  18.250  0.00  0.00    +0.000 C 
ATOM     35  CB  ALA A   3       8.276   8.360  18.293  0.00  0.00    +0.000 C 
BRANCH  34  36
ATOM     36  C   ALA A   3       8.262   6.357  19.689  0.00  0.00    +0.000 C 
ATOM     37  O   ALA A   3       7.680   5.389  20.164  0.00  0.00    +0.000 OA
ENDBRANCH  34  36
ENDBRANCH  32  34
ENDBRANCH  29  30
BRANCH  29  38
ATOM     38  CB  GLN A   2       5.303   5.112  14.882  0.00  0.00    +0.000 C 
BRANCH  38  39
ATOM     39  CG  GLN A   2       5.792   4.060  13.872  0.00  0.00    +0.000 C 
BRANCH  39  40
ATOM     40  CD  GLN A   2       6.971   4.546  13.058  0.00  0.00    +0.000 C 
ATOM     41  NE2 GLN A   2       7.793   5.440  13.674  0.00  0.00    +0.000 N 
ATOM     42  OE1 GLN A   2       7.206   4.153  11.922  0.00  0.00    +0.000 OA
ATOM     43 HE21 GLN A   2       7.780   5.573  14.679  0.00  0.00    +0.000 HD
ATOM     44 HE22 GLN A   2       8.638   5.694  13.178  0.00  0.00    +0.000 HD
ENDBRANCH  39  40
ENDBRANCH  38  39
ENDBRANCH  29  38
ENDBRANCH  27  29
ENDBRANCH   1  25
TORSDOF 14
ENDMDL
MODEL 2
REMARK VINA RESULT:      -7.5      0.964      1.119
REMARK  Name = 
REMARK  17 active torsions:
REMARK  status: ('A' for Active; 'I' for Inactive)
REMARK    1  A    between atoms: C_1  and  C_2
REMARK    2  A    between atoms: C_2  and  C_3
REMARK    3  A    between atoms: C_2  and  C_4
REMARK    4  A    between atoms: C_4  and  C_5
REMARK    5  A    between atoms: C_5  and  C_6
REMARK    6  A    between atoms: C_5  and  N_8
REMARK    7  A    between atoms: N_11  and  C_12
REMARK    8  A    between atoms: C_12  and  C_13
REMARK    9  A    between atoms: C_12  and  C_29
REMARK   10  A    between atoms: N_15  and  CA_16
REMARK   11  A    between atoms: CA_16  and  CB_17
REMARK   12  A    between atoms: CA_16  and  C_22
REMARK   13  A    between atoms: CB_17  and  CG_18
REMARK   14  A    between atoms: CG_18  and  CD_19
REMARK   15  A    between atoms: N_24  and  CA_25
REMARK   16  A    between atoms: CA_25  and  CB_26
REMARK   17  A    between atoms: CA_25  and  C_27
REMARK                            x       y       z     vdW  Elec       q    Type
REMARK                         _______ _______ _______ _____ _____    ______ ____
ROOT
ATOM      1  C   UNK A   1       2.999   5.470  18.863  0.00  0.00    +0.000 C 
ENDROOT
BRANCH   1   2
ATOM      2  C   UNK A   1       1.745   4.546  18.947  0.00  0.00    +0.000 C 
ATOM      3  C   UNK A   1       1.158   4.341  20.353  0.00  0.00    +0.000 C 
ATOM      4  C   UNK A   1       0.907   2.888  20.752  0.00  0.00    +0.000 C 
ATOM      5  N   UNK A   1       1.813   1.901  20.155  0.00  0.00    +0.000 NA
ATOM      6  C   UNK A   1       2.181   2.143  18.955  0.00  0.00    +0.000 C 
ATOM      7  N   UNK A   1       2.832   1.257  18.185  0.00  0.00    +0.000 N 
ATOM      8  N   UNK A   1       2.011   3.290  18.292  0.00  0.00    +0.000 N 
ATOM      9  H   UNK A   1       2.968   0.371  18.681  0.00  0.00    +0.000 HD
ATOM     10  H   UNK A   1       3.759   1.556  17.911  0.00  0.00    +0.000 HD
ATOM     11  H   UNK A   1       2.387   3.342  17.353  0.00  0.00    +0.000 HD
ENDBRANCH   1   2
BRANCH   1  15
ATOM     12  N   UNK A   0       2.051   8.925  18.013  0.00  0.00    +0.000 N 
ATOM     13  C   UNK A   0       2.253   7.863  18.860  0.00  0.00    +0.000 C 
ATOM     14  O   UNK A   0       2.021   7.889  20.060  0.00  0.00    +0.000 OA
ATOM     15  N   UNK A   1       2.706   6.761  18.182  0.00  0.00    +0.000 N 
ATOM     16  H   UNK A   1       1.763   8.639  17.084  0.00  0.00    +0.000 HD
ATOM     17  H   UNK A   1       3.340   6.984  17.422  0.00  0.00    +0.000 HD
BRANCH  12  18
ATOM     18  C   UNK A   1       1.385  10.147  18.494  0.00  0.00    +0.000 C 
BRANCH  18  19
ATOM     19  C   UNK A   1      -0.058  10.097  18.003  0.00  0.00    +0.000 C 
ATOM     20  O   UNK A   1      -0.965  10.778  18.480  0.00  0.00    +0.000 OA
ENDBRANCH  18  19
BRANCH  18  21
ATOM     21  C   UNK A   1       2.106  11.397  17.956  0.00  0.00    +0.000 C 
BRANCH  21  23
ATOM     22  C   UNK A   1       1.591  12.622  20.147  0.00  0.00    +0.000 C 
ATOM     23  C   UNK A   1       1.763  12.746  18.634  0.00  0.00    +0.000 C 
ATOM     24  C   UNK A   1       2.859  13.780  18.339  0.00  0.00    +0.000 C 
ENDBRANCH  21  23
ENDBRANCH  18  21
ENDBRANCH  12  18
ENDBRANCH   1  15
BRANCH   1  25
ATOM     25  C   UNK A   1       4.292   4.925  18.169  0.00  0.00    +0.000 C 
ATOM     26  O   UNK A   1       5.122   4.292  18.829  0.00  0.00    +0.000 OA
ATOM     27  N   GLN A   2       4.496   5.188  16.847  0.00  0.00    +0.000 N 
ATOM     28  H   GLN A   2       3.910   5.857  16.361  0.00  0.00    +0.000 HD
BRANCH  27  29
ATOM     29  CA  GLN A   2       5.534   4.550  16.026  0.00  0.00    +0.000 C 
BRANCH  29  30
ATOM     30  C   GLN A   2       6.877   5.123  16.515  0.00  0.00    +0.000 C 
ATOM     31  O   GLN A   2       7.909   4.442  16.438  0.00  0.00    +0.000 OA
ATOM     32  N   ALA A   3       6.859   6.389  17.052  0.00  0.00    +0.000 N 
ATOM     33  H   ALA A   3       6.011   6.941  16.924  0.00  0.00    +0.000 HD
BRANCH  32  34
ATOM     34  CA  ALA A   3       7.985   7.031  17.748  0.00  0.00    +0.000 C 
ATOM     35  CB  ALA A   3       7.918   8.552  17.858  0.00  0.00    +0.000 C 
BRANCH  34  36
ATOM     36  C   ALA A   3       8.265   6.513  19.155  0.00  0.00    +0.000 C 
ATOM     37  O   ALA A   3       7.472   5.880  19.842  0.00  0.00    +0.000 OA
ENDBRANCH  34  36
ENDBRANCH  32  34
ENDBRANCH  29  30
BRANCH  29  38
ATOM     38  CB  GLN A   2       5.333   4.870  14.526  0.00  0.00    +0.000 C 
BRANCH  38  39
ATOM     39  CG  GLN A   2       6.364   4.193  13.607  0.00  0.00    +0.000 C 
BRANCH  39  40
ATOM     40  CD  GLN A   2       5.713   3.347  12.536  0.00  0.00    +0.000 C 
ATOM     41  NE2 GLN A   2       6.482   2.353  12.010  0.00  0.00    +0.000 N 
ATOM     42  OE1 GLN A   2       4.556   3.508  12.167  0.00  0.00    +0.000 OA
ATOM     43 HE21 GLN A   2       7.325   2.029  12.473  0.00  0.00    +0.000 HD
ATOM     44 HE22 GLN A   2       6.026   1.719  11.367  0.00  0.00    +0.000 HD
ENDBRANCH  39  40
ENDBRANCH  38  39
ENDBRANCH  29  38
ENDBRANCH  27  29
ENDBRANCH   1  25
TORSDOF 14
ENDMDL
MODEL 3
REMARK VINA RESULT:      -7.1      2.243      4.107
REMARK  Name = 
REMARK  17 active torsions:
REMARK  status: ('A' for Active; 'I' for Inactive)
REMARK    1  A    between atoms: C_1  and  C_2
REMARK    2  A    between atoms: C_2  and  C_3
REMARK    3  A    between atoms: C_2  and  C_4
REMARK    4  A    between atoms: C_4  and  C_5
REMARK    5  A    between atoms: C_5  and  C_6
REMARK    6  A    between atoms: C_5  and  N_8
REMARK    7  A    between atoms: N_11  and  C_12
REMARK    8  A    between atoms: C_12  and  C_13
REMARK    9  A    between atoms: C_12  and  C_29
REMARK   10  A    between atoms: N_15  and  CA_16
REMARK   11  A    between atoms: CA_16  and  CB_17
REMARK   12  A    between atoms: CA_16  and  C_22
REMARK   13  A    between atoms: CB_17  and  CG_18
REMARK   14  A    between atoms: CG_18  and  CD_19
REMARK   15  A    between atoms: N_24  and  CA_25
REMARK   16  A    between atoms: CA_25  and  CB_26
REMARK   17  A    between atoms: CA_25  and  C_27
REMARK                            x       y       z     vdW  Elec       q    Type
REMARK                         _______ _______ _______ _____ _____    ______ ____
ROOT
ATOM      1  C   UNK A   1       3.159   6.702  18.874  0.00  0.00    +0.000 C 
ENDROOT
BRANCH   1   2
ATOM      2  C   UNK A   1       2.411   5.342  19.036  0.00  0.00    +0.000 C 
ATOM      3  C   UNK A   1       2.337   4.786  20.467  0.00  0.00    +0.000 C 
ATOM      4  C   UNK A   1       2.763   3.327  20.624  0.00  0.00    +0.000 C 
ATOM      5  N   UNK A   1       3.780   2.857  19.678  0.00  0.00    +0.000 NA
ATOM      6  C   UNK A   1       3.700   3.339  18.497  0.00  0.00    +0.000 C 
ATOM      7  N   UNK A   1       4.407   2.873  17.454  0.00  0.00    +0.000 N 
ATOM      8  N   UNK A   1       2.945   4.372  18.113  0.00  0.00    +0.000 N 
ATOM      9  H   UNK A   1       4.990   2.078  17.734  0.00  0.00    +0.000 HD
ATOM     10  H   UNK A   1       5.046   3.549  17.059  0.00  0.00    +0.000 HD
ATOM     11  H   UNK A   1       3.012   4.661  17.144  0.00  0.00    +0.000 HD
ENDBRANCH   1   2
BRANCH   1  15
ATOM     12  N   UNK A   0       0.702   9.424  19.219  0.00  0.00    +0.000 N 
ATOM     13  C   UNK A   0       1.495   8.398  19.674  0.00  0.00    +0.000 C 
ATOM     14  O   UNK A   0       1.517   8.011  20.833  0.00  0.00    +0.000 OA
ATOM     15  N   UNK A   1       2.223   7.839  18.655  0.00  0.00    +0.000 N 
ATOM     16  H   UNK A   1       0.383   9.283  18.268  0.00  0.00    +0.000 HD
ATOM     17  H   UNK A   1       2.540   8.512  17.966  0.00  0.00    +0.000 HD
BRANCH  12  18
ATOM     18  C   UNK A   1      -0.303  10.038  20.103  0.00  0.00    +0.000 C 
BRANCH  18  19
ATOM     19  C   UNK A   1      -1.391  10.623  19.208  0.00  0.00    +0.000 C 
ATOM     20  O   UNK A   1      -1.248  11.645  18.539  0.00  0.00    +0.000 OA
ENDBRANCH  18  19
BRANCH  18  21
ATOM     21  C   UNK A   1       0.344  11.134  20.970  0.00  0.00    +0.000 C 
BRANCH  21  23
ATOM     22  C   UNK A   1      -1.384  12.295  22.463  0.00  0.00    +0.000 C 
ATOM     23  C   UNK A   1      -0.217  11.312  22.401  0.00  0.00    +0.000 C 
ATOM     24  C   UNK A   1      -0.675   9.957  22.961  0.00  0.00    +0.000 C 
ENDBRANCH  21  23
ENDBRANCH  18  21
ENDBRANCH  12  18
ENDBRANCH   1  15
BRANCH   1  25
ATOM     25  C   UNK A   1       4.240   6.839  17.752  0.00  0.00    +0.000 C 
ATOM     26  O   UNK A   1       3.893   6.896  16.568  0.00  0.00    +0.000 OA
ATOM     27  N   GLN A   2       5.559   6.862  18.101  0.00  0.00    +0.000 N 
ATOM     28  H   GLN A   2       5.843   6.631  19.046  0.00  0.00    +0.000 HD
BRANCH  27  29
ATOM     29  CA  GLN A   2       6.652   7.215  17.185  0.00  0.00    +0.000 C 
BRANCH  29  30
ATOM     30  C   GLN A   2       7.049   5.911  16.470  0.00  0.00    +0.000 C 
ATOM     31  O   GLN A   2       7.731   5.061  17.059  0.00  0.00    +0.000 OA
ATOM     32  N   ALA A   3       6.637   5.762  15.166  0.00  0.00    +0.000 N 
ATOM     33  H   ALA A   3       5.943   6.421  14.814  0.00  0.00    +0.000 HD
BRANCH  32  34
ATOM     34  CA  ALA A   3       7.075   4.692  14.256  0.00  0.00    +0.000 C 
ATOM     35  CB  ALA A   3       5.966   3.816  13.678  0.00  0.00    +0.000 C 
BRANCH  34  36
ATOM     36  C   ALA A   3       7.922   5.146  13.072  0.00  0.00    +0.000 C 
ATOM     37  O   ALA A   3       8.823   5.974  13.129  0.00  0.00    +0.000 OA
ENDBRANCH  34  36
ENDBRANCH  32  34
ENDBRANCH  29  30
BRANCH  29  38
ATOM     38  CB  GLN A   2       7.862   7.790  17.958  0.00  0.00    +0.000 C 
BRANCH  38  39
ATOM     39  CG  GLN A   2       8.337   9.155  17.432  0.00  0.00    +0.000 C 
BRANCH  39  40
ATOM     40  CD  GLN A   2       8.907  10.028  18.529  0.00  0.00    +0.000 C 
ATOM     41  NE2 GLN A   2       9.132   9.414  19.724  0.00  0.00    +0.000 N 
ATOM     42  OE1 GLN A   2       9.184  11.211  18.367  0.00  0.00    +0.000 OA
ATOM     43 HE21 GLN A   2       9.168   8.404  19.806  0.00  0.00    +0.000 HD
ATOM     44 HE22 GLN A   2       9.605   9.961  20.432  0.00  0.00    +0.000 HD
ENDBRANCH  39  40
ENDBRANCH  38  39
ENDBRANCH  29  38
ENDBRANCH  27  29
ENDBRANCH   1  25
TORSDOF 14
ENDMDL
MODEL 4
REMARK VINA RESULT:      -7.1      2.095      2.721
REMARK  Name = 
REMARK  17 active torsions:
REMARK  status: ('A' for Active; 'I' for Inactive)
REMARK    1  A    between atoms: C_1  and  C_2
REMARK    2  A    between atoms: C_2  and  C_3
REMARK    3  A    between atoms: C_2  and  C_4
REMARK    4  A    between atoms: C_4  and  C_5
REMARK    5  A    between atoms: C_5  and  C_6
REMARK    6  A    between atoms: C_5  and  N_8
REMARK    7  A    between atoms: N_11  and  C_12
REMARK    8  A    between atoms: C_12  and  C_13
REMARK    9  A    between atoms: C_12  and  C_29
REMARK   10  A    between atoms: N_15  and  CA_16
REMARK   11  A    between atoms: CA_16  and  CB_17
REMARK   12  A    between atoms: CA_16  and  C_22
REMARK   13  A    between atoms: CB_17  and  CG_18
REMARK   14  A    between atoms: CG_18  and  CD_19
REMARK   15  A    between atoms: N_24  and  CA_25
REMARK   16  A    between atoms: CA_25  and  CB_26
REMARK   17  A    between atoms: CA_25  and  C_27
REMARK                            x       y       z     vdW  Elec       q    Type
REMARK                         _______ _______ _______ _____ _____    ______ ____
ROOT
ATOM      1  C   UNK A   1       3.621   5.049  19.279  0.00  0.00    +0.000 C 
ENDROOT
BRANCH   1   2
ATOM      2  C   UNK A   1       2.864   4.114  18.285  0.00  0.00    +0.000 C 
ATOM      3  C   UNK A   1       1.393   3.826  18.628  0.00  0.00    +0.000 C 
ATOM      4  C   UNK A   1       0.996   2.351  18.615  0.00  0.00    +0.000 C 
ATOM      5  N   UNK A   1       2.059   1.404  18.971  0.00  0.00    +0.000 NA
ATOM      6  C   UNK A   1       3.232   1.717  18.573  0.00  0.00    +0.000 C 
ATOM      7  N   UNK A   1       4.282   0.881  18.624  0.00  0.00    +0.000 N 
ATOM      8  N   UNK A   1       3.612   2.900  18.081  0.00  0.00    +0.000 N 
ATOM      9  H   UNK A   1       4.004  -0.032  18.999  0.00  0.00    +0.000 HD
ATOM     10  H   UNK A   1       5.031   1.200  19.223  0.00  0.00    +0.000 HD
ATOM     11  H   UNK A   1       4.589   3.008  17.837  0.00  0.00    +0.000 HD
ENDBRANCH   1   2
BRANCH   1  15
ATOM     12  N   UNK A   0       2.036   8.370  19.413  0.00  0.00    +0.000 N 
ATOM     13  C   UNK A   0       2.174   7.043  19.740  0.00  0.00    +0.000 C 
ATOM     14  O   UNK A   0       1.410   6.435  20.476  0.00  0.00    +0.000 OA
ATOM     15  N   UNK A   1       3.250   6.480  19.104  0.00  0.00    +0.000 N 
ATOM     16  H   UNK A   1       2.344   8.577  18.471  0.00  0.00    +0.000 HD
ATOM     17  H   UNK A   1       4.042   7.107  19.014  0.00  0.00    +0.000 HD
BRANCH  12  18
ATOM     18  C   UNK A   1       0.839   9.120  19.830  0.00  0.00    +0.000 C 
BRANCH  18  19
ATOM     19  C   UNK A   1       0.535  10.130  18.727  0.00  0.00    +0.000 C 
ATOM     20  O   UNK A   1      -0.194   9.891  17.766  0.00  0.00    +0.000 OA
ENDBRANCH  18  19
BRANCH  18  21
ATOM     21  C   UNK A   1       1.092   9.831  21.172  0.00  0.00    +0.000 C 
BRANCH  21  23
ATOM     22  C   UNK A   1       0.079   9.483  23.499  0.00  0.00    +0.000 C 
ATOM     23  C   UNK A   1      -0.134  10.039  22.092  0.00  0.00    +0.000 C 
ATOM     24  C   UNK A   1      -0.472  11.535  22.193  0.00  0.00    +0.000 C 
ENDBRANCH  21  23
ENDBRANCH  18  21
ENDBRANCH  12  18
ENDBRANCH   1  15
BRANCH   1  25
ATOM     25  C   UNK A   1       5.186   5.029  19.289  0.00  0.00    +0.000 C 
ATOM     26  O   UNK A   1       5.785   4.117  19.868  0.00  0.00    +0.000 OA
ATOM     27  N   GLN A   2       5.865   6.044  18.682  0.00  0.00    +0.000 N 
ATOM     28  H   GLN A   2       5.375   6.876  18.373  0.00  0.00    +0.000 HD
BRANCH  27  29
ATOM     29  CA  GLN A   2       7.310   6.031  18.417  0.00  0.00    +0.000 C 
BRANCH  29  30
ATOM     30  C   GLN A   2       7.667   7.446  17.924  0.00  0.00    +0.000 C 
ATOM     31  O   GLN A   2       7.334   7.812  16.790  0.00  0.00    +0.000 OA
ATOM     32  N   ALA A   3       8.382   8.246  18.786  0.00  0.00    +0.000 N 
ATOM     33  H   ALA A   3       8.468   7.935  19.753  0.00  0.00    +0.000 HD
BRANCH  32  34
ATOM     34  CA  ALA A   3       8.985   9.541  18.435  0.00  0.00    +0.000 C 
ATOM     35  CB  ALA A   3       8.078  10.514  17.686  0.00  0.00    +0.000 C 
BRANCH  34  36
ATOM     36  C   ALA A   3       9.580  10.323  19.602  0.00  0.00    +0.000 C 
ATOM     37  O   ALA A   3       9.113  10.360  20.734  0.00  0.00    +0.000 OA
ENDBRANCH  34  36
ENDBRANCH  32  34
ENDBRANCH  29  30
BRANCH  29  38
ATOM     38  CB  GLN A   2       7.669   4.984  17.337  0.00  0.00    +0.000 C 
BRANCH  38  39
ATOM     39  CG  GLN A   2       6.495   4.628  16.409  0.00  0.00    +0.000 C 
BRANCH  39  40
ATOM     40  CD  GLN A   2       6.902   4.596  14.952  0.00  0.00    +0.000 C 
ATOM     41  NE2 GLN A   2       6.349   3.605  14.200  0.00  0.00    +0.000 N 
ATOM     42  OE1 GLN A   2       7.660   5.418  14.451  0.00  0.00    +0.000 OA
ATOM     43 HE21 GLN A   2       5.532   3.091  14.512  0.00  0.00    +0.000 HD
ATOM     44 HE22 GLN A   2       6.534   3.633  13.205  0.00  0.00    +0.000 HD
ENDBRANCH  39  40
ENDBRANCH  38  39
ENDBRANCH  29  38
ENDBRANCH  27  29
ENDBRANCH   1  25
TORSDOF 14
ENDMDL
MODEL 5
REMARK VINA RESULT:      -7.1      1.966      3.865
REMARK  Name = 
REMARK  17 active torsions:
REMARK  status: ('A' for Active; 'I' for Inactive)
REMARK    1  A    between atoms: C_1  and  C_2
REMARK    2  A    between atoms: C_2  and  C_3
REMARK    3  A    between atoms: C_2  and  C_4
REMARK    4  A    between atoms: C_4  and  C_5
REMARK    5  A    between atoms: C_5  and  C_6
REMARK    6  A    between atoms: C_5  and  N_8
REMARK    7  A    between atoms: N_11  and  C_12
REMARK    8  A    between atoms: C_12  and  C_13
REMARK    9  A    between atoms: C_12  and  C_29
REMARK   10  A    between atoms: N_15  and  CA_16
REMARK   11  A    between atoms: CA_16  and  CB_17
REMARK   12  A    between atoms: CA_16  and  C_22
REMARK   13  A    between atoms: CB_17  and  CG_18
REMARK   14  A    between atoms: CG_18  and  CD_19
REMARK   15  A    between atoms: N_24  and  CA_25
REMARK   16  A    between atoms: CA_25  and  CB_26
REMARK   17  A    between atoms: CA_25  and  C_27
REMARK                            x       y       z     vdW  Elec       q    Type
REMARK                         _______ _______ _______ _____ _____    ______ ____
ROOT
ATOM      1  C   UNK A   1       3.146   6.529  18.733  0.00  0.00    +0.000 C 
ENDROOT
BRANCH   1   2
ATOM      2  C   UNK A   1       2.333   5.213  18.931  0.00  0.00    +0.000 C 
ATOM      3  C   UNK A   1       1.957   4.870  20.382  0.00  0.00    +0.000 C 
ATOM      4  C   UNK A   1       2.290   3.447  20.826  0.00  0.00    +0.000 C 
ATOM      5  N   UNK A   1       3.458   2.838  20.179  0.00  0.00    +0.000 NA
ATOM      6  C   UNK A   1       3.630   3.143  18.951  0.00  0.00    +0.000 C 
ATOM      7  N   UNK A   1       4.513   2.526  18.148  0.00  0.00    +0.000 N 
ATOM      8  N   UNK A   1       3.004   4.115  18.281  0.00  0.00    +0.000 N 
ATOM      9  H   UNK A   1       5.001   1.777  18.649  0.00  0.00    +0.000 HD
ATOM     10  H   UNK A   1       5.242   3.133  17.798  0.00  0.00    +0.000 HD
ATOM     11  H   UNK A   1       3.272   4.259  17.315  0.00  0.00    +0.000 HD
ENDBRANCH   1   2
BRANCH   1  15
ATOM     12  N   UNK A   0       0.946   9.483  18.694  0.00  0.00    +0.000 N 
ATOM     13  C   UNK A   0       1.705   8.504  19.289  0.00  0.00    +0.000 C 
ATOM     14  O   UNK A   0       1.823   8.368  20.498  0.00  0.00    +0.000 OA
ATOM     15  N   UNK A   1       2.278   7.678  18.356  0.00  0.00    +0.000 N 
ATOM     16  H   UNK A   1       0.517   9.176  17.828  0.00  0.00    +0.000 HD
ATOM     17  H   UNK A   1       2.567   8.159  17.511  0.00  0.00    +0.000 HD
BRANCH  12  18
ATOM     18  C   UNK A   1       0.088  10.360  19.508  0.00  0.00    +0.000 C 
BRANCH  18  19
ATOM     19  C   UNK A   1      -1.175  10.632  18.697  0.00  0.00    +0.000 C 
ATOM     20  O   UNK A   1      -2.139  11.264  19.128  0.00  0.00    +0.000 OA
ENDBRANCH  18  19
BRANCH  18  21
ATOM     21  C   UNK A   1       0.824  11.672  19.838  0.00  0.00    +0.000 C 
BRANCH  21  23
ATOM     22  C   UNK A   1       0.462  14.077  19.032  0.00  0.00    +0.000 C 
ATOM     23  C   UNK A   1       0.991  12.687  18.682  0.00  0.00    +0.000 C 
ATOM     24  C   UNK A   1       2.471  12.800  18.288  0.00  0.00    +0.000 C 
ENDBRANCH  21  23
ENDBRANCH  18  21
ENDBRANCH  12  18
ENDBRANCH   1  15
BRANCH   1  25
ATOM     25  C   UNK A   1       4.318   6.544  17.697  0.00  0.00    +0.000 C 
ATOM     26  O   UNK A   1       4.157   6.039  16.581  0.00  0.00    +0.000 OA
ATOM     27  N   GLN A   2       5.515   7.088  18.058  0.00  0.00    +0.000 N 
ATOM     28  H   GLN A   2       5.698   7.331  19.025  0.00  0.00    +0.000 HD
BRANCH  27  29
ATOM     29  CA  GLN A   2       6.611   7.374  17.122  0.00  0.00    +0.000 C 
BRANCH  29  30
ATOM     30  C   GLN A   2       7.000   6.023  16.494  0.00  0.00    +0.000 C 
ATOM     31  O   GLN A   2       7.634   5.189  17.154  0.00  0.00    +0.000 OA
ATOM     32  N   ALA A   3       6.636   5.814  15.184  0.00  0.00    +0.000 N 
ATOM     33  H   ALA A   3       5.976   6.471  14.769  0.00  0.00    +0.000 HD
BRANCH  32  34
ATOM     34  CA  ALA A   3       7.080   4.685  14.350  0.00  0.00    +0.000 C 
ATOM     35  CB  ALA A   3       5.978   3.753  13.854  0.00  0.00    +0.000 C 
BRANCH  34  36
ATOM     36  C   ALA A   3       7.905   5.062  13.124  0.00  0.00    +0.000 C 
ATOM     37  O   ALA A   3       8.775   5.924  13.101  0.00  0.00    +0.000 OA
ENDBRANCH  34  36
ENDBRANCH  32  34
ENDBRANCH  29  30
BRANCH  29  38
ATOM     38  CB  GLN A   2       7.825   7.990  17.856  0.00  0.00    +0.000 C 
BRANCH  38  39
ATOM     39  CG  GLN A   2       7.899   9.522  17.746  0.00  0.00    +0.000 C 
BRANCH  39  40
ATOM     40  CD  GLN A   2       9.095  10.095  18.475  0.00  0.00    +0.000 C 
ATOM     41  NE2 GLN A   2       9.223   9.739  19.783  0.00  0.00    +0.000 N 
ATOM     42  OE1 GLN A   2       9.927  10.814  17.934  0.00  0.00    +0.000 OA
ATOM     43 HE21 GLN A   2       8.718   8.951  20.174  0.00  0.00    +0.000 HD
ATOM     44 HE22 GLN A   2      10.070  10.033  20.252  0.00  0.00    +0.000 HD
ENDBRANCH  39  40
ENDBRANCH  38  39
ENDBRANCH  29  38
ENDBRANCH  27  29
ENDBRANCH   1  25
TORSDOF 14
ENDMDL
MODEL 6
REMARK VINA RESULT:      -7.0      2.167      4.085
REMARK  Name = 
REMARK  17 active torsions:
REMARK  status: ('A' for Active; 'I' for Inactive)
REMARK    1  A    between atoms: C_1  and  C_2
REMARK    2  A    between atoms: C_2  and  C_3
REMARK    3  A    between atoms: C_2  and  C_4
REMARK    4  A    between atoms: C_4  and  C_5
REMARK    5  A    between atoms: C_5  and  C_6
REMARK    6  A    between atoms: C_5  and  N_8
REMARK    7  A    between atoms: N_11  and  C_12
REMARK    8  A    between atoms: C_12  and  C_13
REMARK    9  A    between atoms: C_12  and  C_29
REMARK   10  A    between atoms: N_15  and  CA_16
REMARK   11  A    between atoms: CA_16  and  CB_17
REMARK   12  A    between atoms: CA_16  and  C_22
REMARK   13  A    between atoms: CB_17  and  CG_18
REMARK   14  A    between atoms: CG_18  and  CD_19
REMARK   15  A    between atoms: N_24  and  CA_25
REMARK   16  A    between atoms: CA_25  and  CB_26
REMARK   17  A    between atoms: CA_25  and  C_27
REMARK                            x       y       z     vdW  Elec       q    Type
REMARK                         _______ _______ _______ _____ _____    ______ ____
ROOT
ATOM      1  C   UNK A   1       3.233   6.007  19.017  0.00  0.00    +0.000 C 
ENDROOT
BRANCH   1   2
ATOM      2  C   UNK A   1       2.419   4.678  19.092  0.00  0.00    +0.000 C 
ATOM      3  C   UNK A   1       1.502   4.524  20.316  0.00  0.00    +0.000 C 
ATOM      4  C   UNK A   1       1.644   3.207  21.078  0.00  0.00    +0.000 C 
ATOM      5  N   UNK A   1       2.977   2.595  21.045  0.00  0.00    +0.000 NA
ATOM      6  C   UNK A   1       3.619   2.731  19.949  0.00  0.00    +0.000 C 
ATOM      7  N   UNK A   1       4.753   2.069  19.664  0.00  0.00    +0.000 N 
ATOM      8  N   UNK A   1       3.301   3.548  18.941  0.00  0.00    +0.000 N 
ATOM      9  H   UNK A   1       5.008   1.436  20.429  0.00  0.00    +0.000 HD
ATOM     10  H   UNK A   1       5.556   2.669  19.533  0.00  0.00    +0.000 HD
ATOM     11  H   UNK A   1       3.929   3.570  18.146  0.00  0.00    +0.000 HD
ENDBRANCH   1   2
BRANCH   1  15
ATOM     12  N   UNK A   0       1.178   9.020  19.525  0.00  0.00    +0.000 N 
ATOM     13  C   UNK A   0       1.995   7.990  19.923  0.00  0.00    +0.000 C 
ATOM     14  O   UNK A   0       2.325   7.784  21.081  0.00  0.00    +0.000 OA
ATOM     15  N   UNK A   1       2.355   7.199  18.862  0.00  0.00    +0.000 N 
ATOM     16  H   UNK A   1       0.587   8.774  18.740  0.00  0.00    +0.000 HD
ATOM     17  H   UNK A   1       2.504   7.717  18.003  0.00  0.00    +0.000 HD
BRANCH  12  18
ATOM     18  C   UNK A   1       0.518   9.877  20.525  0.00  0.00    +0.000 C 
BRANCH  18  19
ATOM     19  C   UNK A   1      -0.620   9.062  21.134  0.00  0.00    +0.000 C 
ATOM     20  O   UNK A   1      -0.654   8.714  22.313  0.00  0.00    +0.000 OA
ENDBRANCH  18  19
BRANCH  18  21
ATOM     21  C   UNK A   1      -0.018  11.159  19.862  0.00  0.00    +0.000 C 
BRANCH  21  23
ATOM     22  C   UNK A   1      -1.826  12.599  20.968  0.00  0.00    +0.000 C 
ATOM     23  C   UNK A   1      -1.532  11.442  20.015  0.00  0.00    +0.000 C 
ATOM     24  C   UNK A   1      -2.152  11.755  18.644  0.00  0.00    +0.000 C 
ENDBRANCH  21  23
ENDBRANCH  18  21
ENDBRANCH  12  18
ENDBRANCH   1  15
BRANCH   1  25
ATOM     25  C   UNK A   1       4.329   6.158  17.912  0.00  0.00    +0.000 C 
ATOM     26  O   UNK A   1       4.088   5.799  16.754  0.00  0.00    +0.000 OA
ATOM     27  N   GLN A   2       5.552   6.657  18.254  0.00  0.00    +0.000 N 
ATOM     28  H   GLN A   2       5.803   6.775  19.229  0.00  0.00    +0.000 HD
BRANCH  27  29
ATOM     29  CA  GLN A   2       6.580   7.064  17.287  0.00  0.00    +0.000 C 
BRANCH  29  30
ATOM     30  C   GLN A   2       6.990   5.785  16.534  0.00  0.00    +0.000 C 
ATOM     31  O   GLN A   2       7.695   4.934  17.090  0.00  0.00    +0.000 OA
ATOM     32  N   ALA A   3       6.559   5.661  15.233  0.00  0.00    +0.000 N 
ATOM     33  H   ALA A   3       5.849   6.317  14.909  0.00  0.00    +0.000 HD
BRANCH  32  34
ATOM     34  CA  ALA A   3       7.001   4.622  14.290  0.00  0.00    +0.000 C 
ATOM     35  CB  ALA A   3       5.902   3.726  13.726  0.00  0.00    +0.000 C 
BRANCH  34  36
ATOM     36  C   ALA A   3       7.801   5.123  13.092  0.00  0.00    +0.000 C 
ATOM     37  O   ALA A   3       8.710   5.943  13.147  0.00  0.00    +0.000 OA
ENDBRANCH  34  36
ENDBRANCH  32  34
ENDBRANCH  29  30
BRANCH  29  38
ATOM     38  CB  GLN A   2       7.807   7.677  18.004  0.00  0.00    +0.000 C 
BRANCH  38  39
ATOM     39  CG  GLN A   2       8.291   8.996  17.379  0.00  0.00    +0.000 C 
BRANCH  39  40
ATOM     40  CD  GLN A   2       8.783   9.979  18.418  0.00  0.00    +0.000 C 
ATOM     41  NE2 GLN A   2       8.678  11.297  18.090  0.00  0.00    +0.000 N 
ATOM     42  OE1 GLN A   2       9.226   9.635  19.507  0.00  0.00    +0.000 OA
ATOM     43 HE21 GLN A   2       8.083  11.612  17.332  0.00  0.00    +0.000 HD
ATOM     44 HE22 GLN A   2       8.910  11.964  18.815  0.00  0.00    +0.000 HD
ENDBRANCH  39  40
ENDBRANCH  38  39
ENDBRANCH  29  38
ENDBRANCH  27  29
ENDBRANCH   1  25
TORSDOF 14
ENDMDL
MODEL 7
REMARK VINA RESULT:      -7.0      1.124      1.349
REMARK  Name = 
REMARK  17 active torsions:
REMARK  status: ('A' for Active; 'I' for Inactive)
REMARK    1  A    between atoms: C_1  and  C_2
REMARK    2  A    between atoms: C_2  and  C_3
REMARK    3  A    between atoms: C_2  and  C_4
REMARK    4  A    between atoms: C_4  and  C_5
REMARK    5  A    between atoms: C_5  and  C_6
REMARK    6  A    between atoms: C_5  and  N_8
REMARK    7  A    between atoms: N_11  and  C_12
REMARK    8  A    between atoms: C_12  and  C_13
REMARK    9  A    between atoms: C_12  and  C_29
REMARK   10  A    between atoms: N_15  and  CA_16
REMARK   11  A    between atoms: CA_16  and  CB_17
REMARK   12  A    between atoms: CA_16  and  C_22
REMARK   13  A    between atoms: CB_17  and  CG_18
REMARK   14  A    between atoms: CG_18  and  CD_19
REMARK   15  A    between atoms: N_24  and  CA_25
REMARK   16  A    between atoms: CA_25  and  CB_26
REMARK   17  A    between atoms: CA_25  and  C_27
REMARK                            x       y       z     vdW  Elec       q    Type
REMARK                         _______ _______ _______ _____ _____    ______ ____
ROOT
ATOM      1  C   UNK A   1       2.912   5.543  18.790  0.00  0.00    +0.000 C 
ENDROOT
BRANCH   1   2
ATOM      2  C   UNK A   1       1.707   4.580  19.024  0.00  0.00    +0.000 C 
ATOM      3  C   UNK A   1       1.231   4.445  20.480  0.00  0.00    +0.000 C 
ATOM      4  C   UNK A   1       1.071   3.013  20.986  0.00  0.00    +0.000 C 
ATOM      5  N   UNK A   1       1.973   2.023  20.386  0.00  0.00    +0.000 NA
ATOM      6  C   UNK A   1       2.243   2.201  19.150  0.00  0.00    +0.000 C 
ATOM      7  N   UNK A   1       2.875   1.292  18.389  0.00  0.00    +0.000 N 
ATOM      8  N   UNK A   1       1.978   3.295  18.431  0.00  0.00    +0.000 N 
ATOM      9  H   UNK A   1       3.083   0.445  18.928  0.00  0.00    +0.000 HD
ATOM     10  H   UNK A   1       3.766   1.607  18.029  0.00  0.00    +0.000 HD
ATOM     11  H   UNK A   1       2.284   3.300  17.465  0.00  0.00    +0.000 HD
ENDBRANCH   1   2
BRANCH   1  15
ATOM     12  N   UNK A   0       1.801   8.849  17.608  0.00  0.00    +0.000 N 
ATOM     13  C   UNK A   0       2.091   7.901  18.558  0.00  0.00    +0.000 C 
ATOM     14  O   UNK A   0       1.939   8.064  19.760  0.00  0.00    +0.000 OA
ATOM     15  N   UNK A   1       2.534   6.736  17.985  0.00  0.00    +0.000 N 
ATOM     16  H   UNK A   1       1.462   8.447  16.742  0.00  0.00    +0.000 HD
ATOM     17  H   UNK A   1       3.108   6.882  17.162  0.00  0.00    +0.000 HD
BRANCH  12  18
ATOM     18  C   UNK A   1       1.131  10.104  17.988  0.00  0.00    +0.000 C 
BRANCH  18  19
ATOM     19  C   UNK A   1       2.212  11.059  18.484  0.00  0.00    +0.000 C 
ATOM     20  O   UNK A   1       2.422  12.167  17.991  0.00  0.00    +0.000 OA
ENDBRANCH  18  19
BRANCH  18  21
ATOM     21  C   UNK A   1       0.083   9.842  19.086  0.00  0.00    +0.000 C 
BRANCH  21  23
ATOM     22  C   UNK A   1      -1.294  11.856  19.866  0.00  0.00    +0.000 C 
ATOM     23  C   UNK A   1      -0.100  10.948  20.152  0.00  0.00    +0.000 C 
ATOM     24  C   UNK A   1      -0.274  10.317  21.542  0.00  0.00    +0.000 C 
ENDBRANCH  21  23
ENDBRANCH  18  21
ENDBRANCH  12  18
ENDBRANCH   1  15
BRANCH   1  25
ATOM     25  C   UNK A   1       4.204   4.982  18.111  0.00  0.00    +0.000 C 
ATOM     26  O   UNK A   1       4.990   4.289  18.764  0.00  0.00    +0.000 OA
ATOM     27  N   GLN A   2       4.459   5.297  16.808  0.00  0.00    +0.000 N 
ATOM     28  H   GLN A   2       3.913   6.010  16.337  0.00  0.00    +0.000 HD
BRANCH  27  29
ATOM     29  CA  GLN A   2       5.498   4.659  15.989  0.00  0.00    +0.000 C 
BRANCH  29  30
ATOM     30  C   GLN A   2       6.844   5.196  16.511  0.00  0.00    +0.000 C 
ATOM     31  O   GLN A   2       7.853   4.480  16.483  0.00  0.00    +0.000 OA
ATOM     32  N   ALA A   3       6.851   6.474  17.020  0.00  0.00    +0.000 N 
ATOM     33  H   ALA A   3       6.028   7.052  16.852  0.00  0.00    +0.000 HD
BRANCH  32  34
ATOM     34  CA  ALA A   3       7.976   7.092  17.740  0.00  0.00    +0.000 C 
ATOM     35  CB  ALA A   3       7.927   8.613  17.867  0.00  0.00    +0.000 C 
BRANCH  34  36
ATOM     36  C   ALA A   3       8.229   6.554  19.144  0.00  0.00    +0.000 C 
ATOM     37  O   ALA A   3       7.454   5.845  19.776  0.00  0.00    +0.000 OA
ENDBRANCH  34  36
ENDBRANCH  32  34
ENDBRANCH  29  30
BRANCH  29  38
ATOM     38  CB  GLN A   2       5.325   5.015  14.494  0.00  0.00    +0.000 C 
BRANCH  38  39
ATOM     39  CG  GLN A   2       5.393   3.795  13.558  0.00  0.00    +0.000 C 
BRANCH  39  40
ATOM     40  CD  GLN A   2       6.604   3.833  12.651  0.00  0.00    +0.000 C 
ATOM     41  NE2 GLN A   2       7.422   4.912  12.793  0.00  0.00    +0.000 N 
ATOM     42  OE1 GLN A   2       6.867   2.944  11.850  0.00  0.00    +0.000 OA
ATOM     43 HE21 GLN A   2       7.381   5.509  13.611  0.00  0.00    +0.000 HD
ATOM     44 HE22 GLN A   2       8.285   4.898  12.264  0.00  0.00    +0.000 HD
ENDBRANCH  39  40
ENDBRANCH  38  39
ENDBRANCH  29  38
ENDBRANCH  27  29
ENDBRANCH   1  25
TORSDOF 14
ENDMDL
MODEL 8
REMARK VINA RESULT:      -6.9      1.946      2.460
REMARK  Name = 
REMARK  17 active torsions:
REMARK  status: ('A' for Active; 'I' for Inactive)
REMARK    1  A    between atoms: C_1  and  C_2
REMARK    2  A    between atoms: C_2  and  C_3
REMARK    3  A    between atoms: C_2  and  C_4
REMARK    4  A    between atoms: C_4  and  C_5
REMARK    5  A    between atoms: C_5  and  C_6
REMARK    6  A    between atoms: C_5  and  N_8
REMARK    7  A    between atoms: N_11  and  C_12
REMARK    8  A    between atoms: C_12  and  C_13
REMARK    9  A    between atoms: C_12  and  C_29
REMARK   10  A    between atoms: N_15  and  CA_16
REMARK   11  A    between atoms: CA_16  and  CB_17
REMARK   12  A    between atoms: CA_16  and  C_22
REMARK   13  A    between atoms: CB_17  and  CG_18
REMARK   14  A    between atoms: CG_18  and  CD_19
REMARK   15  A    between atoms: N_24  and  CA_25
REMARK   16  A    between atoms: CA_25  and  CB_26
REMARK   17  A    between atoms: CA_25  and  C_27
REMARK                            x       y       z     vdW  Elec       q    Type
REMARK                         _______ _______ _______ _____ _____    ______ ____
ROOT
ATOM      1  C   UNK A   1       3.465   4.554  18.182  0.00  0.00    +0.000 C 
ENDROOT
BRANCH   1   2
ATOM      2  C   UNK A   1       2.794   3.166  18.424  0.00  0.00    +0.000 C 
ATOM      3  C   UNK A   1       1.317   3.057  18.013  0.00  0.00    +0.000 C 
ATOM      4  C   UNK A   1       0.384   2.473  19.073  0.00  0.00    +0.000 C 
ATOM      5  N   UNK A   1       0.769   2.728  20.466  0.00  0.00    +0.000 NA
ATOM      6  C   UNK A   1       2.025   2.728  20.700  0.00  0.00    +0.000 C 
ATOM      7  N   UNK A   1       2.551   2.735  21.936  0.00  0.00    +0.000 N 
ATOM      8  N   UNK A   1       3.000   2.748  19.787  0.00  0.00    +0.000 N 
ATOM      9  H   UNK A   1       1.813   2.718  22.647  0.00  0.00    +0.000 HD
ATOM     10  H   UNK A   1       3.103   3.557  22.141  0.00  0.00    +0.000 HD
ATOM     11  H   UNK A   1       3.954   2.778  20.128  0.00  0.00    +0.000 HD
ENDBRANCH   1   2
BRANCH   1  15
ATOM     12  N   UNK A   0       1.624   7.717  18.589  0.00  0.00    +0.000 N 
ATOM     13  C   UNK A   0       2.686   6.864  18.766  0.00  0.00    +0.000 C 
ATOM     14  O   UNK A   0       3.678   7.132  19.427  0.00  0.00    +0.000 OA
ATOM     15  N   UNK A   1       2.471   5.662  18.142  0.00  0.00    +0.000 N 
ATOM     16  H   UNK A   1       0.737   7.233  18.522  0.00  0.00    +0.000 HD
ATOM     17  H   UNK A   1       1.976   5.745  17.261  0.00  0.00    +0.000 HD
BRANCH  12  18
ATOM     18  C   UNK A   1       1.557   8.988  19.330  0.00  0.00    +0.000 C 
BRANCH  18  19
ATOM     19  C   UNK A   1       0.842   8.703  20.647  0.00  0.00    +0.000 C 
ATOM     20  O   UNK A   1       1.386   8.773  21.748  0.00  0.00    +0.000 OA
ENDBRANCH  18  19
BRANCH  18  21
ATOM     21  C   UNK A   1       0.798  10.048  18.510  0.00  0.00    +0.000 C 
BRANCH  21  23
ATOM     22  C   UNK A   1      -0.931  11.670  19.482  0.00  0.00    +0.000 C 
ATOM     23  C   UNK A   1      -0.685  10.286  18.884  0.00  0.00    +0.000 C 
ATOM     24  C   UNK A   1      -1.577  10.113  17.645  0.00  0.00    +0.000 C 
ENDBRANCH  21  23
ENDBRANCH  18  21
ENDBRANCH  12  18
ENDBRANCH   1  15
BRANCH   1  25
ATOM     25  C   UNK A   1       4.351   4.751  16.908  0.00  0.00    +0.000 C 
ATOM     26  O   UNK A   1       4.360   5.843  16.330  0.00  0.00    +0.000 OA
ATOM     27  N   GLN A   2       5.078   3.698  16.436  0.00  0.00    +0.000 N 
ATOM     28  H   GLN A   2       4.924   2.764  16.801  0.00  0.00    +0.000 HD
BRANCH  27  29
ATOM     29  CA  GLN A   2       6.116   3.805  15.403  0.00  0.00    +0.000 C 
BRANCH  29  30
ATOM     30  C   GLN A   2       7.030   4.968  15.833  0.00  0.00    +0.000 C 
ATOM     31  O   GLN A   2       7.775   5.513  15.008  0.00  0.00    +0.000 OA
ATOM     32  N   ALA A   3       6.988   5.337  17.158  0.00  0.00    +0.000 N 
ATOM     33  H   ALA A   3       6.233   4.958  17.728  0.00  0.00    +0.000 HD
BRANCH  32  34
ATOM     34  CA  ALA A   3       7.915   6.280  17.804  0.00  0.00    +0.000 C 
ATOM     35  CB  ALA A   3       7.593   7.760  17.618  0.00  0.00    +0.000 C 
BRANCH  34  36
ATOM     36  C   ALA A   3       8.123   6.072  19.301  0.00  0.00    +0.000 C 
ATOM     37  O   ALA A   3       7.359   5.459  20.037  0.00  0.00    +0.000 OA
ENDBRANCH  34  36
ENDBRANCH  32  34
ENDBRANCH  29  30
BRANCH  29  38
ATOM     38  CB  GLN A   2       5.495   4.100  14.017  0.00  0.00    +0.000 C 
BRANCH  38  39
ATOM     39  CG  GLN A   2       6.315   3.539  12.842  0.00  0.00    +0.000 C 
BRANCH  39  40
ATOM     40  CD  GLN A   2       5.463   2.754  11.869  0.00  0.00    +0.000 C 
ATOM     41  NE2 GLN A   2       5.958   1.545  11.483  0.00  0.00    +0.000 N 
ATOM     42  OE1 GLN A   2       4.377   3.149  11.461  0.00  0.00    +0.000 OA
ATOM     43 HE21 GLN A   2       6.699   1.084  11.998  0.00  0.00    +0.000 HD
ATOM     44 HE22 GLN A   2       5.352   0.969  10.914  0.00  0.00    +0.000 HD
ENDBRANCH  39  40
ENDBRANCH  38  39
ENDBRANCH  29  38
ENDBRANCH  27  29
ENDBRANCH   1  25
TORSDOF 14
ENDMDL
MODEL 9
REMARK VINA RESULT:      -6.9      1.858      4.094
REMARK  Name = 
REMARK  17 active torsions:
REMARK  status: ('A' for Active; 'I' for Inactive)
REMARK    1  A    between atoms: C_1  and  C_2
REMARK    2  A    between atoms: C_2  and  C_3
REMARK    3  A    between atoms: C_2  and  C_4
REMARK    4  A    between atoms: C_4  and  C_5
REMARK    5  A    between atoms: C_5  and  C_6
REMARK    6  A    between atoms: C_5  and  N_8
REMARK    7  A    between atoms: N_11  and  C_12
REMARK    8  A    between atoms: C_12  and  C_13
REMARK    9  A    between atoms: C_12  and  C_29
REMARK   10  A    between atoms: N_15  and  CA_16
REMARK   11  A    between atoms: CA_16  and  CB_17
REMARK   12  A    between atoms: CA_16  and  C_22
REMARK   13  A    between atoms: CB_17  and  CG_18
REMARK   14  A    between atoms: CG_18  and  CD_19
REMARK   15  A    between atoms: N_24  and  CA_25
REMARK   16  A    between atoms: CA_25  and  CB_26
REMARK   17  A    between atoms: CA_25  and  C_27
REMARK                            x       y       z     vdW  Elec       q    Type
REMARK                         _______ _______ _______ _____ _____    ______ ____
ROOT
ATOM      1  C   UNK A   1       3.305   5.764  19.312  0.00  0.00    +0.000 C 
ENDROOT
BRANCH   1   2
ATOM      2  C   UNK A   1       2.128   4.765  19.088  0.00  0.00    +0.000 C 
ATOM      3  C   UNK A   1       1.317   4.395  20.340  0.00  0.00    +0.000 C 
ATOM      4  C   UNK A   1       1.108   2.898  20.566  0.00  0.00    +0.000 C 
ATOM      5  N   UNK A   1       2.177   2.026  20.067  0.00  0.00    +0.000 NA
ATOM      6  C   UNK A   1       2.733   2.401  18.980  0.00  0.00    +0.000 C 
ATOM      7  N   UNK A   1       3.575   1.631  18.272  0.00  0.00    +0.000 N 
ATOM      8  N   UNK A   1       2.599   3.593  18.392  0.00  0.00    +0.000 N 
ATOM      9  H   UNK A   1       3.686   0.711  18.710  0.00  0.00    +0.000 HD
ATOM     10  H   UNK A   1       4.510   2.007  18.198  0.00  0.00    +0.000 HD
ATOM     11  H   UNK A   1       3.131   3.755  17.546  0.00  0.00    +0.000 HD
ENDBRANCH   1   2
BRANCH   1  15
ATOM     12  N   UNK A   0       1.739   9.075  19.691  0.00  0.00    +0.000 N 
ATOM     13  C   UNK A   0       2.029   7.903  19.034  0.00  0.00    +0.000 C 
ATOM     14  O   UNK A   0       1.646   7.637  17.905  0.00  0.00    +0.000 OA
ATOM     15  N   UNK A   1       2.835   7.093  19.791  0.00  0.00    +0.000 N 
ATOM     16  H   UNK A   1       2.489   9.383  20.297  0.00  0.00    +0.000 HD
ATOM     17  H   UNK A   1       2.631   7.128  20.783  0.00  0.00    +0.000 HD
BRANCH  12  18
ATOM     18  C   UNK A   1       1.048  10.171  18.991  0.00  0.00    +0.000 C 
BRANCH  18  19
ATOM     19  C   UNK A   1       1.495  11.475  19.645  0.00  0.00    +0.000 C 
ATOM     20  O   UNK A   1       1.267  11.761  20.819  0.00  0.00    +0.000 OA
ENDBRANCH  18  19
BRANCH  18  21
ATOM     21  C   UNK A   1      -0.478   9.997  19.096  0.00  0.00    +0.000 C 
BRANCH  21  23
ATOM     22  C   UNK A   1      -2.664   9.782  17.778  0.00  0.00    +0.000 C 
ATOM     23  C   UNK A   1      -1.321  10.499  17.900  0.00  0.00    +0.000 C 
ATOM     24  C   UNK A   1      -1.572  12.009  18.026  0.00  0.00    +0.000 C 
ENDBRANCH  21  23
ENDBRANCH  18  21
ENDBRANCH  12  18
ENDBRANCH   1  15
BRANCH   1  25
ATOM     25  C   UNK A   1       4.267   6.075  18.118  0.00  0.00    +0.000 C 
ATOM     26  O   UNK A   1       3.852   5.994  16.957  0.00  0.00    +0.000 OA
ATOM     27  N   GLN A   2       5.565   6.401  18.380  0.00  0.00    +0.000 N 
ATOM     28  H   GLN A   2       5.944   6.286  19.314  0.00  0.00    +0.000 HD
BRANCH  27  29
ATOM     29  CA  GLN A   2       6.502   6.936  17.383  0.00  0.00    +0.000 C 
BRANCH  29  30
ATOM     30  C   GLN A   2       6.968   5.732  16.544  0.00  0.00    +0.000 C 
ATOM     31  O   GLN A   2       7.770   4.916  17.017  0.00  0.00    +0.000 OA
ATOM     32  N   ALA A   3       6.474   5.634  15.264  0.00  0.00    +0.000 N 
ATOM     33  H   ALA A   3       5.696   6.243  15.012  0.00  0.00    +0.000 HD
BRANCH  32  34
ATOM     34  CA  ALA A   3       6.942   4.680  14.246  0.00  0.00    +0.000 C 
ATOM     35  CB  ALA A   3       5.873   3.769  13.648  0.00  0.00    +0.000 C 
BRANCH  34  36
ATOM     36  C   ALA A   3       7.687   5.296  13.066  0.00  0.00    +0.000 C 
ATOM     37  O   ALA A   3       7.703   4.839  11.929  0.00  0.00    +0.000 OA
ENDBRANCH  34  36
ENDBRANCH  32  34
ENDBRANCH  29  30
BRANCH  29  38
ATOM     38  CB  GLN A   2       7.715   7.611  18.066  0.00  0.00    +0.000 C 
BRANCH  38  39
ATOM     39  CG  GLN A   2       8.100   8.964  17.441  0.00  0.00    +0.000 C 
BRANCH  39  40
ATOM     40  CD  GLN A   2       8.786   9.880  18.430  0.00  0.00    +0.000 C 
ATOM     41  NE2 GLN A   2       8.894  11.186  18.058  0.00  0.00    +0.000 N 
ATOM     42  OE1 GLN A   2       9.202   9.499  19.518  0.00  0.00    +0.000 OA
ATOM     43 HE21 GLN A   2       8.335  11.575  17.307  0.00  0.00    +0.000 HD
ATOM     44 HE22 GLN A   2       9.260  11.826  18.752  0.00  0.00    +0.000 HD
ENDBRANCH  39  40
ENDBRANCH  38  39
ENDBRANCH  29  38
ENDBRANCH  27  29
ENDBRANCH   1  25
TORSDOF 14
ENDMDL
