MODEL 1
REMARK VINA RESULT:      -6.8      0.000      0.000
REMARK  Name = 
REMARK  6 active torsions:
REMARK  status: ('A' for Active; 'I' for Inactive)
REMARK    1  A    between atoms: C_1  and  O_2
REMARK    2  A    between atoms: O_2  and  C_3
REMARK    3  A    between atoms: C_8  and  S_9
REMARK    4  A    between atoms: S_9  and  C_10
REMARK    5  A    between atoms: C_14  and  N_15
REMARK    6  A    between atoms: C_16  and  C_17
REMARK                            x       y       z     vdW  Elec       q    Type
REMARK                         _______ _______ _______ _____ _____    ______ ____
ROOT
ATOM      1  C   UNL     1       3.460   4.092  18.732  0.00  0.00    +0.000 A 
ATOM      2  C   UNL     1       2.593   5.181  18.567  0.00  0.00    +0.000 A 
ATOM      3  C   UNL     1       1.645   5.488  19.541  0.00  0.00    +0.000 A 
ATOM      4  C   UNL     1       1.549   4.706  20.689  0.00  0.00    +0.000 A 
ATOM      5  C   UNL     1       2.452   3.662  20.929  0.00  0.00    +0.000 A 
ATOM      6  C   UNL     1       3.412   3.353  19.936  0.00  0.00    +0.000 A 
ENDROOT
BRANCH   5   7
ATOM      7  N   UNL     1       2.209   2.825  22.035  0.00  0.00    +0.000 N 
ATOM      8  H   UNL     1       1.425   3.100  22.620  0.00  0.00    +0.000 HD
ATOM      9  H   UNL     1       3.024   2.558  22.584  0.00  0.00    +0.000 HD
ENDBRANCH   5   7
BRANCH   6  10
ATOM     10  C   UNL     1       4.374   2.321  20.205  0.00  0.00    +0.000 C 
ATOM     11  N   UNL     1       5.119   1.470  20.464  0.00  0.00    +0.000 NA
ENDBRANCH   6  10
BRANCH   1  12
ATOM     12  S   UNL     1       4.585   3.748  17.370  0.00  0.00    +0.000 S 
BRANCH  12  18
ATOM     13  C   UNL     1       6.366   5.852  16.708  0.00  0.00    +0.000 A 
ATOM     14  C   UNL     1       7.392   6.746  17.051  0.00  0.00    +0.000 A 
ATOM     15  C   UNL     1       7.906   6.787  18.347  0.00  0.00    +0.000 A 
ATOM     16  C   UNL     1       7.402   5.932  19.317  0.00  0.00    +0.000 A 
ATOM     17  C   UNL     1       6.396   5.025  18.986  0.00  0.00    +0.000 A 
ATOM     18  C   UNL     1       5.889   4.949  17.679  0.00  0.00    +0.000 A 
BRANCH  13  20
ATOM     19  C   UNL     1       6.508   5.023  14.491  0.00  0.00    +0.000 C 
ATOM     20  O   UNL     1       5.807   5.810  15.452  0.00  0.00    +0.000 OA
ENDBRANCH  13  20
ENDBRANCH  12  18
ENDBRANCH   1  12
TORSDOF 5
ENDMDL
MODEL 2
REMARK VINA RESULT:      -6.6      2.037      3.328
REMARK  Name = 
REMARK  6 active torsions:
REMARK  status: ('A' for Active; 'I' for Inactive)
REMARK    1  A    between atoms: C_1  and  O_2
REMARK    2  A    between atoms: O_2  and  C_3
REMARK    3  A    between atoms: C_8  and  S_9
REMARK    4  A    between atoms: S_9  and  C_10
REMARK    5  A    between atoms: C_14  and  N_15
REMARK    6  A    between atoms: C_16  and  C_17
REMARK                            x       y       z     vdW  Elec       q    Type
REMARK                         _______ _______ _______ _____ _____    ______ ____
ROOT
ATOM      1  C   UNL     1       2.865   4.711  18.310  0.00  0.00    +0.000 A 
ATOM      2  C   UNL     1       2.990   3.646  17.405  0.00  0.00    +0.000 A 
ATOM      3  C   UNL     1       2.390   2.417  17.669  0.00  0.00    +0.000 A 
ATOM      4  C   UNL     1       1.662   2.235  18.842  0.00  0.00    +0.000 A 
ATOM      5  C   UNL     1       1.444   3.298  19.729  0.00  0.00    +0.000 A 
ATOM      6  C   UNL     1       2.057   4.545  19.457  0.00  0.00    +0.000 A 
ENDROOT
BRANCH   5   7
ATOM      7  N   UNL     1       0.824   3.010  20.959  0.00  0.00    +0.000 N 
ATOM      8  H   UNL     1       0.091   3.657  21.235  0.00  0.00    +0.000 HD
ATOM      9  H   UNL     1       1.445   2.781  21.733  0.00  0.00    +0.000 HD
ENDBRANCH   5   7
BRANCH   6  10
ATOM     10  C   UNL     1       1.788   5.651  20.333  0.00  0.00    +0.000 C 
ATOM     11  N   UNL     1       1.527   6.516  21.062  0.00  0.00    +0.000 NA
ENDBRANCH   6  10
BRANCH   1  12
ATOM     12  S   UNL     1       3.751   6.222  17.897  0.00  0.00    +0.000 S 
BRANCH  12  18
ATOM     13  C   UNL     1       6.304   5.022  17.620  0.00  0.00    +0.000 A 
ATOM     14  C   UNL     1       7.356   4.541  16.825  0.00  0.00    +0.000 A 
ATOM     15  C   UNL     1       7.264   4.550  15.433  0.00  0.00    +0.000 A 
ATOM     16  C   UNL     1       6.121   5.040  14.818  0.00  0.00    +0.000 A 
ATOM     17  C   UNL     1       5.077   5.539  15.596  0.00  0.00    +0.000 A 
ATOM     18  C   UNL     1       5.164   5.567  16.996  0.00  0.00    +0.000 A 
BRANCH  13  20
ATOM     19  C   UNL     1       7.473   5.617  19.595  0.00  0.00    +0.000 C 
ATOM     20  O   UNL     1       6.340   4.992  18.995  0.00  0.00    +0.000 OA
ENDBRANCH  13  20
ENDBRANCH  12  18
ENDBRANCH   1  12
TORSDOF 5
ENDMDL
MODEL 3
REMARK VINA RESULT:      -6.5      2.898      5.680
REMARK  Name = 
REMARK  6 active torsions:
REMARK  status: ('A' for Active; 'I' for Inactive)
REMARK    1  A    between atoms: C_1  and  O_2
REMARK    2  A    between atoms: O_2  and  C_3
REMARK    3  A    between atoms: C_8  and  S_9
REMARK    4  A    between atoms: S_9  and  C_10
REMARK    5  A    between atoms: C_14  and  N_15
REMARK    6  A    between atoms: C_16  and  C_17
REMARK                            x       y       z     vdW  Elec       q    Type
REMARK                         _______ _______ _______ _____ _____    ______ ____
ROOT
ATOM      1  C   UNL     1       5.220   4.224  17.678  0.00  0.00    +0.000 A 
ATOM      2  C   UNL     1       4.706   3.868  16.423  0.00  0.00    +0.000 A 
ATOM      3  C   UNL     1       5.223   4.433  15.259  0.00  0.00    +0.000 A 
ATOM      4  C   UNL     1       6.255   5.364  15.336  0.00  0.00    +0.000 A 
ATOM      5  C   UNL     1       6.851   5.681  16.564  0.00  0.00    +0.000 A 
ATOM      6  C   UNL     1       6.321   5.106  17.745  0.00  0.00    +0.000 A 
ENDROOT
BRANCH   5   7
ATOM      7  N   UNL     1       7.789   6.731  16.587  0.00  0.00    +0.000 N 
ATOM      8  H   UNL     1       7.552   7.534  16.011  0.00  0.00    +0.000 HD
ATOM      9  H   UNL     1       8.766   6.463  16.490  0.00  0.00    +0.000 HD
ENDBRANCH   5   7
BRANCH   6  10
ATOM     10  C   UNL     1       6.967   5.385  18.997  0.00  0.00    +0.000 C 
ATOM     11  N   UNL     1       7.535   5.588  19.988  0.00  0.00    +0.000 NA
ENDBRANCH   6  10
BRANCH   1  12
ATOM     12  S   UNL     1       4.416   3.488  19.112  0.00  0.00    +0.000 S 
BRANCH  12  18
ATOM     13  C   UNL     1       2.435   4.726  20.716  0.00  0.00    +0.000 A 
ATOM     14  C   UNL     1       1.593   5.810  21.010  0.00  0.00    +0.000 A 
ATOM     15  C   UNL     1       1.634   6.978  20.247  0.00  0.00    +0.000 A 
ATOM     16  C   UNL     1       2.515   7.076  19.180  0.00  0.00    +0.000 A 
ATOM     17  C   UNL     1       3.344   5.999  18.865  0.00  0.00    +0.000 A 
ATOM     18  C   UNL     1       3.294   4.806  19.602  0.00  0.00    +0.000 A 
BRANCH  13  20
ATOM     19  C   UNL     1       1.304   2.738  21.342  0.00  0.00    +0.000 C 
ATOM     20  O   UNL     1       2.452   3.575  21.469  0.00  0.00    +0.000 OA
ENDBRANCH  13  20
ENDBRANCH  12  18
ENDBRANCH   1  12
TORSDOF 5
ENDMDL
MODEL 4
REMARK VINA RESULT:      -6.5      2.601      5.370
REMARK  Name = 
REMARK  6 active torsions:
REMARK  status: ('A' for Active; 'I' for Inactive)
REMARK    1  A    between atoms: C_1  and  O_2
REMARK    2  A    between atoms: O_2  and  C_3
REMARK    3  A    between atoms: C_8  and  S_9
REMARK    4  A    between atoms: S_9  and  C_10
REMARK    5  A    between atoms: C_14  and  N_15
REMARK    6  A    between atoms: C_16  and  C_17
REMARK                            x       y       z     vdW  Elec       q    Type
REMARK                         _______ _______ _______ _____ _____    ______ ____
ROOT
ATOM      1  C   UNL     1       5.285   6.090  17.787  0.00  0.00    +0.000 A 
ATOM      2  C   UNL     1       5.857   7.173  17.105  0.00  0.00    +0.000 A 
ATOM      3  C   UNL     1       7.157   7.584  17.390  0.00  0.00    +0.000 A 
ATOM      4  C   UNL     1       7.899   6.922  18.365  0.00  0.00    +0.000 A 
ATOM      5  C   UNL     1       7.393   5.784  19.008  0.00  0.00    +0.000 A 
ATOM      6  C   UNL     1       6.070   5.371  18.715  0.00  0.00    +0.000 A 
ENDROOT
BRANCH   5   7
ATOM      7  N   UNL     1       8.135   5.251  20.079  0.00  0.00    +0.000 N 
ATOM      8  H   UNL     1       7.715   4.447  20.536  0.00  0.00    +0.000 HD
ATOM      9  H   UNL     1       8.506   5.923  20.747  0.00  0.00    +0.000 HD
ENDBRANCH   5   7
BRANCH   6  10
ATOM     10  C   UNL     1       5.571   4.173  19.330  0.00  0.00    +0.000 C 
ATOM     11  N   UNL     1       5.196   3.174  19.789  0.00  0.00    +0.000 NA
ENDBRANCH   6  10
BRANCH   1  12
ATOM     12  S   UNL     1       3.572   5.705  17.388  0.00  0.00    +0.000 S 
BRANCH  12  18
ATOM     13  C   UNL     1       2.354   6.829  19.687  0.00  0.00    +0.000 A 
ATOM     14  C   UNL     1       1.667   7.872  20.327  0.00  0.00    +0.000 A 
ATOM     15  C   UNL     1       1.370   9.057  19.652  0.00  0.00    +0.000 A 
ATOM     16  C   UNL     1       1.754   9.213  18.328  0.00  0.00    +0.000 A 
ATOM     17  C   UNL     1       2.420   8.177  17.674  0.00  0.00    +0.000 A 
ATOM     18  C   UNL     1       2.699   6.967  18.327  0.00  0.00    +0.000 A 
BRANCH  13  20
ATOM     19  C   UNL     1       1.632   4.746  20.560  0.00  0.00    +0.000 C 
ATOM     20  O   UNL     1       2.700   5.663  20.330  0.00  0.00    +0.000 OA
ENDBRANCH  13  20
ENDBRANCH  12  18
ENDBRANCH   1  12
TORSDOF 5
ENDMDL
MODEL 5
REMARK VINA RESULT:      -6.5      1.766      2.610
REMARK  Name = 
REMARK  6 active torsions:
REMARK  status: ('A' for Active; 'I' for Inactive)
REMARK    1  A    between atoms: C_1  and  O_2
REMARK    2  A    between atoms: O_2  and  C_3
REMARK    3  A    between atoms: C_8  and  S_9
REMARK    4  A    between atoms: S_9  and  C_10
REMARK    5  A    between atoms: C_14  and  N_15
REMARK    6  A    between atoms: C_16  and  C_17
REMARK                            x       y       z     vdW  Elec       q    Type
REMARK                         _______ _______ _______ _____ _____    ______ ____
ROOT
ATOM      1  C   UNL     1       3.727   4.434  18.656  0.00  0.00    +0.000 A 
ATOM      2  C   UNL     1       2.739   5.217  18.041  0.00  0.00    +0.000 A 
ATOM      3  C   UNL     1       1.457   4.711  17.839  0.00  0.00    +0.000 A 
ATOM      4  C   UNL     1       1.148   3.415  18.244  0.00  0.00    +0.000 A 
ATOM      5  C   UNL     1       2.082   2.633  18.936  0.00  0.00    +0.000 A 
ATOM      6  C   UNL     1       3.384   3.151  19.138  0.00  0.00    +0.000 A 
ENDROOT
BRANCH   5   7
ATOM      7  N   UNL     1       1.753   1.288  19.188  0.00  0.00    +0.000 N 
ATOM      8  H   UNL     1       1.416   1.095  20.127  0.00  0.00    +0.000 HD
ATOM      9  H   UNL     1       2.428   0.594  18.871  0.00  0.00    +0.000 HD
ENDBRANCH   5   7
BRANCH   6  10
ATOM     10  C   UNL     1       4.324   2.375  19.897  0.00  0.00    +0.000 C 
ATOM     11  N   UNL     1       5.050   1.703  20.504  0.00  0.00    +0.000 NA
ENDBRANCH   6  10
BRANCH   1  12
ATOM     12  S   UNL     1       5.365   5.169  18.788  0.00  0.00    +0.000 S 
BRANCH  12  18
ATOM     13  C   UNL     1       7.138   5.618  16.622  0.00  0.00    +0.000 A 
ATOM     14  C   UNL     1       7.515   5.426  15.283  0.00  0.00    +0.000 A 
ATOM     15  C   UNL     1       6.776   4.595  14.441  0.00  0.00    +0.000 A 
ATOM     16  C   UNL     1       5.648   3.947  14.925  0.00  0.00    +0.000 A 
ATOM     17  C   UNL     1       5.251   4.143  16.247  0.00  0.00    +0.000 A 
ATOM     18  C   UNL     1       5.964   5.000  17.100  0.00  0.00    +0.000 A 
BRANCH  13  20
ATOM     19  C   UNL     1       7.592   7.795  17.442  0.00  0.00    +0.000 C 
ATOM     20  O   UNL     1       7.863   6.396  17.494  0.00  0.00    +0.000 OA
ENDBRANCH  13  20
ENDBRANCH  12  18
ENDBRANCH   1  12
TORSDOF 5
ENDMDL
MODEL 6
REMARK VINA RESULT:      -6.5      1.822      2.506
REMARK  Name = 
REMARK  6 active torsions:
REMARK  status: ('A' for Active; 'I' for Inactive)
REMARK    1  A    between atoms: C_1  and  O_2
REMARK    2  A    between atoms: O_2  and  C_3
REMARK    3  A    between atoms: C_8  and  S_9
REMARK    4  A    between atoms: S_9  and  C_10
REMARK    5  A    between atoms: C_14  and  N_15
REMARK    6  A    between atoms: C_16  and  C_17
REMARK                            x       y       z     vdW  Elec       q    Type
REMARK                         _______ _______ _______ _____ _____    ______ ____
ROOT
ATOM      1  C   UNL     1       2.663   4.468  18.280  0.00  0.00    +0.000 A 
ATOM      2  C   UNL     1       2.719   3.341  17.448  0.00  0.00    +0.000 A 
ATOM      3  C   UNL     1       2.170   2.128  17.858  0.00  0.00    +0.000 A 
ATOM      4  C   UNL     1       1.563   2.025  19.107  0.00  0.00    +0.000 A 
ATOM      5  C   UNL     1       1.412   3.149  19.931  0.00  0.00    +0.000 A 
ATOM      6  C   UNL     1       1.973   4.379  19.510  0.00  0.00    +0.000 A 
ENDROOT
BRANCH   5   7
ATOM      7  N   UNL     1       0.920   2.946  21.234  0.00  0.00    +0.000 N 
ATOM      8  H   UNL     1      -0.086   2.823  21.300  0.00  0.00    +0.000 HD
ATOM      9  H   UNL     1       1.279   3.572  21.952  0.00  0.00    +0.000 HD
ENDBRANCH   5   7
BRANCH   6  10
ATOM     10  C   UNL     1       1.770   5.543  20.326  0.00  0.00    +0.000 C 
ATOM     11  N   UNL     1       1.554   6.489  20.964  0.00  0.00    +0.000 NA
ENDBRANCH   6  10
BRANCH   1  12
ATOM     12  S   UNL     1       3.477   5.955  17.673  0.00  0.00    +0.000 S 
BRANCH  12  18
ATOM     13  C   UNL     1       5.929   4.950  16.665  0.00  0.00    +0.000 A 
ATOM     14  C   UNL     1       7.276   4.596  16.840  0.00  0.00    +0.000 A 
ATOM     15  C   UNL     1       7.918   4.797  18.062  0.00  0.00    +0.000 A 
ATOM     16  C   UNL     1       7.222   5.353  19.126  0.00  0.00    +0.000 A 
ATOM     17  C   UNL     1       5.878   5.692  18.972  0.00  0.00    +0.000 A 
ATOM     18  C   UNL     1       5.207   5.468  17.760  0.00  0.00    +0.000 A 
BRANCH  13  20
ATOM     19  C   UNL     1       6.027   4.194  14.420  0.00  0.00    +0.000 C 
ATOM     20  O   UNL     1       5.273   4.805  15.465  0.00  0.00    +0.000 OA
ENDBRANCH  13  20
ENDBRANCH  12  18
ENDBRANCH   1  12
TORSDOF 5
ENDMDL
MODEL 7
REMARK VINA RESULT:      -6.4      1.869      2.497
REMARK  Name = 
REMARK  6 active torsions:
REMARK  status: ('A' for Active; 'I' for Inactive)
REMARK    1  A    between atoms: C_1  and  O_2
REMARK    2  A    between atoms: O_2  and  C_3
REMARK    3  A    between atoms: C_8  and  S_9
REMARK    4  A    between atoms: S_9  and  C_10
REMARK    5  A    between atoms: C_14  and  N_15
REMARK    6  A    between atoms: C_16  and  C_17
REMARK                            x       y       z     vdW  Elec       q    Type
REMARK                         _______ _______ _______ _____ _____    ______ ____
ROOT
ATOM      1  C   UNL     1       3.125   4.133  18.578  0.00  0.00    +0.000 A 
ATOM      2  C   UNL     1       2.810   2.931  19.228  0.00  0.00    +0.000 A 
ATOM      3  C   UNL     1       2.077   2.937  20.413  0.00  0.00    +0.000 A 
ATOM      4  C   UNL     1       1.654   4.144  20.964  0.00  0.00    +0.000 A 
ATOM      5  C   UNL     1       1.876   5.358  20.300  0.00  0.00    +0.000 A 
ATOM      6  C   UNL     1       2.623   5.347  19.098  0.00  0.00    +0.000 A 
ENDROOT
BRANCH   5   7
ATOM      7  N   UNL     1       1.550   6.547  20.980  0.00  0.00    +0.000 N 
ATOM      8  H   UNL     1       0.825   7.108  20.543  0.00  0.00    +0.000 HD
ATOM      9  H   UNL     1       2.335   7.112  21.298  0.00  0.00    +0.000 HD
ENDBRANCH   5   7
BRANCH   6  10
ATOM     10  C   UNL     1       2.802   6.582  18.387  0.00  0.00    +0.000 C 
ATOM     11  N   UNL     1       2.925   7.607  17.856  0.00  0.00    +0.000 NA
ENDBRANCH   6  10
BRANCH   1  12
ATOM     12  S   UNL     1       4.145   4.001  17.100  0.00  0.00    +0.000 S 
BRANCH  12  18
ATOM     13  C   UNL     1       6.317   5.779  16.707  0.00  0.00    +0.000 A 
ATOM     14  C   UNL     1       7.439   6.473  17.187  0.00  0.00    +0.000 A 
ATOM     15  C   UNL     1       7.814   6.391  18.528  0.00  0.00    +0.000 A 
ATOM     16  C   UNL     1       7.073   5.613  19.407  0.00  0.00    +0.000 A 
ATOM     17  C   UNL     1       5.968   4.903  18.939  0.00  0.00    +0.000 A 
ATOM     18  C   UNL     1       5.594   4.949  17.587  0.00  0.00    +0.000 A 
BRANCH  13  20
ATOM     19  C   UNL     1       6.544   4.994  14.481  0.00  0.00    +0.000 C 
ATOM     20  O   UNL     1       5.893   5.867  15.401  0.00  0.00    +0.000 OA
ENDBRANCH  13  20
ENDBRANCH  12  18
ENDBRANCH   1  12
TORSDOF 5
ENDMDL
MODEL 8
REMARK VINA RESULT:      -6.4      2.022      3.336
REMARK  Name = 
REMARK  6 active torsions:
REMARK  status: ('A' for Active; 'I' for Inactive)
REMARK    1  A    between atoms: C_1  and  O_2
REMARK    2  A    between atoms: O_2  and  C_3
REMARK    3  A    between atoms: C_8  and  S_9
REMARK    4  A    between atoms: S_9  and  C_10
REMARK    5  A    between atoms: C_14  and  N_15
REMARK    6  A    between atoms: C_16  and  C_17
REMARK                            x       y       z     vdW  Elec       q    Type
REMARK                         _______ _______ _______ _____ _____    ______ ____
ROOT
ATOM      1  C   UNL     1       3.031   5.460  18.588  0.00  0.00    +0.000 A 
ATOM      2  C   UNL     1       3.272   6.496  17.674  0.00  0.00    +0.000 A 
ATOM      3  C   UNL     1       2.867   7.799  17.957  0.00  0.00    +0.000 A 
ATOM      4  C   UNL     1       2.210   8.080  19.152  0.00  0.00    +0.000 A 
ATOM      5  C   UNL     1       2.027   7.089  20.125  0.00  0.00    +0.000 A 
ATOM      6  C   UNL     1       2.439   5.766  19.833  0.00  0.00    +0.000 A 
ENDROOT
BRANCH   5   7
ATOM      7  N   UNL     1       1.233   7.406  21.244  0.00  0.00    +0.000 N 
ATOM      8  H   UNL     1       0.737   6.622  21.657  0.00  0.00    +0.000 HD
ATOM      9  H   UNL     1       0.643   8.232  21.156  0.00  0.00    +0.000 HD
ENDBRANCH   5   7
BRANCH   6  10
ATOM     10  C   UNL     1       2.304   4.762  20.851  0.00  0.00    +0.000 C 
ATOM     11  N   UNL     1       2.245   3.930  21.658  0.00  0.00    +0.000 NA
ENDBRANCH   6  10
BRANCH   1  12
ATOM     12  S   UNL     1       3.530   3.808  18.075  0.00  0.00    +0.000 S 
BRANCH  12  18
ATOM     13  C   UNL     1       6.232   4.516  17.592  0.00  0.00    +0.000 A 
ATOM     14  C   UNL     1       7.292   4.789  16.713  0.00  0.00    +0.000 A 
ATOM     15  C   UNL     1       7.127   4.675  15.332  0.00  0.00    +0.000 A 
ATOM     16  C   UNL     1       5.900   4.289  14.812  0.00  0.00    +0.000 A 
ATOM     17  C   UNL     1       4.833   4.034  15.673  0.00  0.00    +0.000 A 
ATOM     18  C   UNL     1       4.971   4.173  17.062  0.00  0.00    +0.000 A 
BRANCH  13  20
ATOM     19  C   UNL     1       7.250   5.586  19.447  0.00  0.00    +0.000 C 
ATOM     20  O   UNL     1       6.367   4.577  18.959  0.00  0.00    +0.000 OA
ENDBRANCH  13  20
ENDBRANCH  12  18
ENDBRANCH   1  12
TORSDOF 5
ENDMDL
MODEL 9
REMARK VINA RESULT:      -6.3      2.956      5.616
REMARK  Name = 
REMARK  6 active torsions:
REMARK  status: ('A' for Active; 'I' for Inactive)
REMARK    1  A    between atoms: C_1  and  O_2
REMARK    2  A    between atoms: O_2  and  C_3
REMARK    3  A    between atoms: C_8  and  S_9
REMARK    4  A    between atoms: S_9  and  C_10
REMARK    5  A    between atoms: C_14  and  N_15
REMARK    6  A    between atoms: C_16  and  C_17
REMARK                            x       y       z     vdW  Elec       q    Type
REMARK                         _______ _______ _______ _____ _____    ______ ____
ROOT
ATOM      1  C   UNL     1       5.220   4.201  17.802  0.00  0.00    +0.000 A 
ATOM      2  C   UNL     1       5.541   4.585  19.112  0.00  0.00    +0.000 A 
ATOM      3  C   UNL     1       6.547   5.519  19.352  0.00  0.00    +0.000 A 
ATOM      4  C   UNL     1       7.248   6.075  18.285  0.00  0.00    +0.000 A 
ATOM      5  C   UNL     1       6.900   5.780  16.960  0.00  0.00    +0.000 A 
ATOM      6  C   UNL     1       5.878   4.830  16.722  0.00  0.00    +0.000 A 
ENDROOT
BRANCH   5   7
ATOM      7  N   UNL     1       7.739   6.264  15.938  0.00  0.00    +0.000 N 
ATOM      8  H   UNL     1       8.196   5.549  15.380  0.00  0.00    +0.000 HD
ATOM      9  H   UNL     1       8.376   7.015  16.198  0.00  0.00    +0.000 HD
ENDBRANCH   5   7
BRANCH   6  10
ATOM     10  C   UNL     1       5.482   4.569  15.367  0.00  0.00    +0.000 C 
ATOM     11  N   UNL     1       5.208   4.327  14.265  0.00  0.00    +0.000 NA
ENDBRANCH   6  10
BRANCH   1  12
ATOM     12  S   UNL     1       3.959   2.928  17.626  0.00  0.00    +0.000 S 
BRANCH  12  18
ATOM     13  C   UNL     1       2.015   4.319  19.150  0.00  0.00    +0.000 A 
ATOM     14  C   UNL     1       1.263   4.485  20.324  0.00  0.00    +0.000 A 
ATOM     15  C   UNL     1       1.373   3.581  21.381  0.00  0.00    +0.000 A 
ATOM     16  C   UNL     1       2.237   2.500  21.279  0.00  0.00    +0.000 A 
ATOM     17  C   UNL     1       3.004   2.333  20.127  0.00  0.00    +0.000 A 
ATOM     18  C   UNL     1       2.930   3.250  19.067  0.00  0.00    +0.000 A 
BRANCH  13  20
ATOM     19  C   UNL     1       2.407   6.485  18.271  0.00  0.00    +0.000 C 
ATOM     20  O   UNL     1       1.905   5.165  18.072  0.00  0.00    +0.000 OA
ENDBRANCH  13  20
ENDBRANCH  12  18
ENDBRANCH   1  12
TORSDOF 5
ENDMDL
