MODEL 1
REMARK VINA RESULT:      -8.7      0.000      0.000
REMARK  Name = 
REMARK  6 active torsions:
REMARK  status: ('A' for Active; 'I' for Inactive)
REMARK    1  A    between atoms: C_2  and  C_3
REMARK    2  A    between atoms: C_2  and  C_8
REMARK    3  A    between atoms: C_3  and  C_5
REMARK    4  A    between atoms: C_5  and  C_6
REMARK    5  A    between atoms: C_5  and  C_7
REMARK    6  A    between atoms: C_15  and  C_16
REMARK                            x       y       z     vdW  Elec       q    Type
REMARK                         _______ _______ _______ _____ _____    ______ ____
ROOT
ATOM      1  C   UNL     1      -0.747  10.640  19.305  0.00  0.00    +0.000 A 
ATOM      2  C   UNL     1      -1.091  10.990  20.652  0.00  0.00    +0.000 A 
ATOM      3  C   UNL     1      -2.070  11.933  21.030  0.00  0.00    +0.000 A 
ATOM      4  C   UNL     1      -2.344  12.259  22.343  0.00  0.00    +0.000 A 
ATOM      5  C   UNL     1      -1.679  11.681  23.387  0.00  0.00    +0.000 A 
ATOM      6  C   UNL     1      -0.699  10.745  23.064  0.00  0.00    +0.000 A 
ATOM      7  C   UNL     1      -0.374  10.394  21.721  0.00  0.00    +0.000 A 
ATOM      8  C   UNL     1       0.648   9.458  21.430  0.00  0.00    +0.000 A 
ATOM      9  C   UNL     1       1.580   8.972  22.516  0.00  0.00    +0.000 C 
ATOM     10  C   UNL     1       0.827   9.018  20.094  0.00  0.00    +0.000 A 
ATOM     11  N   UNL     1       0.223   9.695  19.062  0.00  0.00    +0.000 N 
ATOM     12  C   UNL     1       0.637   9.378  17.654  0.00  0.00    +0.000 C 
ATOM     13  C   UNL     1       2.141   9.144  17.587  0.00  0.00    +0.000 C 
ATOM     14  C   UNL     1       2.443   7.976  18.472  0.00  0.00    +0.000 A 
ATOM     15  C   UNL     1       3.353   6.983  18.069  0.00  0.00    +0.000 A 
ATOM     16  C   UNL     1       3.484   5.876  18.871  0.00  0.00    +0.000 A 
ATOM     17  C   UNL     1       2.753   5.741  20.023  0.00  0.00    +0.000 A 
ATOM     18  C   UNL     1       1.868   6.713  20.448  0.00  0.00    +0.000 A 
ATOM     19  C   UNL     1       1.724   7.894  19.693  0.00  0.00    +0.000 A 
ATOM     20  O   UNL     1       3.001   4.563  20.656  0.00  0.00    +0.000 OA
ATOM     21  C   UNL     1       3.905   3.935  19.720  0.00  0.00    +0.000 C 
ATOM     22  O   UNL     1       4.276   4.802  18.626  0.00  0.00    +0.000 OA
ATOM     23  O   UNL     1      -3.310  13.205  22.481  0.00  0.00    +0.000 OA
ATOM     24  C   UNL     1      -3.665  13.429  21.107  0.00  0.00    +0.000 C 
ATOM     25  O   UNL     1      -2.850  12.676  20.183  0.00  0.00    +0.000 OA
ENDROOT
BRANCH   1  27
ATOM     26  C   UNL     1      -1.049  12.496  17.729  0.00  0.00    +0.000 C 
ATOM     27  C   UNL     1      -1.399  11.264  18.132  0.00  0.00    +0.000 C 
BRANCH  27  28
ATOM     28  C   UNL     1      -2.603  10.683  17.453  0.00  0.00    +0.000 C 
ATOM     29  O   UNL     1      -3.021   9.580  17.804  0.00  0.00    +0.000 OA
BRANCH  28  30
ATOM     30  C   UNL     1      -3.204  11.396  16.250  0.00  0.00    +0.000 C 
ATOM     31  C   UNL     1      -3.085  10.511  15.013  0.00  0.00    +0.000 C 
ATOM     32  C   UNL     1      -4.672  11.709  16.537  0.00  0.00    +0.000 C 
ENDBRANCH  28  30
ENDBRANCH  27  28
ENDBRANCH   1  27
TORSDOF 3
ENDMDL
MODEL 2
REMARK VINA RESULT:      -8.5      0.839      1.044
REMARK  Name = 
REMARK  6 active torsions:
REMARK  status: ('A' for Active; 'I' for Inactive)
REMARK    1  A    between atoms: C_2  and  C_3
REMARK    2  A    between atoms: C_2  and  C_8
REMARK    3  A    between atoms: C_3  and  C_5
REMARK    4  A    between atoms: C_5  and  C_6
REMARK    5  A    between atoms: C_5  and  C_7
REMARK    6  A    between atoms: C_15  and  C_16
REMARK                            x       y       z     vdW  Elec       q    Type
REMARK                         _______ _______ _______ _____ _____    ______ ____
ROOT
ATOM      1  C   UNL     1      -0.720  11.034  19.362  0.00  0.00    +0.000 A 
ATOM      2  C   UNL     1      -1.153  11.386  20.682  0.00  0.00    +0.000 A 
ATOM      3  C   UNL     1      -2.073  12.408  20.998  0.00  0.00    +0.000 A 
ATOM      4  C   UNL     1      -2.436  12.731  22.289  0.00  0.00    +0.000 A 
ATOM      5  C   UNL     1      -1.928  12.070  23.371  0.00  0.00    +0.000 A 
ATOM      6  C   UNL     1      -1.012  11.053  23.111  0.00  0.00    +0.000 A 
ATOM      7  C   UNL     1      -0.597  10.702  21.793  0.00  0.00    +0.000 A 
ATOM      8  C   UNL     1       0.357   9.680  21.567  0.00  0.00    +0.000 A 
ATOM      9  C   UNL     1       1.135   9.085  22.719  0.00  0.00    +0.000 C 
ATOM     10  C   UNL     1       0.619   9.254  20.241  0.00  0.00    +0.000 A 
ATOM     11  N   UNL     1       0.178  10.007  19.180  0.00  0.00    +0.000 N 
ATOM     12  C   UNL     1       0.691   9.683  17.806  0.00  0.00    +0.000 C 
ATOM     13  C   UNL     1       2.166   9.309  17.868  0.00  0.00    +0.000 C 
ATOM     14  C   UNL     1       2.276   8.099  18.742  0.00  0.00    +0.000 A 
ATOM     15  C   UNL     1       3.125   7.034  18.393  0.00  0.00    +0.000 A 
ATOM     16  C   UNL     1       3.077   5.902  19.170  0.00  0.00    +0.000 A 
ATOM     17  C   UNL     1       2.233   5.812  20.246  0.00  0.00    +0.000 A 
ATOM     18  C   UNL     1       1.406   6.854  20.618  0.00  0.00    +0.000 A 
ATOM     19  C   UNL     1       1.442   8.058  19.890  0.00  0.00    +0.000 A 
ATOM     20  O   UNL     1       2.312   4.602  20.864  0.00  0.00    +0.000 OA
ATOM     21  C   UNL     1       3.238   3.912  19.995  0.00  0.00    +0.000 C 
ATOM     22  O   UNL     1       3.787   4.763  18.966  0.00  0.00    +0.000 OA
ATOM     23  O   UNL     1      -3.320  13.760  22.368  0.00  0.00    +0.000 OA
ATOM     24  C   UNL     1      -3.524  14.046  20.975  0.00  0.00    +0.000 C 
ATOM     25  O   UNL     1      -2.699  13.240  20.107  0.00  0.00    +0.000 OA
ENDROOT
BRANCH   1  27
ATOM     26  C   UNL     1      -0.730  12.961  17.843  0.00  0.00    +0.000 C 
ATOM     27  C   UNL     1      -1.199  11.741  18.153  0.00  0.00    +0.000 C 
BRANCH  27  28
ATOM     28  C   UNL     1      -2.356  11.267  17.326  0.00  0.00    +0.000 C 
ATOM     29  O   UNL     1      -2.283  11.323  16.098  0.00  0.00    +0.000 OA
BRANCH  28  30
ATOM     30  C   UNL     1      -3.652  10.859  18.010  0.00  0.00    +0.000 C 
ATOM     31  C   UNL     1      -4.830  11.569  17.351  0.00  0.00    +0.000 C 
ATOM     32  C   UNL     1      -3.820   9.344  17.901  0.00  0.00    +0.000 C 
ENDBRANCH  28  30
ENDBRANCH  27  28
ENDBRANCH   1  27
TORSDOF 3
ENDMDL
MODEL 3
REMARK VINA RESULT:      -7.4      4.219      7.852
REMARK  Name = 
REMARK  6 active torsions:
REMARK  status: ('A' for Active; 'I' for Inactive)
REMARK    1  A    between atoms: C_2  and  C_3
REMARK    2  A    between atoms: C_2  and  C_8
REMARK    3  A    between atoms: C_3  and  C_5
REMARK    4  A    between atoms: C_5  and  C_6
REMARK    5  A    between atoms: C_5  and  C_7
REMARK    6  A    between atoms: C_15  and  C_16
REMARK                            x       y       z     vdW  Elec       q    Type
REMARK                         _______ _______ _______ _____ _____    ______ ____
ROOT
ATOM      1  C   UNL     1      -4.266  12.635  19.798  0.00  0.00    +0.000 A 
ATOM      2  C   UNL     1      -3.257  11.903  19.090  0.00  0.00    +0.000 A 
ATOM      3  C   UNL     1      -3.408  11.323  17.812  0.00  0.00    +0.000 A 
ATOM      4  C   UNL     1      -2.415  10.600  17.184  0.00  0.00    +0.000 A 
ATOM      5  C   UNL     1      -1.194  10.394  17.760  0.00  0.00    +0.000 A 
ATOM      6  C   UNL     1      -0.996  10.945  19.024  0.00  0.00    +0.000 A 
ATOM      7  C   UNL     1      -2.003  11.682  19.714  0.00  0.00    +0.000 A 
ATOM      8  C   UNL     1      -1.775  12.205  21.011  0.00  0.00    +0.000 A 
ATOM      9  C   UNL     1      -0.548  11.806  21.798  0.00  0.00    +0.000 C 
ATOM     10  C   UNL     1      -2.740  13.067  21.591  0.00  0.00    +0.000 A 
ATOM     11  N   UNL     1      -3.994  13.163  21.039  0.00  0.00    +0.000 N 
ATOM     12  C   UNL     1      -5.070  13.867  21.815  0.00  0.00    +0.000 C 
ATOM     13  C   UNL     1      -4.953  13.536  23.298  0.00  0.00    +0.000 C 
ATOM     14  C   UNL     1      -3.611  14.019  23.751  0.00  0.00    +0.000 A 
ATOM     15  C   UNL     1      -3.461  14.677  24.984  0.00  0.00    +0.000 A 
ATOM     16  C   UNL     1      -2.229  15.209  25.276  0.00  0.00    +0.000 A 
ATOM     17  C   UNL     1      -1.182  15.103  24.398  0.00  0.00    +0.000 A 
ATOM     18  C   UNL     1      -1.302  14.444  23.189  0.00  0.00    +0.000 A 
ATOM     19  C   UNL     1      -2.527  13.837  22.853  0.00  0.00    +0.000 A 
ATOM     20  O   UNL     1      -0.060  15.721  24.857  0.00  0.00    +0.000 OA
ATOM     21  C   UNL     1      -0.551  16.303  26.084  0.00  0.00    +0.000 C 
ATOM     22  O   UNL     1      -1.906  15.910  26.393  0.00  0.00    +0.000 OA
ATOM     23  O   UNL     1      -2.779  10.113  15.968  0.00  0.00    +0.000 OA
ATOM     24  C   UNL     1      -4.112  10.638  15.857  0.00  0.00    +0.000 C 
ATOM     25  O   UNL     1      -4.538  11.351  17.038  0.00  0.00    +0.000 OA
ENDROOT
BRANCH   1  27
ATOM     26  C   UNL     1      -6.016  14.076  18.858  0.00  0.00    +0.000 C 
ATOM     27  C   UNL     1      -5.622  12.852  19.247  0.00  0.00    +0.000 C 
BRANCH  27  28
ATOM     28  C   UNL     1      -6.700  11.809  19.276  0.00  0.00    +0.000 C 
ATOM     29  O   UNL     1      -7.537  11.782  18.374  0.00  0.00    +0.000 OA
BRANCH  28  30
ATOM     30  C   UNL     1      -6.828  10.894  20.485  0.00  0.00    +0.000 C 
ATOM     31  C   UNL     1      -7.917  11.418  21.416  0.00  0.00    +0.000 C 
ATOM     32  C   UNL     1      -7.172   9.483  20.010  0.00  0.00    +0.000 C 
ENDBRANCH  28  30
ENDBRANCH  27  28
ENDBRANCH   1  27
TORSDOF 3
ENDMDL
MODEL 4
REMARK VINA RESULT:      -7.0      4.012      6.617
REMARK  Name = 
REMARK  6 active torsions:
REMARK  status: ('A' for Active; 'I' for Inactive)
REMARK    1  A    between atoms: C_2  and  C_3
REMARK    2  A    between atoms: C_2  and  C_8
REMARK    3  A    between atoms: C_3  and  C_5
REMARK    4  A    between atoms: C_5  and  C_6
REMARK    5  A    between atoms: C_5  and  C_7
REMARK    6  A    between atoms: C_15  and  C_16
REMARK                            x       y       z     vdW  Elec       q    Type
REMARK                         _______ _______ _______ _____ _____    ______ ____
ROOT
ATOM      1  C   UNL     1      -3.118  12.725  20.473  0.00  0.00    +0.000 A 
ATOM      2  C   UNL     1      -4.458  12.970  20.918  0.00  0.00    +0.000 A 
ATOM      3  C   UNL     1      -4.820  13.683  22.082  0.00  0.00    +0.000 A 
ATOM      4  C   UNL     1      -6.126  13.866  22.485  0.00  0.00    +0.000 A 
ATOM      5  C   UNL     1      -7.181  13.366  21.775  0.00  0.00    +0.000 A 
ATOM      6  C   UNL     1      -6.876  12.651  20.619  0.00  0.00    +0.000 A 
ATOM      7  C   UNL     1      -5.538  12.424  20.178  0.00  0.00    +0.000 A 
ATOM      8  C   UNL     1      -5.265  11.668  19.012  0.00  0.00    +0.000 A 
ATOM      9  C   UNL     1      -6.361  10.887  18.326  0.00  0.00    +0.000 C 
ATOM     10  C   UNL     1      -3.936  11.605  18.522  0.00  0.00    +0.000 A 
ATOM     11  N   UNL     1      -2.893  12.022  19.312  0.00  0.00    +0.000 N 
ATOM     12  C   UNL     1      -1.491  11.700  18.881  0.00  0.00    +0.000 C 
ATOM     13  C   UNL     1      -1.432  10.302  18.278  0.00  0.00    +0.000 C 
ATOM     14  C   UNL     1      -2.335  10.301  17.085  0.00  0.00    +0.000 A 
ATOM     15  C   UNL     1      -1.950   9.667  15.891  0.00  0.00    +0.000 A 
ATOM     16  C   UNL     1      -2.768   9.818  14.798  0.00  0.00    +0.000 A 
ATOM     17  C   UNL     1      -3.920  10.558  14.867  0.00  0.00    +0.000 A 
ATOM     18  C   UNL     1      -4.327  11.173  16.036  0.00  0.00    +0.000 A 
ATOM     19  C   UNL     1      -3.555  11.017  17.203  0.00  0.00    +0.000 A 
ATOM     20  O   UNL     1      -4.571  10.612  13.674  0.00  0.00    +0.000 OA
ATOM     21  C   UNL     1      -3.647   9.893  12.826  0.00  0.00    +0.000 C 
ATOM     22  O   UNL     1      -2.542   9.318  13.556  0.00  0.00    +0.000 OA
ATOM     23  O   UNL     1      -6.248  14.565  23.644  0.00  0.00    +0.000 OA
ATOM     24  C   UNL     1      -4.869  14.854  23.929  0.00  0.00    +0.000 C 
ATOM     25  O   UNL     1      -3.959  14.252  22.983  0.00  0.00    +0.000 OA
ENDROOT
BRANCH   1  27
ATOM     26  C   UNL     1      -1.282  14.310  20.841  0.00  0.00    +0.000 C 
ATOM     27  C   UNL     1      -1.934  13.200  21.222  0.00  0.00    +0.000 C 
BRANCH  27  28
ATOM     28  C   UNL     1      -1.262  12.397  22.297  0.00  0.00    +0.000 C 
ATOM     29  O   UNL     1      -1.029  12.923  23.385  0.00  0.00    +0.000 OA
BRANCH  28  30
ATOM     30  C   UNL     1      -0.754  10.998  21.984  0.00  0.00    +0.000 C 
ATOM     31  C   UNL     1       0.675  11.075  21.453  0.00  0.00    +0.000 C 
ATOM     32  C   UNL     1      -0.801  10.152  23.255  0.00  0.00    +0.000 C 
ENDBRANCH  28  30
ENDBRANCH  27  28
ENDBRANCH   1  27
TORSDOF 3
ENDMDL
MODEL 5
REMARK VINA RESULT:      -7.0      2.958      4.685
REMARK  Name = 
REMARK  6 active torsions:
REMARK  status: ('A' for Active; 'I' for Inactive)
REMARK    1  A    between atoms: C_2  and  C_3
REMARK    2  A    between atoms: C_2  and  C_8
REMARK    3  A    between atoms: C_3  and  C_5
REMARK    4  A    between atoms: C_5  and  C_6
REMARK    5  A    between atoms: C_5  and  C_7
REMARK    6  A    between atoms: C_15  and  C_16
REMARK                            x       y       z     vdW  Elec       q    Type
REMARK                         _______ _______ _______ _____ _____    ______ ____
ROOT
ATOM      1  C   UNL     1      -4.579  12.832  20.148  0.00  0.00    +0.000 A 
ATOM      2  C   UNL     1      -4.618  13.429  21.451  0.00  0.00    +0.000 A 
ATOM      3  C   UNL     1      -5.711  14.136  21.997  0.00  0.00    +0.000 A 
ATOM      4  C   UNL     1      -5.689  14.720  23.246  0.00  0.00    +0.000 A 
ATOM      5  C   UNL     1      -4.594  14.651  24.060  0.00  0.00    +0.000 A 
ATOM      6  C   UNL     1      -3.487  13.966  23.564  0.00  0.00    +0.000 A 
ATOM      7  C   UNL     1      -3.463  13.364  22.271  0.00  0.00    +0.000 A 
ATOM      8  C   UNL     1      -2.310  12.698  21.789  0.00  0.00    +0.000 A 
ATOM      9  C   UNL     1      -0.996  12.799  22.529  0.00  0.00    +0.000 C 
ATOM     10  C   UNL     1      -2.383  11.977  20.570  0.00  0.00    +0.000 A 
ATOM     11  N   UNL     1      -3.455  12.156  19.731  0.00  0.00    +0.000 N 
ATOM     12  C   UNL     1      -3.382  11.593  18.341  0.00  0.00    +0.000 C 
ATOM     13  C   UNL     1      -1.979  11.767  17.774  0.00  0.00    +0.000 C 
ATOM     14  C   UNL     1      -1.047  11.012  18.669  0.00  0.00    +0.000 A 
ATOM     15  C   UNL     1      -0.007  10.233  18.134  0.00  0.00    +0.000 A 
ATOM     16  C   UNL     1       0.726   9.465  19.005  0.00  0.00    +0.000 A 
ATOM     17  C   UNL     1       0.454   9.456  20.349  0.00  0.00    +0.000 A 
ATOM     18  C   UNL     1      -0.551  10.229  20.899  0.00  0.00    +0.000 A 
ATOM     19  C   UNL     1      -1.307  11.074  20.064  0.00  0.00    +0.000 A 
ATOM     20  O   UNL     1       1.268   8.608  21.034  0.00  0.00    +0.000 OA
ATOM     21  C   UNL     1       2.023   8.019  19.952  0.00  0.00    +0.000 C 
ATOM     22  O   UNL     1       1.736   8.622  18.671  0.00  0.00    +0.000 OA
ATOM     23  O   UNL     1      -6.840  15.369  23.567  0.00  0.00    +0.000 OA
ATOM     24  C   UNL     1      -7.631  15.104  22.397  0.00  0.00    +0.000 C 
ATOM     25  O   UNL     1      -6.909  14.379  21.379  0.00  0.00    +0.000 OA
ENDROOT
BRANCH   1  27
ATOM     26  C   UNL     1      -6.005  14.061  18.575  0.00  0.00    +0.000 C 
ATOM     27  C   UNL     1      -5.716  12.911  19.204  0.00  0.00    +0.000 C 
BRANCH  27  28
ATOM     28  C   UNL     1      -6.728  11.816  19.040  0.00  0.00    +0.000 C 
ATOM     29  O   UNL     1      -7.559  11.894  18.135  0.00  0.00    +0.000 OA
BRANCH  28  30
ATOM     30  C   UNL     1      -6.805  10.702  20.073  0.00  0.00    +0.000 C 
ATOM     31  C   UNL     1      -7.916  11.003  21.074  0.00  0.00    +0.000 C 
ATOM     32  C   UNL     1      -7.078   9.378  19.362  0.00  0.00    +0.000 C 
ENDBRANCH  28  30
ENDBRANCH  27  28
ENDBRANCH   1  27
TORSDOF 3
ENDMDL
MODEL 6
REMARK VINA RESULT:      -6.9      4.217      7.764
REMARK  Name = 
REMARK  6 active torsions:
REMARK  status: ('A' for Active; 'I' for Inactive)
REMARK    1  A    between atoms: C_2  and  C_3
REMARK    2  A    between atoms: C_2  and  C_8
REMARK    3  A    between atoms: C_3  and  C_5
REMARK    4  A    between atoms: C_5  and  C_6
REMARK    5  A    between atoms: C_5  and  C_7
REMARK    6  A    between atoms: C_15  and  C_16
REMARK                            x       y       z     vdW  Elec       q    Type
REMARK                         _______ _______ _______ _____ _____    ______ ____
ROOT
ATOM      1  C   UNL     1      -4.250  12.277  19.660  0.00  0.00    +0.000 A 
ATOM      2  C   UNL     1      -3.197  11.683  18.891  0.00  0.00    +0.000 A 
ATOM      3  C   UNL     1      -3.340  11.111  17.608  0.00  0.00    +0.000 A 
ATOM      4  C   UNL     1      -2.301  10.522  16.918  0.00  0.00    +0.000 A 
ATOM      5  C   UNL     1      -1.037  10.452  17.433  0.00  0.00    +0.000 A 
ATOM      6  C   UNL     1      -0.845  11.000  18.699  0.00  0.00    +0.000 A 
ATOM      7  C   UNL     1      -1.897  11.601  19.452  0.00  0.00    +0.000 A 
ATOM      8  C   UNL     1      -1.671  12.124  20.748  0.00  0.00    +0.000 A 
ATOM      9  C   UNL     1      -0.368  11.859  21.469  0.00  0.00    +0.000 C 
ATOM     10  C   UNL     1      -2.701  12.855  21.392  0.00  0.00    +0.000 A 
ATOM     11  N   UNL     1      -3.982  12.812  20.900  0.00  0.00    +0.000 N 
ATOM     12  C   UNL     1      -5.095  13.370  21.741  0.00  0.00    +0.000 C 
ATOM     13  C   UNL     1      -4.869  13.029  23.208  0.00  0.00    +0.000 C 
ATOM     14  C   UNL     1      -3.573  13.659  23.611  0.00  0.00    +0.000 A 
ATOM     15  C   UNL     1      -3.442  14.308  24.851  0.00  0.00    +0.000 A 
ATOM     16  C   UNL     1      -2.268  14.977  25.099  0.00  0.00    +0.000 A 
ATOM     17  C   UNL     1      -1.259  15.012  24.171  0.00  0.00    +0.000 A 
ATOM     18  C   UNL     1      -1.359  14.364  22.954  0.00  0.00    +0.000 A 
ATOM     19  C   UNL     1      -2.519  13.623  22.660  0.00  0.00    +0.000 A 
ATOM     20  O   UNL     1      -0.197  15.750  24.592  0.00  0.00    +0.000 OA
ATOM     21  C   UNL     1      -0.694  16.248  25.855  0.00  0.00    +0.000 C 
ATOM     22  O   UNL     1      -1.977  15.692  26.215  0.00  0.00    +0.000 OA
ATOM     23  O   UNL     1      -2.663  10.017  15.710  0.00  0.00    +0.000 OA
ATOM     24  C   UNL     1      -4.052  10.383  15.672  0.00  0.00    +0.000 C 
ATOM     25  O   UNL     1      -4.502  11.019  16.887  0.00  0.00    +0.000 OA
ENDROOT
BRANCH   1  27
ATOM     26  C   UNL     1      -6.469  11.290  19.317  0.00  0.00    +0.000 C 
ATOM     27  C   UNL     1      -5.647  12.342  19.178  0.00  0.00    +0.000 C 
BRANCH  27  28
ATOM     28  C   UNL     1      -6.177  13.465  18.337  0.00  0.00    +0.000 C 
ATOM     29  O   UNL     1      -6.168  13.357  17.111  0.00  0.00    +0.000 OA
BRANCH  28  30
ATOM     30  C   UNL     1      -6.583  14.773  18.999  0.00  0.00    +0.000 C 
ATOM     31  C   UNL     1      -6.713  15.868  17.945  0.00  0.00    +0.000 C 
ATOM     32  C   UNL     1      -7.914  14.575  19.723  0.00  0.00    +0.000 C 
ENDBRANCH  28  30
ENDBRANCH  27  28
ENDBRANCH   1  27
TORSDOF 3
ENDMDL
MODEL 7
REMARK VINA RESULT:      -6.9      2.813      8.437
REMARK  Name = 
REMARK  6 active torsions:
REMARK  status: ('A' for Active; 'I' for Inactive)
REMARK    1  A    between atoms: C_2  and  C_3
REMARK    2  A    between atoms: C_2  and  C_8
REMARK    3  A    between atoms: C_3  and  C_5
REMARK    4  A    between atoms: C_5  and  C_6
REMARK    5  A    between atoms: C_5  and  C_7
REMARK    6  A    between atoms: C_15  and  C_16
REMARK                            x       y       z     vdW  Elec       q    Type
REMARK                         _______ _______ _______ _____ _____    ______ ____
ROOT
ATOM      1  C   UNL     1       3.474   6.052  18.661  0.00  0.00    +0.000 A 
ATOM      2  C   UNL     1       3.109   5.026  19.593  0.00  0.00    +0.000 A 
ATOM      3  C   UNL     1       3.662   3.729  19.642  0.00  0.00    +0.000 A 
ATOM      4  C   UNL     1       3.256   2.763  20.540  0.00  0.00    +0.000 A 
ATOM      5  C   UNL     1       2.277   2.998  21.463  0.00  0.00    +0.000 A 
ATOM      6  C   UNL     1       1.697   4.265  21.453  0.00  0.00    +0.000 A 
ATOM      7  C   UNL     1       2.076   5.284  20.529  0.00  0.00    +0.000 A 
ATOM      8  C   UNL     1       1.445   6.551  20.530  0.00  0.00    +0.000 A 
ATOM      9  C   UNL     1       0.198   6.791  21.351  0.00  0.00    +0.000 C 
ATOM     10  C   UNL     1       1.961   7.585  19.707  0.00  0.00    +0.000 A 
ATOM     11  N   UNL     1       2.867   7.286  18.719  0.00  0.00    +0.000 N 
ATOM     12  C   UNL     1       3.192   8.340  17.700  0.00  0.00    +0.000 C 
ATOM     13  C   UNL     1       1.936   9.115  17.323  0.00  0.00    +0.000 C 
ATOM     14  C   UNL     1       1.431   9.766  18.572  0.00  0.00    +0.000 A 
ATOM     15  C   UNL     1       0.957  11.089  18.554  0.00  0.00    +0.000 A 
ATOM     16  C   UNL     1       0.633  11.667  19.757  0.00  0.00    +0.000 A 
ATOM     17  C   UNL     1       0.767  10.979  20.936  0.00  0.00    +0.000 A 
ATOM     18  C   UNL     1       1.212   9.671  20.975  0.00  0.00    +0.000 A 
ATOM     19  C   UNL     1       1.516   9.009  19.770  0.00  0.00    +0.000 A 
ATOM     20  O   UNL     1       0.426  11.733  22.015  0.00  0.00    +0.000 OA
ATOM     21  C   UNL     1       0.149  13.003  21.384  0.00  0.00    +0.000 C 
ATOM     22  O   UNL     1       0.201  12.940  19.942  0.00  0.00    +0.000 OA
ATOM     23  O   UNL     1       3.907   1.578  20.401  0.00  0.00    +0.000 OA
ATOM     24  C   UNL     1       4.816   1.895  19.334  0.00  0.00    +0.000 C 
ATOM     25  O   UNL     1       4.629   3.228  18.810  0.00  0.00    +0.000 OA
ENDROOT
BRANCH   1  27
ATOM     26  C   UNL     1       4.208   5.127  16.511  0.00  0.00    +0.000 C 
ATOM     27  C   UNL     1       4.494   5.845  17.609  0.00  0.00    +0.000 C 
BRANCH  27  28
ATOM     28  C   UNL     1       5.936   6.222  17.774  0.00  0.00    +0.000 C 
ATOM     29  O   UNL     1       6.340   7.282  17.298  0.00  0.00    +0.000 OA
BRANCH  28  30
ATOM     30  C   UNL     1       6.905   5.230  18.399  0.00  0.00    +0.000 C 
ATOM     31  C   UNL     1       7.657   4.481  17.303  0.00  0.00    +0.000 C 
ATOM     32  C   UNL     1       7.888   5.985  19.293  0.00  0.00    +0.000 C 
ENDBRANCH  28  30
ENDBRANCH  27  28
ENDBRANCH   1  27
TORSDOF 3
ENDMDL
MODEL 8
REMARK VINA RESULT:      -6.9      2.683      5.867
REMARK  Name = 
REMARK  6 active torsions:
REMARK  status: ('A' for Active; 'I' for Inactive)
REMARK    1  A    between atoms: C_2  and  C_3
REMARK    2  A    between atoms: C_2  and  C_8
REMARK    3  A    between atoms: C_3  and  C_5
REMARK    4  A    between atoms: C_5  and  C_6
REMARK    5  A    between atoms: C_5  and  C_7
REMARK    6  A    between atoms: C_15  and  C_16
REMARK                            x       y       z     vdW  Elec       q    Type
REMARK                         _______ _______ _______ _____ _____    ______ ____
ROOT
ATOM      1  C   UNL     1      -3.714  13.467  20.573  0.00  0.00    +0.000 A 
ATOM      2  C   UNL     1      -4.775  13.374  19.614  0.00  0.00    +0.000 A 
ATOM      3  C   UNL     1      -5.903  14.220  19.553  0.00  0.00    +0.000 A 
ATOM      4  C   UNL     1      -6.915  14.072  18.628  0.00  0.00    +0.000 A 
ATOM      5  C   UNL     1      -6.897  13.083  17.686  0.00  0.00    +0.000 A 
ATOM      6  C   UNL     1      -5.804  12.219  17.706  0.00  0.00    +0.000 A 
ATOM      7  C   UNL     1      -4.747  12.327  18.657  0.00  0.00    +0.000 A 
ATOM      8  C   UNL     1      -3.665  11.414  18.665  0.00  0.00    +0.000 A 
ATOM      9  C   UNL     1      -3.708  10.162  17.818  0.00  0.00    +0.000 C 
ATOM     10  C   UNL     1      -2.559  11.654  19.519  0.00  0.00    +0.000 A 
ATOM     11  N   UNL     1      -2.658  12.586  20.523  0.00  0.00    +0.000 N 
ATOM     12  C   UNL     1      -1.583  12.632  21.570  0.00  0.00    +0.000 C 
ATOM     13  C   UNL     1      -1.136  11.221  21.930  0.00  0.00    +0.000 C 
ATOM     14  C   UNL     1      -0.593  10.600  20.681  0.00  0.00    +0.000 A 
ATOM     15  C   UNL     1       0.580   9.826  20.713  0.00  0.00    +0.000 A 
ATOM     16  C   UNL     1       1.093   9.398  19.513  0.00  0.00    +0.000 A 
ATOM     17  C   UNL     1       0.484   9.713  18.325  0.00  0.00    +0.000 A 
ATOM     18  C   UNL     1      -0.680  10.456  18.273  0.00  0.00    +0.000 A 
ATOM     19  C   UNL     1      -1.280  10.885  19.472  0.00  0.00    +0.000 A 
ATOM     20  O   UNL     1       1.163   9.224  17.252  0.00  0.00    +0.000 OA
ATOM     21  C   UNL     1       2.315   8.642  17.900  0.00  0.00    +0.000 C 
ATOM     22  O   UNL     1       2.232   8.680  19.342  0.00  0.00    +0.000 OA
ATOM     23  O   UNL     1      -7.916  14.982  18.761  0.00  0.00    +0.000 OA
ATOM     24  C   UNL     1      -7.418  15.769  19.855  0.00  0.00    +0.000 C 
ATOM     25  O   UNL     1      -6.181  15.262  20.399  0.00  0.00    +0.000 OA
ENDROOT
BRANCH   1  27
ATOM     26  C   UNL     1      -3.024  15.636  21.489  0.00  0.00    +0.000 C 
ATOM     27  C   UNL     1      -3.700  14.486  21.646  0.00  0.00    +0.000 C 
BRANCH  27  28
ATOM     28  C   UNL     1      -4.240  14.240  23.023  0.00  0.00    +0.000 C 
ATOM     29  O   UNL     1      -4.027  15.065  23.911  0.00  0.00    +0.000 OA
BRANCH  28  30
ATOM     30  C   UNL     1      -4.919  12.916  23.339  0.00  0.00    +0.000 C 
ATOM     31  C   UNL     1      -4.428  12.392  24.685  0.00  0.00    +0.000 C 
ATOM     32  C   UNL     1      -6.432  13.124  23.373  0.00  0.00    +0.000 C 
ENDBRANCH  28  30
ENDBRANCH  27  28
ENDBRANCH   1  27
TORSDOF 3
ENDMDL
MODEL 9
REMARK VINA RESULT:      -6.9      4.272      6.779
REMARK  Name = 
REMARK  6 active torsions:
REMARK  status: ('A' for Active; 'I' for Inactive)
REMARK    1  A    between atoms: C_2  and  C_3
REMARK    2  A    between atoms: C_2  and  C_8
REMARK    3  A    between atoms: C_3  and  C_5
REMARK    4  A    between atoms: C_5  and  C_6
REMARK    5  A    between atoms: C_5  and  C_7
REMARK    6  A    between atoms: C_15  and  C_16
REMARK                            x       y       z     vdW  Elec       q    Type
REMARK                         _______ _______ _______ _____ _____    ______ ____
ROOT
ATOM      1  C   UNL     1      -2.899  13.636  21.425  0.00  0.00    +0.000 A 
ATOM      2  C   UNL     1      -4.236  13.983  21.806  0.00  0.00    +0.000 A 
ATOM      3  C   UNL     1      -4.589  14.844  22.868  0.00  0.00    +0.000 A 
ATOM      4  C   UNL     1      -5.894  15.125  23.216  0.00  0.00    +0.000 A 
ATOM      5  C   UNL     1      -6.955  14.585  22.547  0.00  0.00    +0.000 A 
ATOM      6  C   UNL     1      -6.659  13.725  21.492  0.00  0.00    +0.000 A 
ATOM      7  C   UNL     1      -5.324  13.395  21.112  0.00  0.00    +0.000 A 
ATOM      8  C   UNL     1      -5.060  12.495  20.051  0.00  0.00    +0.000 A 
ATOM      9  C   UNL     1      -6.175  11.679  19.438  0.00  0.00    +0.000 C 
ATOM     10  C   UNL     1      -3.726  12.322  19.602  0.00  0.00    +0.000 A 
ATOM     11  N   UNL     1      -2.682  12.790  20.362  0.00  0.00    +0.000 N 
ATOM     12  C   UNL     1      -1.286  12.365  20.004  0.00  0.00    +0.000 C 
ATOM     13  C   UNL     1      -1.274  10.903  19.573  0.00  0.00    +0.000 C 
ATOM     14  C   UNL     1      -2.155  10.793  18.369  0.00  0.00    +0.000 A 
ATOM     15  C   UNL     1      -1.774  10.007  17.268  0.00  0.00    +0.000 A 
ATOM     16  C   UNL     1      -2.565  10.056  16.146  0.00  0.00    +0.000 A 
ATOM     17  C   UNL     1      -3.687  10.844  16.100  0.00  0.00    +0.000 A 
ATOM     18  C   UNL     1      -4.090  11.609  17.178  0.00  0.00    +0.000 A 
ATOM     19  C   UNL     1      -3.346  11.565  18.372  0.00  0.00    +0.000 A 
ATOM     20  O   UNL     1      -4.313  10.779  14.894  0.00  0.00    +0.000 OA
ATOM     21  C   UNL     1      -3.405   9.928  14.160  0.00  0.00    +0.000 C 
ATOM     22  O   UNL     1      -2.337   9.403  14.979  0.00  0.00    +0.000 OA
ATOM     23  O   UNL     1      -6.008  15.962  24.281  0.00  0.00    +0.000 OA
ATOM     24  C   UNL     1      -4.624  16.230  24.560  0.00  0.00    +0.000 C 
ATOM     25  O   UNL     1      -3.722  15.485  23.714  0.00  0.00    +0.000 OA
ENDROOT
BRANCH   1  27
ATOM     26  C   UNL     1      -1.261  13.544  23.249  0.00  0.00    +0.000 C 
ATOM     27  C   UNL     1      -1.710  14.151  22.139  0.00  0.00    +0.000 C 
BRANCH  27  28
ATOM     28  C   UNL     1      -1.061  15.465  21.817  0.00  0.00    +0.000 C 
ATOM     29  O   UNL     1      -0.084  15.830  22.469  0.00  0.00    +0.000 OA
BRANCH  28  30
ATOM     30  C   UNL     1      -1.701  16.387  20.790  0.00  0.00    +0.000 C 
ATOM     31  C   UNL     1      -2.062  17.717  21.445  0.00  0.00    +0.000 C 
ATOM     32  C   UNL     1      -0.721  16.612  19.640  0.00  0.00    +0.000 C 
ENDBRANCH  28  30
ENDBRANCH  27  28
ENDBRANCH   1  27
TORSDOF 3
ENDMDL
