MODEL 1
REMARK VINA RESULT:      -8.5      0.000      0.000
REMARK  Name = 
REMARK  6 active torsions:
REMARK  status: ('A' for Active; 'I' for Inactive)
REMARK    1  A    between atoms: C_1  and  C_2
REMARK    2  A    between atoms: C_4  and  C_5
REMARK    3  A    between atoms: C_5  and  C_7
REMARK    4  A    between atoms: C_13  and  C_15
REMARK    5  A    between atoms: C_22  and  C_23
REMARK    6  A    between atoms: C_26  and  C_27
REMARK                            x       y       z     vdW  Elec       q    Type
REMARK                         _______ _______ _______ _____ _____    ______ ____
ROOT
ATOM      1  C   UNL     1       0.963  11.019  20.534  0.00  0.00    +0.000 C 
ATOM      2  O   UNL     1       0.908  10.613  21.689  0.00  0.00    +0.000 OA
ATOM      3  N   UNL     1       1.407  12.284  20.159  0.00  0.00    +0.000 N 
ATOM      4  C   UNL     1       1.942  13.190  21.188  0.00  0.00    +0.000 C 
ATOM      5  C   UNL     1       1.096  14.461  21.316  0.00  0.00    +0.000 C 
ATOM      6  N   UNL     1       0.893  15.091  20.007  0.00  0.00    +0.000 N 
ATOM      7  C   UNL     1       1.429  16.355  19.765  0.00  0.00    +0.000 C 
ATOM      8  O   UNL     1       2.226  16.907  20.522  0.00  0.00    +0.000 OA
ATOM      9  C   UNL     1       0.337  14.195  18.979  0.00  0.00    +0.000 C 
ATOM     10  C   UNL     1       1.147  12.884  18.835  0.00  0.00    +0.000 C 
ATOM     11  C   UNL     1       2.441  13.121  18.054  0.00  0.00    +0.000 C 
ENDROOT
BRANCH   7  12
ATOM     12  C   UNL     1       0.997  17.082  18.543  0.00  0.00    +0.000 A 
ATOM     13  C   UNL     1       1.900  17.300  17.495  0.00  0.00    +0.000 A 
ATOM     14  C   UNL     1       1.526  18.068  16.398  0.00  0.00    +0.000 A 
ATOM     15  C   UNL     1       0.226  18.564  16.312  0.00  0.00    +0.000 A 
ATOM     16  C   UNL     1      -0.702  18.284  17.318  0.00  0.00    +0.000 A 
ATOM     17  C   UNL     1      -0.318  17.541  18.438  0.00  0.00    +0.000 A 
ENDBRANCH   7  12
BRANCH   1  18
ATOM     18  C   UNL     1       0.585  10.052  19.421  0.00  0.00    +0.000 C 
ATOM     19  O   UNL     1      -0.440  10.260  18.782  0.00  0.00    +0.000 OA
BRANCH  18  23
ATOM     20  C   UNL     1       2.213   5.516  20.716  0.00  0.00    +0.000 C 
ATOM     21  C   UNL     1       2.282   6.662  19.738  0.00  0.00    +0.000 A 
ATOM     22  C   UNL     1       1.462   7.787  19.972  0.00  0.00    +0.000 A 
ATOM     23  C   UNL     1       1.487   8.901  19.122  0.00  0.00    +0.000 A 
ATOM     24  C   UNL     1       2.340   8.892  18.018  0.00  0.00    +0.000 A 
ATOM     25  C   UNL     1       3.155   7.778  17.771  0.00  0.00    +0.000 A 
ATOM     26  C   UNL     1       3.144   6.649  18.617  0.00  0.00    +0.000 A 
BRANCH  26  27
ATOM     27  C   UNL     1       4.029   5.511  18.294  0.00  0.00    +0.000 A 
ATOM     28  C   UNL     1       3.826   4.503  17.311  0.00  0.00    +0.000 A 
ATOM     29  C   UNL     1       4.918   3.668  17.389  0.00  0.00    +0.000 A 
ATOM     30  N   UNL     1       5.702   4.195  18.366  0.00  0.00    +0.000 N 
ATOM     31  N   UNL     1       5.181   5.283  18.944  0.00  0.00    +0.000 NA
ATOM     32  H   UNL     1       6.601   3.860  18.700  0.00  0.00    +0.000 HD
ENDBRANCH  26  27
ENDBRANCH  18  23
ENDBRANCH   1  18
TORSDOF 4
ENDMDL
MODEL 2
REMARK VINA RESULT:      -8.4      0.686      1.143
REMARK  Name = 
REMARK  6 active torsions:
REMARK  status: ('A' for Active; 'I' for Inactive)
REMARK    1  A    between atoms: C_1  and  C_2
REMARK    2  A    between atoms: C_4  and  C_5
REMARK    3  A    between atoms: C_5  and  C_7
REMARK    4  A    between atoms: C_13  and  C_15
REMARK    5  A    between atoms: C_22  and  C_23
REMARK    6  A    between atoms: C_26  and  C_27
REMARK                            x       y       z     vdW  Elec       q    Type
REMARK                         _______ _______ _______ _____ _____    ______ ____
ROOT
ATOM      1  C   UNL     1       0.910  11.228  20.667  0.00  0.00    +0.000 C 
ATOM      2  O   UNL     1       0.916  10.833  21.826  0.00  0.00    +0.000 OA
ATOM      3  N   UNL     1       1.374  12.475  20.252  0.00  0.00    +0.000 N 
ATOM      4  C   UNL     1       2.007  13.367  21.236  0.00  0.00    +0.000 C 
ATOM      5  C   UNL     1       1.218  14.669  21.409  0.00  0.00    +0.000 C 
ATOM      6  N   UNL     1       0.952  15.298  20.110  0.00  0.00    +0.000 N 
ATOM      7  C   UNL     1       1.516  16.539  19.823  0.00  0.00    +0.000 C 
ATOM      8  O   UNL     1       2.380  17.067  20.522  0.00  0.00    +0.000 OA
ATOM      9  C   UNL     1       0.298  14.415  19.128  0.00  0.00    +0.000 C 
ATOM     10  C   UNL     1       1.050  13.075  18.943  0.00  0.00    +0.000 C 
ATOM     11  C   UNL     1       2.298  13.260  18.078  0.00  0.00    +0.000 C 
ENDROOT
BRANCH   7  12
ATOM     12  C   UNL     1       1.032  17.274  18.625  0.00  0.00    +0.000 A 
ATOM     13  C   UNL     1      -0.275  17.775  18.585  0.00  0.00    +0.000 A 
ATOM     14  C   UNL     1      -0.761  18.372  17.427  0.00  0.00    +0.000 A 
ATOM     15  C   UNL     1       0.081  18.532  16.327  0.00  0.00    +0.000 A 
ATOM     16  C   UNL     1       1.409  18.105  16.389  0.00  0.00    +0.000 A 
ATOM     17  C   UNL     1       1.889  17.473  17.540  0.00  0.00    +0.000 A 
ENDBRANCH   7  12
BRANCH   1  18
ATOM     18  C   UNL     1       0.426  10.269  19.589  0.00  0.00    +0.000 C 
ATOM     19  O   UNL     1      -0.675  10.457  19.083  0.00  0.00    +0.000 OA
BRANCH  18  23
ATOM     20  C   UNL     1       2.347   5.775  20.599  0.00  0.00    +0.000 C 
ATOM     21  C   UNL     1       2.253   6.932  19.636  0.00  0.00    +0.000 A 
ATOM     22  C   UNL     1       1.436   8.028  19.990  0.00  0.00    +0.000 A 
ATOM     23  C   UNL     1       1.316   9.151  19.159  0.00  0.00    +0.000 A 
ATOM     24  C   UNL     1       2.019   9.180  17.954  0.00  0.00    +0.000 A 
ATOM     25  C   UNL     1       2.829   8.095  17.588  0.00  0.00    +0.000 A 
ATOM     26  C   UNL     1       2.963   6.958  18.413  0.00  0.00    +0.000 A 
BRANCH  26  27
ATOM     27  C   UNL     1       3.832   5.852  17.963  0.00  0.00    +0.000 A 
ATOM     28  C   UNL     1       5.249   5.766  18.057  0.00  0.00    +0.000 A 
ATOM     29  C   UNL     1       5.595   4.553  17.505  0.00  0.00    +0.000 A 
ATOM     30  N   UNL     1       4.420   3.983  17.129  0.00  0.00    +0.000 N 
ATOM     31  N   UNL     1       3.351   4.751  17.367  0.00  0.00    +0.000 NA
ATOM     32  H   UNL     1       4.271   3.077  16.695  0.00  0.00    +0.000 HD
ENDBRANCH  26  27
ENDBRANCH  18  23
ENDBRANCH   1  18
TORSDOF 4
ENDMDL
MODEL 3
REMARK VINA RESULT:      -8.2      0.685      1.336
REMARK  Name = 
REMARK  6 active torsions:
REMARK  status: ('A' for Active; 'I' for Inactive)
REMARK    1  A    between atoms: C_1  and  C_2
REMARK    2  A    between atoms: C_4  and  C_5
REMARK    3  A    between atoms: C_5  and  C_7
REMARK    4  A    between atoms: C_13  and  C_15
REMARK    5  A    between atoms: C_22  and  C_23
REMARK    6  A    between atoms: C_26  and  C_27
REMARK                            x       y       z     vdW  Elec       q    Type
REMARK                         _______ _______ _______ _____ _____    ______ ____
ROOT
ATOM      1  C   UNL     1       0.968  11.027  20.547  0.00  0.00    +0.000 C 
ATOM      2  O   UNL     1       0.826  10.623  21.696  0.00  0.00    +0.000 OA
ATOM      3  N   UNL     1       1.406  12.304  20.205  0.00  0.00    +0.000 N 
ATOM      4  C   UNL     1       1.823  13.228  21.271  0.00  0.00    +0.000 C 
ATOM      5  C   UNL     1       0.933  14.474  21.320  0.00  0.00    +0.000 C 
ATOM      6  N   UNL     1       0.825  15.094  19.995  0.00  0.00    +0.000 N 
ATOM      7  C   UNL     1       1.343  16.372  19.793  0.00  0.00    +0.000 C 
ATOM      8  O   UNL     1       2.055  16.950  20.613  0.00  0.00    +0.000 OA
ATOM      9  C   UNL     1       0.386  14.179  18.928  0.00  0.00    +0.000 C 
ATOM     10  C   UNL     1       1.243  12.892  18.861  0.00  0.00    +0.000 C 
ATOM     11  C   UNL     1       2.593  13.165  18.193  0.00  0.00    +0.000 C 
ENDROOT
BRANCH   7  12
ATOM     12  C   UNL     1       0.996  17.083  18.535  0.00  0.00    +0.000 A 
ATOM     13  C   UNL     1       1.970  17.289  17.549  0.00  0.00    +0.000 A 
ATOM     14  C   UNL     1       1.673  18.042  16.419  0.00  0.00    +0.000 A 
ATOM     15  C   UNL     1       0.382  18.535  16.236  0.00  0.00    +0.000 A 
ATOM     16  C   UNL     1      -0.614  18.267  17.178  0.00  0.00    +0.000 A 
ATOM     17  C   UNL     1      -0.309  17.539  18.332  0.00  0.00    +0.000 A 
ENDBRANCH   7  12
BRANCH   1  18
ATOM     18  C   UNL     1       0.716  10.046  19.411  0.00  0.00    +0.000 C 
ATOM     19  O   UNL     1      -0.091  10.348  18.540  0.00  0.00    +0.000 OA
BRANCH  18  23
ATOM     20  C   UNL     1       3.911   7.103  16.955  0.00  0.00    +0.000 C 
ATOM     21  C   UNL     1       3.066   7.316  18.185  0.00  0.00    +0.000 A 
ATOM     22  C   UNL     1       2.308   8.504  18.275  0.00  0.00    +0.000 A 
ATOM     23  C   UNL     1       1.480   8.765  19.375  0.00  0.00    +0.000 A 
ATOM     24  C   UNL     1       1.409   7.827  20.406  0.00  0.00    +0.000 A 
ATOM     25  C   UNL     1       2.162   6.645  20.332  0.00  0.00    +0.000 A 
ATOM     26  C   UNL     1       2.998   6.367  19.231  0.00  0.00    +0.000 A 
BRANCH  26  27
ATOM     27  C   UNL     1       3.763   5.103  19.222  0.00  0.00    +0.000 A 
ATOM     28  C   UNL     1       3.251   3.777  19.168  0.00  0.00    +0.000 A 
ATOM     29  C   UNL     1       4.347   2.944  19.182  0.00  0.00    +0.000 A 
ATOM     30  N   UNL     1       5.424   3.770  19.231  0.00  0.00    +0.000 N 
ATOM     31  N   UNL     1       5.103   5.068  19.283  0.00  0.00    +0.000 NA
ATOM     32  H   UNL     1       6.409   3.521  19.242  0.00  0.00    +0.000 HD
ENDBRANCH  26  27
ENDBRANCH  18  23
ENDBRANCH   1  18
TORSDOF 4
ENDMDL
MODEL 4
REMARK VINA RESULT:      -7.8      1.390      1.864
REMARK  Name = 
REMARK  6 active torsions:
REMARK  status: ('A' for Active; 'I' for Inactive)
REMARK    1  A    between atoms: C_1  and  C_2
REMARK    2  A    between atoms: C_4  and  C_5
REMARK    3  A    between atoms: C_5  and  C_7
REMARK    4  A    between atoms: C_13  and  C_15
REMARK    5  A    between atoms: C_22  and  C_23
REMARK    6  A    between atoms: C_26  and  C_27
REMARK                            x       y       z     vdW  Elec       q    Type
REMARK                         _______ _______ _______ _____ _____    ______ ____
ROOT
ATOM      1  C   UNL     1       0.893  10.329  19.631  0.00  0.00    +0.000 C 
ATOM      2  O   UNL     1       0.250   9.615  20.393  0.00  0.00    +0.000 OA
ATOM      3  N   UNL     1       1.043  11.706  19.773  0.00  0.00    +0.000 N 
ATOM      4  C   UNL     1       0.481  12.369  20.961  0.00  0.00    +0.000 C 
ATOM      5  C   UNL     1      -0.600  13.386  20.582  0.00  0.00    +0.000 C 
ATOM      6  N   UNL     1      -0.113  14.310  19.552  0.00  0.00    +0.000 N 
ATOM      7  C   UNL     1       0.018  15.664  19.853  0.00  0.00    +0.000 C 
ATOM      8  O   UNL     1      -0.074  16.114  20.994  0.00  0.00    +0.000 OA
ATOM      9  C   UNL     1       0.429  13.652  18.350  0.00  0.00    +0.000 C 
ATOM     10  C   UNL     1       1.508  12.595  18.690  0.00  0.00    +0.000 C 
ATOM     11  C   UNL     1       2.841  13.262  19.035  0.00  0.00    +0.000 C 
ENDROOT
BRANCH   7  12
ATOM     12  C   UNL     1       0.257  16.616  18.736  0.00  0.00    +0.000 A 
ATOM     13  C   UNL     1       1.557  16.842  18.267  0.00  0.00    +0.000 A 
ATOM     14  C   UNL     1       1.791  17.807  17.294  0.00  0.00    +0.000 A 
ATOM     15  C   UNL     1       0.718  18.501  16.736  0.00  0.00    +0.000 A 
ATOM     16  C   UNL     1      -0.588  18.223  17.144  0.00  0.00    +0.000 A 
ATOM     17  C   UNL     1      -0.823  17.279  18.147  0.00  0.00    +0.000 A 
ENDBRANCH   7  12
BRANCH   1  18
ATOM     18  C   UNL     1       1.637   9.659  18.485  0.00  0.00    +0.000 C 
ATOM     19  O   UNL     1       1.795  10.281  17.441  0.00  0.00    +0.000 OA
BRANCH  18  23
ATOM     20  C   UNL     1       4.552   5.989  16.769  0.00  0.00    +0.000 C 
ATOM     21  C   UNL     1       3.623   6.476  17.853  0.00  0.00    +0.000 A 
ATOM     22  C   UNL     1       3.067   7.767  17.724  0.00  0.00    +0.000 A 
ATOM     23  C   UNL     1       2.178   8.281  18.678  0.00  0.00    +0.000 A 
ATOM     24  C   UNL     1       1.840   7.496  19.780  0.00  0.00    +0.000 A 
ATOM     25  C   UNL     1       2.390   6.214  19.924  0.00  0.00    +0.000 A 
ATOM     26  C   UNL     1       3.285   5.681  18.973  0.00  0.00    +0.000 A 
BRANCH  26  27
ATOM     27  C   UNL     1       3.826   4.324  19.190  0.00  0.00    +0.000 A 
ATOM     28  C   UNL     1       3.121   3.089  19.148  0.00  0.00    +0.000 A 
ATOM     29  C   UNL     1       4.051   2.109  19.413  0.00  0.00    +0.000 A 
ATOM     30  N   UNL     1       5.227   2.768  19.584  0.00  0.00    +0.000 N 
ATOM     31  N   UNL     1       5.116   4.098  19.483  0.00  0.00    +0.000 NA
ATOM     32  H   UNL     1       6.144   2.379  19.783  0.00  0.00    +0.000 HD
ENDBRANCH  26  27
ENDBRANCH  18  23
ENDBRANCH   1  18
TORSDOF 4
ENDMDL
MODEL 5
REMARK VINA RESULT:      -7.8      0.909      1.729
REMARK  Name = 
REMARK  6 active torsions:
REMARK  status: ('A' for Active; 'I' for Inactive)
REMARK    1  A    between atoms: C_1  and  C_2
REMARK    2  A    between atoms: C_4  and  C_5
REMARK    3  A    between atoms: C_5  and  C_7
REMARK    4  A    between atoms: C_13  and  C_15
REMARK    5  A    between atoms: C_22  and  C_23
REMARK    6  A    between atoms: C_26  and  C_27
REMARK                            x       y       z     vdW  Elec       q    Type
REMARK                         _______ _______ _______ _____ _____    ______ ____
ROOT
ATOM      1  C   UNL     1       0.754  11.329  20.877  0.00  0.00    +0.000 C 
ATOM      2  O   UNL     1       0.664  11.005  22.056  0.00  0.00    +0.000 OA
ATOM      3  N   UNL     1       1.285  12.535  20.426  0.00  0.00    +0.000 N 
ATOM      4  C   UNL     1       1.871  13.469  21.401  0.00  0.00    +0.000 C 
ATOM      5  C   UNL     1       1.112  14.799  21.436  0.00  0.00    +0.000 C 
ATOM      6  N   UNL     1       0.962  15.354  20.087  0.00  0.00    +0.000 N 
ATOM      7  C   UNL     1       1.583  16.561  19.770  0.00  0.00    +0.000 C 
ATOM      8  O   UNL     1       2.409  17.107  20.500  0.00  0.00    +0.000 OA
ATOM      9  C   UNL     1       0.354  14.431  19.112  0.00  0.00    +0.000 C 
ATOM     10  C   UNL     1       1.076  13.063  19.063  0.00  0.00    +0.000 C 
ATOM     11  C   UNL     1       2.390  13.162  18.285  0.00  0.00    +0.000 C 
ENDROOT
BRANCH   7  12
ATOM     12  C   UNL     1       1.210  17.234  18.498  0.00  0.00    +0.000 A 
ATOM     13  C   UNL     1      -0.086  17.734  18.317  0.00  0.00    +0.000 A 
ATOM     14  C   UNL     1      -0.463  18.271  17.092  0.00  0.00    +0.000 A 
ATOM     15  C   UNL     1       0.473  18.373  16.064  0.00  0.00    +0.000 A 
ATOM     16  C   UNL     1       1.788  17.948  16.265  0.00  0.00    +0.000 A 
ATOM     17  C   UNL     1       2.161  17.376  17.484  0.00  0.00    +0.000 A 
ENDBRANCH   7  12
BRANCH   1  18
ATOM     18  C   UNL     1       0.321  10.319  19.825  0.00  0.00    +0.000 C 
ATOM     19  O   UNL     1      -0.646  10.580  19.119  0.00  0.00    +0.000 OA
BRANCH  18  23
ATOM     20  C   UNL     1       3.442   7.618  17.019  0.00  0.00    +0.000 C 
ATOM     21  C   UNL     1       2.654   7.729  18.300  0.00  0.00    +0.000 A 
ATOM     22  C   UNL     1       1.882   8.892  18.508  0.00  0.00    +0.000 A 
ATOM     23  C   UNL     1       1.104   9.059  19.663  0.00  0.00    +0.000 A 
ATOM     24  C   UNL     1       1.100   8.050  20.627  0.00  0.00    +0.000 A 
ATOM     25  C   UNL     1       1.868   6.892  20.435  0.00  0.00    +0.000 A 
ATOM     26  C   UNL     1       2.654   6.708  19.278  0.00  0.00    +0.000 A 
BRANCH  26  27
ATOM     27  C   UNL     1       3.438   5.464  19.144  0.00  0.00    +0.000 A 
ATOM     28  C   UNL     1       4.826   5.278  19.396  0.00  0.00    +0.000 A 
ATOM     29  C   UNL     1       5.089   3.954  19.130  0.00  0.00    +0.000 A 
ATOM     30  N   UNL     1       3.897   3.420  18.755  0.00  0.00    +0.000 N 
ATOM     31  N   UNL     1       2.896   4.309  18.729  0.00  0.00    +0.000 NA
ATOM     32  H   UNL     1       3.691   2.461  18.494  0.00  0.00    +0.000 HD
ENDBRANCH  26  27
ENDBRANCH  18  23
ENDBRANCH   1  18
TORSDOF 4
ENDMDL
MODEL 6
REMARK VINA RESULT:      -7.7      3.320      4.352
REMARK  Name = 
REMARK  6 active torsions:
REMARK  status: ('A' for Active; 'I' for Inactive)
REMARK    1  A    between atoms: C_1  and  C_2
REMARK    2  A    between atoms: C_4  and  C_5
REMARK    3  A    between atoms: C_5  and  C_7
REMARK    4  A    between atoms: C_13  and  C_15
REMARK    5  A    between atoms: C_22  and  C_23
REMARK    6  A    between atoms: C_26  and  C_27
REMARK                            x       y       z     vdW  Elec       q    Type
REMARK                         _______ _______ _______ _____ _____    ______ ____
ROOT
ATOM      1  C   UNL     1       0.162   9.948  18.118  0.00  0.00    +0.000 C 
ATOM      2  O   UNL     1      -0.389   9.534  17.104  0.00  0.00    +0.000 OA
ATOM      3  N   UNL     1      -0.499  10.531  19.196  0.00  0.00    +0.000 N 
ATOM      4  C   UNL     1      -1.969  10.585  19.192  0.00  0.00    +0.000 C 
ATOM      5  C   UNL     1      -2.481  12.030  19.196  0.00  0.00    +0.000 C 
ATOM      6  N   UNL     1      -1.854  12.805  20.272  0.00  0.00    +0.000 N 
ATOM      7  C   UNL     1      -2.643  13.299  21.309  0.00  0.00    +0.000 C 
ATOM      8  O   UNL     1      -3.816  12.970  21.481  0.00  0.00    +0.000 OA
ATOM      9  C   UNL     1      -0.381  12.773  20.268  0.00  0.00    +0.000 C 
ATOM     10  C   UNL     1       0.179  11.330  20.237  0.00  0.00    +0.000 C 
ATOM     11  C   UNL     1       0.079  10.672  21.614  0.00  0.00    +0.000 C 
ENDROOT
BRANCH   7  12
ATOM     12  C   UNL     1      -2.045  14.292  22.239  0.00  0.00    +0.000 A 
ATOM     13  C   UNL     1      -1.636  13.903  23.521  0.00  0.00    +0.000 A 
ATOM     14  C   UNL     1      -1.172  14.851  24.425  0.00  0.00    +0.000 A 
ATOM     15  C   UNL     1      -1.051  16.183  24.030  0.00  0.00    +0.000 A 
ATOM     16  C   UNL     1      -1.385  16.563  22.728  0.00  0.00    +0.000 A 
ATOM     17  C   UNL     1      -1.884  15.618  21.828  0.00  0.00    +0.000 A 
ENDBRANCH   7  12
BRANCH   1  18
ATOM     18  C   UNL     1       1.666   9.752  18.242  0.00  0.00    +0.000 C 
ATOM     19  O   UNL     1       2.398  10.732  18.157  0.00  0.00    +0.000 OA
BRANCH  18  23
ATOM     20  C   UNL     1       4.548   5.991  16.677  0.00  0.00    +0.000 C 
ATOM     21  C   UNL     1       3.631   6.532  17.744  0.00  0.00    +0.000 A 
ATOM     22  C   UNL     1       3.080   7.819  17.559  0.00  0.00    +0.000 A 
ATOM     23  C   UNL     1       2.201   8.382  18.494  0.00  0.00    +0.000 A 
ATOM     24  C   UNL     1       1.868   7.651  19.635  0.00  0.00    +0.000 A 
ATOM     25  C   UNL     1       2.413   6.374  19.834  0.00  0.00    +0.000 A 
ATOM     26  C   UNL     1       3.297   5.792  18.902  0.00  0.00    +0.000 A 
BRANCH  26  27
ATOM     27  C   UNL     1       3.833   4.444  19.178  0.00  0.00    +0.000 A 
ATOM     28  C   UNL     1       3.120   3.213  19.206  0.00  0.00    +0.000 A 
ATOM     29  C   UNL     1       4.048   2.241  19.506  0.00  0.00    +0.000 A 
ATOM     30  N   UNL     1       5.230   2.900  19.629  0.00  0.00    +0.000 N 
ATOM     31  N   UNL     1       5.125   4.224  19.465  0.00  0.00    +0.000 NA
ATOM     32  H   UNL     1       6.147   2.515  19.835  0.00  0.00    +0.000 HD
ENDBRANCH  26  27
ENDBRANCH  18  23
ENDBRANCH   1  18
TORSDOF 4
ENDMDL
MODEL 7
REMARK VINA RESULT:      -7.6      1.661      2.545
REMARK  Name = 
REMARK  6 active torsions:
REMARK  status: ('A' for Active; 'I' for Inactive)
REMARK    1  A    between atoms: C_1  and  C_2
REMARK    2  A    between atoms: C_4  and  C_5
REMARK    3  A    between atoms: C_5  and  C_7
REMARK    4  A    between atoms: C_13  and  C_15
REMARK    5  A    between atoms: C_22  and  C_23
REMARK    6  A    between atoms: C_26  and  C_27
REMARK                            x       y       z     vdW  Elec       q    Type
REMARK                         _______ _______ _______ _____ _____    ______ ____
ROOT
ATOM      1  C   UNL     1      -0.424  10.379  19.768  0.00  0.00    +0.000 C 
ATOM      2  O   UNL     1      -1.265   9.856  19.046  0.00  0.00    +0.000 OA
ATOM      3  N   UNL     1      -0.202  11.751  19.859  0.00  0.00    +0.000 N 
ATOM      4  C   UNL     1      -1.082  12.670  19.120  0.00  0.00    +0.000 C 
ATOM      5  C   UNL     1      -0.307  13.478  18.074  0.00  0.00    +0.000 C 
ATOM      6  N   UNL     1       0.868  14.121  18.673  0.00  0.00    +0.000 N 
ATOM      7  C   UNL     1       0.935  15.512  18.724  0.00  0.00    +0.000 C 
ATOM      8  O   UNL     1      -0.018  16.244  18.462  0.00  0.00    +0.000 OA
ATOM      9  C   UNL     1       1.765  13.202  19.395  0.00  0.00    +0.000 C 
ATOM     10  C   UNL     1       1.016  12.346  20.444  0.00  0.00    +0.000 C 
ATOM     11  C   UNL     1       0.702  13.165  21.698  0.00  0.00    +0.000 C 
ENDROOT
BRANCH   7  12
ATOM     12  C   UNL     1       2.230  16.143  19.089  0.00  0.00    +0.000 A 
ATOM     13  C   UNL     1       3.284  16.177  18.167  0.00  0.00    +0.000 A 
ATOM     14  C   UNL     1       4.526  16.675  18.542  0.00  0.00    +0.000 A 
ATOM     15  C   UNL     1       4.701  17.205  19.819  0.00  0.00    +0.000 A 
ATOM     16  C   UNL     1       3.632  17.245  20.717  0.00  0.00    +0.000 A 
ATOM     17  C   UNL     1       2.392  16.714  20.354  0.00  0.00    +0.000 A 
ENDBRANCH   7  12
BRANCH   1  18
ATOM     18  C   UNL     1       0.392   9.476  20.682  0.00  0.00    +0.000 C 
ATOM     19  O   UNL     1       0.308   9.634  21.895  0.00  0.00    +0.000 OA
BRANCH  18  23
ATOM     20  C   UNL     1       2.186   4.830  20.987  0.00  0.00    +0.000 C 
ATOM     21  C   UNL     1       2.116   6.118  20.207  0.00  0.00    +0.000 A 
ATOM     22  C   UNL     1       1.338   7.173  20.731  0.00  0.00    +0.000 A 
ATOM     23  C   UNL     1       1.242   8.409  20.077  0.00  0.00    +0.000 A 
ATOM     24  C   UNL     1       1.930   8.595  18.878  0.00  0.00    +0.000 A 
ATOM     25  C   UNL     1       2.701   7.554  18.343  0.00  0.00    +0.000 A 
ATOM     26  C   UNL     1       2.810   6.304  18.989  0.00  0.00    +0.000 A 
BRANCH  26  27
ATOM     27  C   UNL     1       3.639   5.253  18.366  0.00  0.00    +0.000 A 
ATOM     28  C   UNL     1       3.230   4.261  17.431  0.00  0.00    +0.000 A 
ATOM     29  C   UNL     1       4.353   3.517  17.148  0.00  0.00    +0.000 A 
ATOM     30  N   UNL     1       5.348   4.076  17.885  0.00  0.00    +0.000 N 
ATOM     31  N   UNL     1       4.943   5.100  18.645  0.00  0.00    +0.000 NA
ATOM     32  H   UNL     1       6.326   3.806  17.929  0.00  0.00    +0.000 HD
ENDBRANCH  26  27
ENDBRANCH  18  23
ENDBRANCH   1  18
TORSDOF 4
ENDMDL
MODEL 8
REMARK VINA RESULT:      -7.6      1.382      1.740
REMARK  Name = 
REMARK  6 active torsions:
REMARK  status: ('A' for Active; 'I' for Inactive)
REMARK    1  A    between atoms: C_1  and  C_2
REMARK    2  A    between atoms: C_4  and  C_5
REMARK    3  A    between atoms: C_5  and  C_7
REMARK    4  A    between atoms: C_13  and  C_15
REMARK    5  A    between atoms: C_22  and  C_23
REMARK    6  A    between atoms: C_26  and  C_27
REMARK                            x       y       z     vdW  Elec       q    Type
REMARK                         _______ _______ _______ _____ _____    ______ ____
ROOT
ATOM      1  C   UNL     1       0.947  10.183  19.522  0.00  0.00    +0.000 C 
ATOM      2  O   UNL     1       0.289   9.424  20.225  0.00  0.00    +0.000 OA
ATOM      3  N   UNL     1       1.067  11.554  19.732  0.00  0.00    +0.000 N 
ATOM      4  C   UNL     1       0.448  12.153  20.925  0.00  0.00    +0.000 C 
ATOM      5  C   UNL     1      -0.637  13.168  20.551  0.00  0.00    +0.000 C 
ATOM      6  N   UNL     1      -0.128  14.146  19.583  0.00  0.00    +0.000 N 
ATOM      7  C   UNL     1      -0.033  15.487  19.950  0.00  0.00    +0.000 C 
ATOM      8  O   UNL     1      -0.178  15.883  21.106  0.00  0.00    +0.000 OA
ATOM      9  C   UNL     1       0.473  13.553  18.376  0.00  0.00    +0.000 C 
ATOM     10  C   UNL     1       1.556  12.500  18.710  0.00  0.00    +0.000 C 
ATOM     11  C   UNL     1       2.863  13.173  19.137  0.00  0.00    +0.000 C 
ENDROOT
BRANCH   7  12
ATOM     12  C   UNL     1       0.231  16.493  18.888  0.00  0.00    +0.000 A 
ATOM     13  C   UNL     1      -0.830  17.192  18.298  0.00  0.00    +0.000 A 
ATOM     14  C   UNL     1      -0.593  18.057  17.236  0.00  0.00    +0.000 A 
ATOM     15  C   UNL     1       0.714  18.278  16.804  0.00  0.00    +0.000 A 
ATOM     16  C   UNL     1       1.783  17.643  17.439  0.00  0.00    +0.000 A 
ATOM     17  C   UNL     1       1.544  16.747  18.485  0.00  0.00    +0.000 A 
ENDBRANCH   7  12
BRANCH   1  18
ATOM     18  C   UNL     1       1.748   9.579  18.377  0.00  0.00    +0.000 C 
ATOM     19  O   UNL     1       1.952  10.258  17.377  0.00  0.00    +0.000 OA
BRANCH  18  23
ATOM     20  C   UNL     1       1.828   5.328  20.990  0.00  0.00    +0.000 C 
ATOM     21  C   UNL     1       2.318   6.091  19.786  0.00  0.00    +0.000 A 
ATOM     22  C   UNL     1       1.857   7.412  19.601  0.00  0.00    +0.000 A 
ATOM     23  C   UNL     1       2.285   8.194  18.518  0.00  0.00    +0.000 A 
ATOM     24  C   UNL     1       3.186   7.647  17.603  0.00  0.00    +0.000 A 
ATOM     25  C   UNL     1       3.647   6.334  17.772  0.00  0.00    +0.000 A 
ATOM     26  C   UNL     1       3.228   5.534  18.856  0.00  0.00    +0.000 A 
BRANCH  26  27
ATOM     27  C   UNL     1       3.754   4.159  18.970  0.00  0.00    +0.000 A 
ATOM     28  C   UNL     1       3.104   2.946  18.609  0.00  0.00    +0.000 A 
ATOM     29  C   UNL     1       3.992   1.936  18.900  0.00  0.00    +0.000 A 
ATOM     30  N   UNL     1       5.094   2.558  19.393  0.00  0.00    +0.000 N 
ATOM     31  N   UNL     1       4.969   3.889  19.471  0.00  0.00    +0.000 NA
ATOM     32  H   UNL     1       5.966   2.142  19.706  0.00  0.00    +0.000 HD
ENDBRANCH  26  27
ENDBRANCH  18  23
ENDBRANCH   1  18
TORSDOF 4
ENDMDL
MODEL 9
REMARK VINA RESULT:      -7.6      3.298      4.144
REMARK  Name = 
REMARK  6 active torsions:
REMARK  status: ('A' for Active; 'I' for Inactive)
REMARK    1  A    between atoms: C_1  and  C_2
REMARK    2  A    between atoms: C_4  and  C_5
REMARK    3  A    between atoms: C_5  and  C_7
REMARK    4  A    between atoms: C_13  and  C_15
REMARK    5  A    between atoms: C_22  and  C_23
REMARK    6  A    between atoms: C_26  and  C_27
REMARK                            x       y       z     vdW  Elec       q    Type
REMARK                         _______ _______ _______ _____ _____    ______ ____
ROOT
ATOM      1  C   UNL     1       0.188   9.883  18.054  0.00  0.00    +0.000 C 
ATOM      2  O   UNL     1      -0.360   9.440  17.052  0.00  0.00    +0.000 OA
ATOM      3  N   UNL     1      -0.479  10.467  19.129  0.00  0.00    +0.000 N 
ATOM      4  C   UNL     1      -1.950  10.485  19.135  0.00  0.00    +0.000 C 
ATOM      5  C   UNL     1      -2.498  11.916  19.121  0.00  0.00    +0.000 C 
ATOM      6  N   UNL     1      -1.882  12.724  20.179  0.00  0.00    +0.000 N 
ATOM      7  C   UNL     1      -2.675  13.215  21.214  0.00  0.00    +0.000 C 
ATOM      8  O   UNL     1      -3.838  12.859  21.401  0.00  0.00    +0.000 OA
ATOM      9  C   UNL     1      -0.409  12.728  20.164  0.00  0.00    +0.000 C 
ATOM     10  C   UNL     1       0.186  11.299  20.151  0.00  0.00    +0.000 C 
ATOM     11  C   UNL     1       0.114  10.661  21.539  0.00  0.00    +0.000 C 
ENDROOT
BRANCH   7  12
ATOM     12  C   UNL     1      -2.095  14.237  22.123  0.00  0.00    +0.000 A 
ATOM     13  C   UNL     1      -1.907  15.552  21.679  0.00  0.00    +0.000 A 
ATOM     14  C   UNL     1      -1.271  16.482  22.494  0.00  0.00    +0.000 A 
ATOM     15  C   UNL     1      -0.883  16.120  23.783  0.00  0.00    +0.000 A 
ATOM     16  C   UNL     1      -1.139  14.833  24.260  0.00  0.00    +0.000 A 
ATOM     17  C   UNL     1      -1.747  13.886  23.430  0.00  0.00    +0.000 A 
ENDBRANCH   7  12
BRANCH   1  18
ATOM     18  C   UNL     1       1.697   9.727  18.170  0.00  0.00    +0.000 C 
ATOM     19  O   UNL     1       2.400  10.729  18.117  0.00  0.00    +0.000 OA
BRANCH  18  23
ATOM     20  C   UNL     1       1.823   5.567  20.925  0.00  0.00    +0.000 C 
ATOM     21  C   UNL     1       2.329   6.306  19.711  0.00  0.00    +0.000 A 
ATOM     22  C   UNL     1       1.833   7.605  19.468  0.00  0.00    +0.000 A 
ATOM     23  C   UNL     1       2.272   8.365  18.374  0.00  0.00    +0.000 A 
ATOM     24  C   UNL     1       3.218   7.818  17.506  0.00  0.00    +0.000 A 
ATOM     25  C   UNL     1       3.714   6.525  17.733  0.00  0.00    +0.000 A 
ATOM     26  C   UNL     1       3.284   5.749  18.829  0.00  0.00    +0.000 A 
BRANCH  26  27
ATOM     27  C   UNL     1       3.848   4.395  19.005  0.00  0.00    +0.000 A 
ATOM     28  C   UNL     1       3.198   3.147  18.797  0.00  0.00    +0.000 A 
ATOM     29  C   UNL     1       4.129   2.177  19.091  0.00  0.00    +0.000 A 
ATOM     30  N   UNL     1       5.255   2.854  19.437  0.00  0.00    +0.000 N 
ATOM     31  N   UNL     1       5.107   4.184  19.420  0.00  0.00    +0.000 NA
ATOM     32  H   UNL     1       6.159   2.477  19.706  0.00  0.00    +0.000 HD
ENDBRANCH  26  27
ENDBRANCH  18  23
ENDBRANCH   1  18
TORSDOF 4
ENDMDL
