MODEL 1
REMARK VINA RESULT:      -6.9      0.000      0.000
REMARK  Name = 
REMARK  4 active torsions:
REMARK  status: ('A' for Active; 'I' for Inactive)
REMARK    1  A    between atoms: C_2  and  C_3
REMARK    2  A    between atoms: C_3  and  O_4
REMARK    3  A    between atoms: C_14  and  O_15
REMARK    4  A    between atoms: C_22  and  C_23
REMARK                            x       y       z     vdW  Elec       q    Type
REMARK                         _______ _______ _______ _____ _____    ______ ____
ROOT
ATOM      1  C   UNL     1       6.411  13.149  24.318  0.00  0.00    +0.000 C 
ATOM      2  C   UNL     1       7.449  12.145  24.845  0.00  0.00    +0.000 C 
ATOM      3  F   UNL     1       6.961  11.173  25.620  0.00  0.00    +0.000 F 
ATOM      4  C   UNL     1       8.093  11.590  23.564  0.00  0.00    +0.000 C 
ATOM      5  C   UNL     1       8.655  12.826  22.883  0.00  0.00    +0.000 C 
ATOM      6  C   UNL     1       9.188  12.848  21.449  0.00  0.00    +0.000 C 
ATOM      7  C   UNL     1       9.663  11.473  20.980  0.00  0.00    +0.000 C 
ATOM      8  C   UNL     1       9.649  11.470  19.470  0.00  0.00    +0.000 C 
ATOM      9  C   UNL     1      10.373  12.686  18.849  0.00  0.00    +0.000 A 
ATOM     10  C   UNL     1      10.594  12.557  17.485  0.00  0.00    +0.000 A 
ATOM     11  C   UNL     1      11.325  13.505  16.817  0.00  0.00    +0.000 A 
ATOM     12  C   UNL     1      11.853  14.559  17.556  0.00  0.00    +0.000 A 
ATOM     13  C   UNL     1      11.572  14.701  18.956  0.00  0.00    +0.000 A 
ATOM     14  C   UNL     1      10.771  13.790  19.655  0.00  0.00    +0.000 A 
ATOM     15  C   UNL     1      10.405  13.814  21.226  0.00  0.00    +0.000 C 
ATOM     16  C   UNL     1      10.148  15.112  22.118  0.00  0.00    +0.000 C 
ATOM     17  C   UNL     1       9.195  14.961  23.578  0.00  0.00    +0.000 C 
ATOM     18  C   UNL     1       7.764  14.070  23.359  0.00  0.00    +0.000 C 
ATOM     19  C   UNL     1       7.047  15.103  22.468  0.00  0.00    +0.000 C 
ENDROOT
BRANCH   1  21
ATOM     20  C   UNL     1       5.052  14.432  26.435  0.00  0.00    +0.000 C 
ATOM     21  C   UNL     1       5.680  13.840  25.458  0.00  0.00    +0.000 C 
ENDBRANCH   1  21
BRANCH   1  22
ATOM     22  O   UNL     1       5.509  12.610  23.362  0.00  0.00    +0.000 OA
ATOM     23  H   UNL     1       4.907  12.006  23.838  0.00  0.00    +0.000 HD
ENDBRANCH   1  22
BRANCH  11  24
ATOM     24  O   UNL     1      11.545  13.403  15.482  0.00  0.00    +0.000 OA
ATOM     25  H   UNL     1      12.480  13.588  15.269  0.00  0.00    +0.000 HD
ENDBRANCH  11  24
TORSDOF 3
ENDMDL
MODEL 2
REMARK VINA RESULT:      -6.9      8.519      9.662
REMARK  Name = 
REMARK  4 active torsions:
REMARK  status: ('A' for Active; 'I' for Inactive)
REMARK    1  A    between atoms: C_2  and  C_3
REMARK    2  A    between atoms: C_3  and  O_4
REMARK    3  A    between atoms: C_14  and  O_15
REMARK    4  A    between atoms: C_22  and  C_23
REMARK                            x       y       z     vdW  Elec       q    Type
REMARK                         _______ _______ _______ _____ _____    ______ ____
ROOT
ATOM      1  C   UNL     1       0.243  11.231  21.068  0.00  0.00    +0.000 C 
ATOM      2  C   UNL     1      -0.581  10.939  19.803  0.00  0.00    +0.000 C 
ATOM      3  F   UNL     1      -1.142  12.006  19.229  0.00  0.00    +0.000 F 
ATOM      4  C   UNL     1       0.426  10.246  18.871  0.00  0.00    +0.000 C 
ATOM      5  C   UNL     1       0.871   9.030  19.665  0.00  0.00    +0.000 C 
ATOM      6  C   UNL     1       2.051   8.138  19.279  0.00  0.00    +0.000 C 
ATOM      7  C   UNL     1       2.356   8.186  17.782  0.00  0.00    +0.000 C 
ATOM      8  C   UNL     1       3.789   7.747  17.588  0.00  0.00    +0.000 C 
ATOM      9  C   UNL     1       4.124   6.420  18.306  0.00  0.00    +0.000 A 
ATOM     10  C   UNL     1       5.342   5.879  17.921  0.00  0.00    +0.000 A 
ATOM     11  C   UNL     1       5.723   4.648  18.389  0.00  0.00    +0.000 A 
ATOM     12  C   UNL     1       4.839   3.965  19.218  0.00  0.00    +0.000 A 
ATOM     13  C   UNL     1       3.606   4.562  19.645  0.00  0.00    +0.000 A 
ATOM     14  C   UNL     1       3.218   5.846  19.244  0.00  0.00    +0.000 A 
ATOM     15  C   UNL     1       1.853   6.618  19.621  0.00  0.00    +0.000 C 
ATOM     16  C   UNL     1       1.078   6.545  21.013  0.00  0.00    +0.000 C 
ATOM     17  C   UNL     1       0.011   7.859  21.460  0.00  0.00    +0.000 C 
ATOM     18  C   UNL     1       0.697   9.395  21.217  0.00  0.00    +0.000 C 
ATOM     19  C   UNL     1       1.759   9.292  22.327  0.00  0.00    +0.000 C 
ENDROOT
BRANCH   1  21
ATOM     20  C   UNL     1      -1.330  12.468  23.061  0.00  0.00    +0.000 C 
ATOM     21  C   UNL     1      -0.604  11.897  22.140  0.00  0.00    +0.000 C 
ENDBRANCH   1  21
BRANCH   1  22
ATOM     22  O   UNL     1       1.448  11.944  20.828  0.00  0.00    +0.000 OA
ATOM     23  H   UNL     1       1.245  12.896  20.914  0.00  0.00    +0.000 HD
ENDBRANCH   1  22
BRANCH  11  24
ATOM     24  O   UNL     1       6.914   4.104  18.032  0.00  0.00    +0.000 OA
ATOM     25  H   UNL     1       6.782   3.322  17.461  0.00  0.00    +0.000 HD
ENDBRANCH  11  24
TORSDOF 3
ENDMDL
MODEL 3
REMARK VINA RESULT:      -6.8      9.500     11.638
REMARK  Name = 
REMARK  4 active torsions:
REMARK  status: ('A' for Active; 'I' for Inactive)
REMARK    1  A    between atoms: C_2  and  C_3
REMARK    2  A    between atoms: C_3  and  O_4
REMARK    3  A    between atoms: C_14  and  O_15
REMARK    4  A    between atoms: C_22  and  C_23
REMARK                            x       y       z     vdW  Elec       q    Type
REMARK                         _______ _______ _______ _____ _____    ______ ____
ROOT
ATOM      1  C   UNL     1       3.428   3.528  17.937  0.00  0.00    +0.000 C 
ATOM      2  C   UNL     1       4.713   4.361  18.061  0.00  0.00    +0.000 C 
ATOM      3  F   UNL     1       5.721   3.978  17.275  0.00  0.00    +0.000 F 
ATOM      4  C   UNL     1       4.246   5.791  17.742  0.00  0.00    +0.000 C 
ATOM      5  C   UNL     1       3.178   6.060  18.789  0.00  0.00    +0.000 C 
ATOM      6  C   UNL     1       2.230   7.260  18.758  0.00  0.00    +0.000 C 
ATOM      7  C   UNL     1       2.805   8.441  17.977  0.00  0.00    +0.000 C 
ATOM      8  C   UNL     1       1.651   9.316  17.547  0.00  0.00    +0.000 C 
ATOM      9  C   UNL     1       0.689   9.671  18.703  0.00  0.00    +0.000 A 
ATOM     10  C   UNL     1      -0.212  10.676  18.381  0.00  0.00    +0.000 A 
ATOM     11  C   UNL     1      -1.054  11.176  19.340  0.00  0.00    +0.000 A 
ATOM     12  C   UNL     1      -0.943  10.667  20.631  0.00  0.00    +0.000 A 
ATOM     13  C   UNL     1      -0.041   9.594  20.933  0.00  0.00    +0.000 A 
ATOM     14  C   UNL     1       0.783   9.011  19.962  0.00  0.00    +0.000 A 
ATOM     15  C   UNL     1       1.859   7.829  20.173  0.00  0.00    +0.000 C 
ATOM     16  C   UNL     1       1.715   6.583  21.160  0.00  0.00    +0.000 C 
ATOM     17  C   UNL     1       2.635   5.131  20.832  0.00  0.00    +0.000 C 
ATOM     18  C   UNL     1       2.562   4.641  19.206  0.00  0.00    +0.000 C 
ATOM     19  C   UNL     1       1.077   4.231  19.211  0.00  0.00    +0.000 C 
ENDROOT
BRANCH   1  21
ATOM     20  C   UNL     1       3.902   0.807  18.528  0.00  0.00    +0.000 C 
ATOM     21  C   UNL     1       3.683   2.064  18.255  0.00  0.00    +0.000 C 
ENDBRANCH   1  21
BRANCH   1  22
ATOM     22  O   UNL     1       2.745   3.688  16.701  0.00  0.00    +0.000 OA
ATOM     23  H   UNL     1       3.345   3.378  15.995  0.00  0.00    +0.000 HD
ENDBRANCH   1  22
BRANCH  11  24
ATOM     24  O   UNL     1      -1.948  12.152  19.044  0.00  0.00    +0.000 OA
ATOM     25  H   UNL     1      -2.853  11.788  18.984  0.00  0.00    +0.000 HD
ENDBRANCH  11  24
TORSDOF 3
ENDMDL
MODEL 4
REMARK VINA RESULT:      -6.6      9.069     10.636
REMARK  Name = 
REMARK  4 active torsions:
REMARK  status: ('A' for Active; 'I' for Inactive)
REMARK    1  A    between atoms: C_2  and  C_3
REMARK    2  A    between atoms: C_3  and  O_4
REMARK    3  A    between atoms: C_14  and  O_15
REMARK    4  A    between atoms: C_22  and  C_23
REMARK                            x       y       z     vdW  Elec       q    Type
REMARK                         _______ _______ _______ _____ _____    ______ ____
ROOT
ATOM      1  C   UNL     1      -0.262  11.303  19.791  0.00  0.00    +0.000 C 
ATOM      2  C   UNL     1       0.814  11.336  20.889  0.00  0.00    +0.000 C 
ATOM      3  F   UNL     1       0.514  12.075  21.960  0.00  0.00    +0.000 F 
ATOM      4  C   UNL     1       1.005   9.854  21.248  0.00  0.00    +0.000 C 
ATOM      5  C   UNL     1       1.422   9.218  19.933  0.00  0.00    +0.000 C 
ATOM      6  C   UNL     1       1.502   7.709  19.696  0.00  0.00    +0.000 C 
ATOM      7  C   UNL     1       1.718   6.925  20.990  0.00  0.00    +0.000 C 
ATOM      8  C   UNL     1       1.253   5.507  20.754  0.00  0.00    +0.000 C 
ATOM      9  C   UNL     1       1.840   4.876  19.472  0.00  0.00    +0.000 A 
ATOM     10  C   UNL     1       1.633   3.507  19.388  0.00  0.00    +0.000 A 
ATOM     11  C   UNL     1       2.195   2.790  18.363  0.00  0.00    +0.000 A 
ATOM     12  C   UNL     1       2.992   3.475  17.451  0.00  0.00    +0.000 A 
ATOM     13  C   UNL     1       3.153   4.899  17.526  0.00  0.00    +0.000 A 
ATOM     14  C   UNL     1       2.537   5.672  18.518  0.00  0.00    +0.000 A 
ATOM     15  C   UNL     1       2.660   7.265  18.734  0.00  0.00    +0.000 C 
ATOM     16  C   UNL     1       2.772   8.370  17.589  0.00  0.00    +0.000 C 
ATOM     17  C   UNL     1       2.292  10.014  17.947  0.00  0.00    +0.000 C 
ATOM     18  C   UNL     1       0.803  10.118  18.760  0.00  0.00    +0.000 C 
ATOM     19  C   UNL     1      -0.074   9.648  17.584  0.00  0.00    +0.000 C 
ENDROOT
BRANCH   1  21
ATOM     20  C   UNL     1      -0.832  13.896  18.829  0.00  0.00    +0.000 C 
ATOM     21  C   UNL     1      -0.569  12.699  19.273  0.00  0.00    +0.000 C 
ENDBRANCH   1  21
BRANCH   1  22
ATOM     22  O   UNL     1      -1.444  10.602  20.152  0.00  0.00    +0.000 OA
ATOM     23  H   UNL     1      -2.120  10.806  19.478  0.00  0.00    +0.000 HD
ENDBRANCH   1  22
BRANCH  11  24
ATOM     24  O   UNL     1       1.997   1.452  18.257  0.00  0.00    +0.000 OA
ATOM     25  H   UNL     1       2.560   1.072  17.554  0.00  0.00    +0.000 HD
ENDBRANCH  11  24
TORSDOF 3
ENDMDL
MODEL 5
REMARK VINA RESULT:      -6.4      9.105     12.747
REMARK  Name = 
REMARK  4 active torsions:
REMARK  status: ('A' for Active; 'I' for Inactive)
REMARK    1  A    between atoms: C_2  and  C_3
REMARK    2  A    between atoms: C_3  and  O_4
REMARK    3  A    between atoms: C_14  and  O_15
REMARK    4  A    between atoms: C_22  and  C_23
REMARK                            x       y       z     vdW  Elec       q    Type
REMARK                         _______ _______ _______ _____ _____    ______ ____
ROOT
ATOM      1  C   UNL     1       0.921  10.095  18.521  0.00  0.00    +0.000 C 
ATOM      2  C   UNL     1       1.598  11.456  18.750  0.00  0.00    +0.000 C 
ATOM      3  F   UNL     1       2.304  11.924  17.718  0.00  0.00    +0.000 F 
ATOM      4  C   UNL     1       0.427  12.383  19.113  0.00  0.00    +0.000 C 
ATOM      5  C   UNL     1      -0.178  11.729  20.344  0.00  0.00    +0.000 C 
ATOM      6  C   UNL     1      -1.522  12.130  20.956  0.00  0.00    +0.000 C 
ATOM      7  C   UNL     1      -1.907  13.573  20.629  0.00  0.00    +0.000 C 
ATOM      8  C   UNL     1      -3.404  13.698  20.786  0.00  0.00    +0.000 C 
ATOM      9  C   UNL     1      -3.926  13.145  22.132  0.00  0.00    +0.000 A 
ATOM     10  C   UNL     1      -5.243  13.492  22.395  0.00  0.00    +0.000 A 
ATOM     11  C   UNL     1      -5.809  13.169  23.601  0.00  0.00    +0.000 A 
ATOM     12  C   UNL     1      -5.011  12.525  24.541  0.00  0.00    +0.000 A 
ATOM     13  C   UNL     1      -3.667  12.130  24.232  0.00  0.00    +0.000 A 
ATOM     14  C   UNL     1      -3.080  12.381  22.986  0.00  0.00    +0.000 A 
ATOM     15  C   UNL     1      -1.578  12.023  22.521  0.00  0.00    +0.000 C 
ATOM     16  C   UNL     1      -0.743  10.729  22.936  0.00  0.00    +0.000 C 
ATOM     17  C   UNL     1       0.569  10.199  21.904  0.00  0.00    +0.000 C 
ATOM     18  C   UNL     1       0.156  10.164  20.256  0.00  0.00    +0.000 C 
ATOM     19  C   UNL     1      -0.836   8.989  20.347  0.00  0.00    +0.000 C 
ENDROOT
BRANCH   1  21
ATOM     20  C   UNL     1       2.813   8.097  17.886  0.00  0.00    +0.000 C 
ATOM     21  C   UNL     1       1.939   9.020  18.179  0.00  0.00    +0.000 C 
ENDBRANCH   1  21
BRANCH   1  22
ATOM     22  O   UNL     1      -0.149  10.125  17.587  0.00  0.00    +0.000 OA
ATOM     23  H   UNL     1       0.163   9.687  16.772  0.00  0.00    +0.000 HD
ENDBRANCH   1  22
BRANCH  11  24
ATOM     24  O   UNL     1      -7.098  13.491  23.876  0.00  0.00    +0.000 OA
ATOM     25  H   UNL     1      -7.691  12.738  23.686  0.00  0.00    +0.000 HD
ENDBRANCH  11  24
TORSDOF 3
ENDMDL
MODEL 6
REMARK VINA RESULT:      -6.0      9.123     10.416
REMARK  Name = 
REMARK  4 active torsions:
REMARK  status: ('A' for Active; 'I' for Inactive)
REMARK    1  A    between atoms: C_2  and  C_3
REMARK    2  A    between atoms: C_3  and  O_4
REMARK    3  A    between atoms: C_14  and  O_15
REMARK    4  A    between atoms: C_22  and  C_23
REMARK                            x       y       z     vdW  Elec       q    Type
REMARK                         _______ _______ _______ _____ _____    ______ ____
ROOT
ATOM      1  C   UNL     1      -3.449  13.344  22.136  0.00  0.00    +0.000 C 
ATOM      2  C   UNL     1      -2.279  13.809  23.018  0.00  0.00    +0.000 C 
ATOM      3  F   UNL     1      -2.613  14.198  24.251  0.00  0.00    +0.000 F 
ATOM      4  C   UNL     1      -1.337  12.595  23.034  0.00  0.00    +0.000 C 
ATOM      5  C   UNL     1      -1.012  12.374  21.567  0.00  0.00    +0.000 C 
ATOM      6  C   UNL     1      -0.299  11.136  21.022  0.00  0.00    +0.000 C 
ATOM      7  C   UNL     1       0.570  10.450  22.076  0.00  0.00    +0.000 C 
ATOM      8  C   UNL     1       0.777   9.017  21.643  0.00  0.00    +0.000 C 
ATOM      9  C   UNL     1       1.253   8.884  20.178  0.00  0.00    +0.000 A 
ATOM     10  C   UNL     1       1.694   7.608  19.858  0.00  0.00    +0.000 A 
ATOM     11  C   UNL     1       2.252   7.364  18.629  0.00  0.00    +0.000 A 
ATOM     12  C   UNL     1       2.384   8.436  17.752  0.00  0.00    +0.000 A 
ATOM     13  C   UNL     1       1.876   9.736  18.082  0.00  0.00    +0.000 A 
ATOM     14  C   UNL     1       1.238  10.004  19.299  0.00  0.00    +0.000 A 
ATOM     15  C   UNL     1       0.654  11.419  19.807  0.00  0.00    +0.000 C 
ATOM     16  C   UNL     1      -0.049  12.531  18.905  0.00  0.00    +0.000 C 
ATOM     17  C   UNL     1      -1.135  13.675  19.663  0.00  0.00    +0.000 C 
ATOM     18  C   UNL     1      -2.247  12.947  20.722  0.00  0.00    +0.000 C 
ATOM     19  C   UNL     1      -3.064  12.212  19.643  0.00  0.00    +0.000 C 
ENDROOT
BRANCH   1  21
ATOM     20  C   UNL     1      -5.380  15.381  21.826  0.00  0.00    +0.000 C 
ATOM     21  C   UNL     1      -4.488  14.440  21.969  0.00  0.00    +0.000 C 
ENDBRANCH   1  21
BRANCH   1  22
ATOM     22  O   UNL     1      -4.037  12.117  22.545  0.00  0.00    +0.000 OA
ATOM     23  H   UNL     1      -3.880  12.024  23.504  0.00  0.00    +0.000 HD
ENDBRANCH   1  22
BRANCH  11  24
ATOM     24  O   UNL     1       2.682   6.122  18.292  0.00  0.00    +0.000 OA
ATOM     25  H   UNL     1       3.184   6.144  17.454  0.00  0.00    +0.000 HD
ENDBRANCH  11  24
TORSDOF 3
ENDMDL
MODEL 7
REMARK VINA RESULT:      -5.9      9.488     11.104
REMARK  Name = 
REMARK  4 active torsions:
REMARK  status: ('A' for Active; 'I' for Inactive)
REMARK    1  A    between atoms: C_2  and  C_3
REMARK    2  A    between atoms: C_3  and  O_4
REMARK    3  A    between atoms: C_14  and  O_15
REMARK    4  A    between atoms: C_22  and  C_23
REMARK                            x       y       z     vdW  Elec       q    Type
REMARK                         _______ _______ _______ _____ _____    ______ ____
ROOT
ATOM      1  C   UNL     1      -4.081  13.328  21.114  0.00  0.00    +0.000 C 
ATOM      2  C   UNL     1      -3.070  13.979  22.072  0.00  0.00    +0.000 C 
ATOM      3  F   UNL     1      -3.601  14.586  23.136  0.00  0.00    +0.000 F 
ATOM      4  C   UNL     1      -2.153  12.812  22.472  0.00  0.00    +0.000 C 
ATOM      5  C   UNL     1      -1.591  12.327  21.147  0.00  0.00    +0.000 C 
ATOM      6  C   UNL     1      -0.808  11.025  20.972  0.00  0.00    +0.000 C 
ATOM      7  C   UNL     1      -0.130  10.571  22.265  0.00  0.00    +0.000 C 
ATOM      8  C   UNL     1       0.134   9.088  22.152  0.00  0.00    +0.000 C 
ATOM      9  C   UNL     1       0.845   8.692  20.838  0.00  0.00    +0.000 A 
ATOM     10  C   UNL     1       1.324   7.390  20.843  0.00  0.00    +0.000 A 
ATOM     11  C   UNL     1       2.075   6.932  19.791  0.00  0.00    +0.000 A 
ATOM     12  C   UNL     1       2.359   7.822  18.760  0.00  0.00    +0.000 A 
ATOM     13  C   UNL     1       1.814   9.149  18.749  0.00  0.00    +0.000 A 
ATOM     14  C   UNL     1       0.985   9.626  19.771  0.00  0.00    +0.000 A 
ATOM     15  C   UNL     1       0.336  11.097  19.898  0.00  0.00    +0.000 C 
ATOM     16  C   UNL     1      -0.199  12.002  18.699  0.00  0.00    +0.000 C 
ATOM     17  C   UNL     1      -1.387  13.242  19.037  0.00  0.00    +0.000 C 
ATOM     18  C   UNL     1      -2.665  12.701  20.018  0.00  0.00    +0.000 C 
ATOM     19  C   UNL     1      -3.298  11.756  18.978  0.00  0.00    +0.000 C 
ENDROOT
BRANCH   1  21
ATOM     20  C   UNL     1      -5.918  15.223  20.110  0.00  0.00    +0.000 C 
ATOM     21  C   UNL     1      -5.070  14.348  20.573  0.00  0.00    +0.000 C 
ENDBRANCH   1  21
BRANCH   1  22
ATOM     22  O   UNL     1      -4.738  12.186  21.646  0.00  0.00    +0.000 OA
ATOM     23  H   UNL     1      -4.056  11.625  22.063  0.00  0.00    +0.000 HD
ENDBRANCH   1  22
BRANCH  11  24
ATOM     24  O   UNL     1       2.545   5.660  19.771  0.00  0.00    +0.000 OA
ATOM     25  H   UNL     1       3.265   5.566  19.117  0.00  0.00    +0.000 HD
ENDBRANCH  11  24
TORSDOF 3
ENDMDL
MODEL 8
REMARK VINA RESULT:      -5.9      2.612      7.218
REMARK  Name = 
REMARK  4 active torsions:
REMARK  status: ('A' for Active; 'I' for Inactive)
REMARK    1  A    between atoms: C_2  and  C_3
REMARK    2  A    between atoms: C_3  and  O_4
REMARK    3  A    between atoms: C_14  and  O_15
REMARK    4  A    between atoms: C_22  and  C_23
REMARK                            x       y       z     vdW  Elec       q    Type
REMARK                         _______ _______ _______ _____ _____    ______ ____
ROOT
ATOM      1  C   UNL     1      11.018  12.481  19.122  0.00  0.00    +0.000 C 
ATOM      2  C   UNL     1       9.809  11.560  18.887  0.00  0.00    +0.000 C 
ATOM      3  F   UNL     1      10.065  10.448  18.193  0.00  0.00    +0.000 F 
ATOM      4  C   UNL     1       9.313  11.250  20.308  0.00  0.00    +0.000 C 
ATOM      5  C   UNL     1       8.998  12.621  20.884  0.00  0.00    +0.000 C 
ATOM      6  C   UNL     1       8.696  12.883  22.360  0.00  0.00    +0.000 C 
ATOM      7  C   UNL     1       8.153  11.646  23.075  0.00  0.00    +0.000 C 
ATOM      8  C   UNL     1       8.398  11.823  24.555  0.00  0.00    +0.000 C 
ATOM      9  C   UNL     1       7.914  13.187  25.096  0.00  0.00    +0.000 A 
ATOM     10  C   UNL     1       7.892  13.253  26.482  0.00  0.00    +0.000 A 
ATOM     11  C   UNL     1       7.379  14.360  27.107  0.00  0.00    +0.000 A 
ATOM     12  C   UNL     1       6.860  15.375  26.310  0.00  0.00    +0.000 A 
ATOM     13  C   UNL     1       6.937  15.311  24.879  0.00  0.00    +0.000 A 
ATOM     14  C   UNL     1       7.518  14.228  24.208  0.00  0.00    +0.000 A 
ATOM     15  C   UNL     1       7.640  14.016  22.614  0.00  0.00    +0.000 C 
ATOM     16  C   UNL     1       7.896  15.153  21.525  0.00  0.00    +0.000 C 
ATOM     17  C   UNL     1       8.592  14.707  19.982  0.00  0.00    +0.000 C 
ATOM     18  C   UNL     1       9.935  13.675  20.123  0.00  0.00    +0.000 C 
ATOM     19  C   UNL     1      10.887  14.708  20.754  0.00  0.00    +0.000 C 
ENDROOT
BRANCH   1  21
ATOM     20  C   UNL     1      12.167  13.316  16.681  0.00  0.00    +0.000 C 
ATOM     21  C   UNL     1      11.636  12.930  17.808  0.00  0.00    +0.000 C 
ENDBRANCH   1  21
BRANCH   1  22
ATOM     22  O   UNL     1      11.992  11.951  20.010  0.00  0.00    +0.000 OA
ATOM     23  H   UNL     1      11.533  11.333  20.611  0.00  0.00    +0.000 HD
ENDBRANCH   1  22
BRANCH  11  24
ATOM     24  O   UNL     1       7.356  14.448  28.461  0.00  0.00    +0.000 OA
ATOM     25  H   UNL     1       6.852  13.706  28.849  0.00  0.00    +0.000 HD
ENDBRANCH  11  24
TORSDOF 3
ENDMDL
MODEL 9
REMARK VINA RESULT:      -5.8      9.216     10.622
REMARK  Name = 
REMARK  4 active torsions:
REMARK  status: ('A' for Active; 'I' for Inactive)
REMARK    1  A    between atoms: C_2  and  C_3
REMARK    2  A    between atoms: C_3  and  O_4
REMARK    3  A    between atoms: C_14  and  O_15
REMARK    4  A    between atoms: C_22  and  C_23
REMARK                            x       y       z     vdW  Elec       q    Type
REMARK                         _______ _______ _______ _____ _____    ______ ____
ROOT
ATOM      1  C   UNL     1      -2.438  14.599  21.287  0.00  0.00    +0.000 C 
ATOM      2  C   UNL     1      -3.656  13.728  20.939  0.00  0.00    +0.000 C 
ATOM      3  F   UNL     1      -4.722  14.391  20.486  0.00  0.00    +0.000 F 
ATOM      4  C   UNL     1      -3.106  12.743  19.895  0.00  0.00    +0.000 C 
ATOM      5  C   UNL     1      -1.977  12.038  20.628  0.00  0.00    +0.000 C 
ATOM      6  C   UNL     1      -0.949  11.129  19.952  0.00  0.00    +0.000 C 
ATOM      7  C   UNL     1      -1.476  10.515  18.655  0.00  0.00    +0.000 C 
ATOM      8  C   UNL     1      -0.284  10.110  17.819  0.00  0.00    +0.000 C 
ATOM      9  C   UNL     1       0.751   9.267  18.598  0.00  0.00    +0.000 A 
ATOM     10  C   UNL     1       1.703   8.674  17.782  0.00  0.00    +0.000 A 
ATOM     11  C   UNL     1       2.620   7.806  18.317  0.00  0.00    +0.000 A 
ATOM     12  C   UNL     1       2.531   7.525  19.676  0.00  0.00    +0.000 A 
ATOM     13  C   UNL     1       1.572   8.185  20.513  0.00  0.00    +0.000 A 
ATOM     14  C   UNL     1       0.667   9.130  20.013  0.00  0.00    +0.000 A 
ATOM     15  C   UNL     1      -0.478   9.918  20.832  0.00  0.00    +0.000 C 
ATOM     16  C   UNL     1      -0.377  10.438  22.336  0.00  0.00    +0.000 C 
ATOM     17  C   UNL     1      -1.409  11.756  22.849  0.00  0.00    +0.000 C 
ATOM     18  C   UNL     1      -1.442  13.051  21.749  0.00  0.00    +0.000 C 
ATOM     19  C   UNL     1       0.009  13.514  21.977  0.00  0.00    +0.000 C 
ENDROOT
BRANCH   1  21
ATOM     20  C   UNL     1      -3.073  16.516  23.260  0.00  0.00    +0.000 C 
ATOM     21  C   UNL     1      -2.780  15.631  22.349  0.00  0.00    +0.000 C 
ENDBRANCH   1  21
BRANCH   1  22
ATOM     22  O   UNL     1      -1.801  15.189  20.163  0.00  0.00    +0.000 OA
ATOM     23  H   UNL     1      -2.191  14.786  19.363  0.00  0.00    +0.000 HD
ENDBRANCH   1  22
BRANCH  11  24
ATOM     24  O   UNL     1       3.566   7.223  17.538  0.00  0.00    +0.000 OA
ATOM     25  H   UNL     1       4.448   7.295  17.951  0.00  0.00    +0.000 HD
ENDBRANCH  11  24
TORSDOF 3
ENDMDL
