MODEL 1
REMARK VINA RESULT:      -7.1      0.000      0.000
REMARK  Name = 
REMARK  6 active torsions:
REMARK  status: ('A' for Active; 'I' for Inactive)
REMARK    1  A    between atoms: C_1  and  C_2
REMARK    2  A    between atoms: C_5  and  S_6
REMARK    3  A    between atoms: S_6  and  N_9
REMARK    4  A    between atoms: N_9  and  C_10
REMARK    5  A    between atoms: N_9  and  C_19
REMARK    6  A    between atoms: C_10  and  C_11
REMARK                            x       y       z     vdW  Elec       q    Type
REMARK                         _______ _______ _______ _____ _____    ______ ____
ROOT
ATOM      1  N   UNL     1       0.089  10.991  19.661  0.00  0.00    +0.000 N 
ENDROOT
BRANCH   1   2
ATOM      2  C   UNL     1       0.926   9.866  19.311  0.00  0.00    +0.000 A 
ATOM      3  C   UNL     1       1.101   8.863  20.266  0.00  0.00    +0.000 A 
ATOM      4  C   UNL     1       1.857   7.728  19.965  0.00  0.00    +0.000 A 
ATOM      5  C   UNL     1       2.440   7.601  18.706  0.00  0.00    +0.000 A 
ATOM      6 BR   UNL     1       3.409   6.034  18.276  0.00  0.00    +0.000 Br
ATOM      7  C   UNL     1       2.306   8.617  17.760  0.00  0.00    +0.000 A 
ATOM      8  C   UNL     1       1.562   9.761  18.068  0.00  0.00    +0.000 A 
ENDBRANCH   1   2
BRANCH   1   9
ATOM      9  S   UNL     1       0.810  12.060  20.780  0.00  0.00    +0.000 S 
ATOM     10  O   UNL     1       1.091  13.279  20.052  0.00  0.00    +0.000 OA
ATOM     11  O   UNL     1       1.873  11.360  21.478  0.00  0.00    +0.000 OA
BRANCH   9  16
ATOM     12  C   UNL     1      -4.060  13.274  24.169  0.00  0.00    +0.000 C 
ATOM     13  C   UNL     1      -2.724  12.997  23.538  0.00  0.00    +0.000 A 
ATOM     14  C   UNL     1      -1.969  14.040  22.983  0.00  0.00    +0.000 A 
ATOM     15  C   UNL     1      -0.819  13.768  22.227  0.00  0.00    +0.000 A 
ATOM     16  C   UNL     1      -0.407  12.448  22.038  0.00  0.00    +0.000 A 
ATOM     17  C   UNL     1      -1.122  11.402  22.635  0.00  0.00    +0.000 A 
ATOM     18  C   UNL     1      -2.279  11.679  23.376  0.00  0.00    +0.000 A 
ENDBRANCH   9  16
ENDBRANCH   1   9
BRANCH   1  19
ATOM     19  C   UNL     1      -0.645  11.598  18.515  0.00  0.00    +0.000 C 
BRANCH  19  20
ATOM     20  C   UNL     1      -2.151  11.466  18.707  0.00  0.00    +0.000 C 
ATOM     21  O   UNL     1      -2.746  12.105  19.578  0.00  0.00    +0.000 OA
ATOM     22  N   UNL     1      -2.840  10.617  17.850  0.00  0.00    +0.000 N 
ATOM     23  C   UNL     1      -2.284   9.861  16.722  0.00  0.00    +0.000 C 
ATOM     24  C   UNL     1      -2.765  10.464  15.393  0.00  0.00    +0.000 C 
ATOM     25  O   UNL     1      -4.196  10.596  15.358  0.00  0.00    +0.000 OA
ATOM     26  C   UNL     1      -4.681  11.384  16.463  0.00  0.00    +0.000 C 
ATOM     27  C   UNL     1      -4.300  10.723  17.791  0.00  0.00    +0.000 C 
ENDBRANCH  19  20
ENDBRANCH   1  19
TORSDOF 5
ENDMDL
MODEL 2
REMARK VINA RESULT:      -7.1      5.579      9.787
REMARK  Name = 
REMARK  6 active torsions:
REMARK  status: ('A' for Active; 'I' for Inactive)
REMARK    1  A    between atoms: C_1  and  C_2
REMARK    2  A    between atoms: C_5  and  S_6
REMARK    3  A    between atoms: S_6  and  N_9
REMARK    4  A    between atoms: N_9  and  C_10
REMARK    5  A    between atoms: N_9  and  C_19
REMARK    6  A    between atoms: C_10  and  C_11
REMARK                            x       y       z     vdW  Elec       q    Type
REMARK                         _______ _______ _______ _____ _____    ______ ____
ROOT
ATOM      1  N   UNL     1       2.730   6.366  18.639  0.00  0.00    +0.000 N 
ENDROOT
BRANCH   1   2
ATOM      2  C   UNL     1       2.183   7.690  18.827  0.00  0.00    +0.000 A 
ATOM      3  C   UNL     1       2.135   8.538  17.718  0.00  0.00    +0.000 A 
ATOM      4  C   UNL     1       1.570   9.810  17.828  0.00  0.00    +0.000 A 
ATOM      5  C   UNL     1       1.056  10.234  19.052  0.00  0.00    +0.000 A 
ATOM      6 BR   UNL     1       0.233  11.931  19.184  0.00  0.00    +0.000 Br
ATOM      7  C   UNL     1       1.138   9.411  20.175  0.00  0.00    +0.000 A 
ATOM      8  C   UNL     1       1.719   8.143  20.068  0.00  0.00    +0.000 A 
ENDBRANCH   1   2
BRANCH   1   9
ATOM      9  S   UNL     1       4.414   6.352  18.358  0.00  0.00    +0.000 S 
ATOM     10  O   UNL     1       4.988   5.510  19.386  0.00  0.00    +0.000 OA
ATOM     11  O   UNL     1       4.870   7.719  18.187  0.00  0.00    +0.000 OA
BRANCH   9  16
ATOM     12  C   UNL     1       6.504   3.682  13.340  0.00  0.00    +0.000 C 
ATOM     13  C   UNL     1       5.762   4.316  14.484  0.00  0.00    +0.000 A 
ATOM     14  C   UNL     1       5.545   5.700  14.512  0.00  0.00    +0.000 A 
ATOM     15  C   UNL     1       5.027   6.322  15.658  0.00  0.00    +0.000 A 
ATOM     16  C   UNL     1       4.705   5.555  16.780  0.00  0.00    +0.000 A 
ATOM     17  C   UNL     1       4.864   4.164  16.742  0.00  0.00    +0.000 A 
ATOM     18  C   UNL     1       5.397   3.551  15.599  0.00  0.00    +0.000 A 
ENDBRANCH   9  16
ENDBRANCH   1   9
BRANCH   1  19
ATOM     19  C   UNL     1       2.186   5.334  19.566  0.00  0.00    +0.000 C 
BRANCH  19  20
ATOM     20  C   UNL     1       1.846   4.054  18.811  0.00  0.00    +0.000 C 
ATOM     21  O   UNL     1       1.250   4.084  17.732  0.00  0.00    +0.000 OA
ATOM     22  N   UNL     1       2.251   2.848  19.368  0.00  0.00    +0.000 N 
ATOM     23  C   UNL     1       3.035   2.661  20.594  0.00  0.00    +0.000 C 
ATOM     24  C   UNL     1       4.454   2.184  20.248  0.00  0.00    +0.000 C 
ATOM     25  O   UNL     1       4.430   1.031  19.389  0.00  0.00    +0.000 OA
ATOM     26  C   UNL     1       3.685   1.286  18.183  0.00  0.00    +0.000 C 
ATOM     27  C   UNL     1       2.237   1.652  18.522  0.00  0.00    +0.000 C 
ENDBRANCH  19  20
ENDBRANCH   1  19
TORSDOF 5
ENDMDL
MODEL 3
REMARK VINA RESULT:      -6.9      0.690      1.470
REMARK  Name = 
REMARK  6 active torsions:
REMARK  status: ('A' for Active; 'I' for Inactive)
REMARK    1  A    between atoms: C_1  and  C_2
REMARK    2  A    between atoms: C_5  and  S_6
REMARK    3  A    between atoms: S_6  and  N_9
REMARK    4  A    between atoms: N_9  and  C_10
REMARK    5  A    between atoms: N_9  and  C_19
REMARK    6  A    between atoms: C_10  and  C_11
REMARK                            x       y       z     vdW  Elec       q    Type
REMARK                         _______ _______ _______ _____ _____    ______ ____
ROOT
ATOM      1  N   UNL     1       0.014  10.738  19.987  0.00  0.00    +0.000 N 
ENDROOT
BRANCH   1   2
ATOM      2  C   UNL     1       0.842   9.664  19.489  0.00  0.00    +0.000 A 
ATOM      3  C   UNL     1       1.323   9.764  18.182  0.00  0.00    +0.000 A 
ATOM      4  C   UNL     1       2.169   8.781  17.665  0.00  0.00    +0.000 A 
ATOM      5  C   UNL     1       2.532   7.695  18.460  0.00  0.00    +0.000 A 
ATOM      6 BR   UNL     1       3.730   6.398  17.783  0.00  0.00    +0.000 Br
ATOM      7  C   UNL     1       2.023   7.564  19.752  0.00  0.00    +0.000 A 
ATOM      8  C   UNL     1       1.161   8.541  20.263  0.00  0.00    +0.000 A 
ENDBRANCH   1   2
BRANCH   1   9
ATOM      9  S   UNL     1       0.616  11.468  21.407  0.00  0.00    +0.000 S 
ATOM     10  O   UNL     1       1.635  12.404  20.980  0.00  0.00    +0.000 OA
ATOM     11  O   UNL     1       0.930  10.429  22.370  0.00  0.00    +0.000 OA
BRANCH   9  16
ATOM     12  C   UNL     1      -3.260  14.562  24.883  0.00  0.00    +0.000 C 
ATOM     13  C   UNL     1      -2.455  13.844  23.836  0.00  0.00    +0.000 A 
ATOM     14  C   UNL     1      -2.648  12.475  23.605  0.00  0.00    +0.000 A 
ATOM     15  C   UNL     1      -1.776  11.758  22.772  0.00  0.00    +0.000 A 
ATOM     16  C   UNL     1      -0.712  12.415  22.149  0.00  0.00    +0.000 A 
ATOM     17  C   UNL     1      -0.544  13.794  22.329  0.00  0.00    +0.000 A 
ATOM     18  C   UNL     1      -1.410  14.501  23.175  0.00  0.00    +0.000 A 
ENDBRANCH   9  16
ENDBRANCH   1   9
BRANCH   1  19
ATOM     19  C   UNL     1      -0.528  11.642  18.933  0.00  0.00    +0.000 C 
BRANCH  19  20
ATOM     20  C   UNL     1      -2.050  11.690  18.991  0.00  0.00    +0.000 C 
ATOM     21  O   UNL     1      -2.641  12.512  19.695  0.00  0.00    +0.000 OA
ATOM     22  N   UNL     1      -2.755  10.789  18.203  0.00  0.00    +0.000 N 
ATOM     23  C   UNL     1      -2.195   9.816  17.259  0.00  0.00    +0.000 C 
ATOM     24  C   UNL     1      -2.493  10.248  15.814  0.00  0.00    +0.000 C 
ATOM     25  O   UNL     1      -3.893  10.513  15.618  0.00  0.00    +0.000 OA
ATOM     26  C   UNL     1      -4.377  11.506  16.542  0.00  0.00    +0.000 C 
ATOM     27  C   UNL     1      -4.184  11.027  17.985  0.00  0.00    +0.000 C 
ENDBRANCH  19  20
ENDBRANCH   1  19
TORSDOF 5
ENDMDL
MODEL 4
REMARK VINA RESULT:      -6.9      2.118      2.925
REMARK  Name = 
REMARK  6 active torsions:
REMARK  status: ('A' for Active; 'I' for Inactive)
REMARK    1  A    between atoms: C_1  and  C_2
REMARK    2  A    between atoms: C_5  and  S_6
REMARK    3  A    between atoms: S_6  and  N_9
REMARK    4  A    between atoms: N_9  and  C_10
REMARK    5  A    between atoms: N_9  and  C_19
REMARK    6  A    between atoms: C_10  and  C_11
REMARK                            x       y       z     vdW  Elec       q    Type
REMARK                         _______ _______ _______ _____ _____    ______ ____
ROOT
ATOM      1  N   UNL     1       0.308  11.792  19.562  0.00  0.00    +0.000 N 
ENDROOT
BRANCH   1   2
ATOM      2  C   UNL     1       0.836  10.447  19.539  0.00  0.00    +0.000 A 
ATOM      3  C   UNL     1       1.345   9.968  18.330  0.00  0.00    +0.000 A 
ATOM      4  C   UNL     1       1.914   8.695  18.261  0.00  0.00    +0.000 A 
ATOM      5  C   UNL     1       1.970   7.901  19.405  0.00  0.00    +0.000 A 
ATOM      6 BR   UNL     1       2.800   6.203  19.326  0.00  0.00    +0.000 Br
ATOM      7  C   UNL     1       1.426   8.354  20.607  0.00  0.00    +0.000 A 
ATOM      8  C   UNL     1       0.840   9.623  20.672  0.00  0.00    +0.000 A 
ENDBRANCH   1   2
BRANCH   1   9
ATOM      9  S   UNL     1       1.443  12.967  20.056  0.00  0.00    +0.000 S 
ATOM     10  O   UNL     1       2.531  12.904  19.102  0.00  0.00    +0.000 OA
ATOM     11  O   UNL     1       1.699  12.803  21.475  0.00  0.00    +0.000 OA
BRANCH   9  16
ATOM     12  C   UNL     1      -1.882  17.875  18.815  0.00  0.00    +0.000 C 
ATOM     13  C   UNL     1      -0.926  16.807  19.269  0.00  0.00    +0.000 A 
ATOM     14  C   UNL     1       0.239  16.536  18.537  0.00  0.00    +0.000 A 
ATOM     15  C   UNL     1       1.035  15.422  18.842  0.00  0.00    +0.000 A 
ATOM     16  C   UNL     1       0.677  14.579  19.897  0.00  0.00    +0.000 A 
ATOM     17  C   UNL     1      -0.453  14.872  20.670  0.00  0.00    +0.000 A 
ATOM     18  C   UNL     1      -1.253  15.979  20.350  0.00  0.00    +0.000 A 
ENDBRANCH   9  16
ENDBRANCH   1   9
BRANCH   1  19
ATOM     19  C   UNL     1      -0.567  12.134  18.406  0.00  0.00    +0.000 C 
BRANCH  19  20
ATOM     20  C   UNL     1      -2.027  11.831  18.723  0.00  0.00    +0.000 C 
ATOM     21  O   UNL     1      -2.620  12.413  19.634  0.00  0.00    +0.000 OA
ATOM     22  N   UNL     1      -2.678  10.892  17.934  0.00  0.00    +0.000 N 
ATOM     23  C   UNL     1      -2.132  10.184  16.771  0.00  0.00    +0.000 C 
ATOM     24  C   UNL     1      -2.786  10.702  15.481  0.00  0.00    +0.000 C 
ATOM     25  O   UNL     1      -4.221  10.666  15.564  0.00  0.00    +0.000 OA
ATOM     26  C   UNL     1      -4.704  11.412  16.698  0.00  0.00    +0.000 C 
ATOM     27  C   UNL     1      -4.140  10.826  17.996  0.00  0.00    +0.000 C 
ENDBRANCH  19  20
ENDBRANCH   1  19
TORSDOF 5
ENDMDL
MODEL 5
REMARK VINA RESULT:      -6.8      2.375      3.651
REMARK  Name = 
REMARK  6 active torsions:
REMARK  status: ('A' for Active; 'I' for Inactive)
REMARK    1  A    between atoms: C_1  and  C_2
REMARK    2  A    between atoms: C_5  and  S_6
REMARK    3  A    between atoms: S_6  and  N_9
REMARK    4  A    between atoms: N_9  and  C_10
REMARK    5  A    between atoms: N_9  and  C_19
REMARK    6  A    between atoms: C_10  and  C_11
REMARK                            x       y       z     vdW  Elec       q    Type
REMARK                         _______ _______ _______ _____ _____    ______ ____
ROOT
ATOM      1  N   UNL     1      -0.026  11.018  19.858  0.00  0.00    +0.000 N 
ENDROOT
BRANCH   1   2
ATOM      2  C   UNL     1       0.705   9.775  19.761  0.00  0.00    +0.000 A 
ATOM      3  C   UNL     1       1.360   9.497  18.560  0.00  0.00    +0.000 A 
ATOM      4  C   UNL     1       2.123   8.335  18.426  0.00  0.00    +0.000 A 
ATOM      5  C   UNL     1       2.227   7.451  19.498  0.00  0.00    +0.000 A 
ATOM      6 BR   UNL     1       3.314   5.911  19.339  0.00  0.00    +0.000 Br
ATOM      7  C   UNL     1       1.542   7.698  20.687  0.00  0.00    +0.000 A 
ATOM      8  C   UNL     1       0.764   8.854  20.815  0.00  0.00    +0.000 A 
ENDBRANCH   1   2
BRANCH   1   9
ATOM      9  S   UNL     1       0.786  12.224  20.753  0.00  0.00    +0.000 S 
ATOM     10  O   UNL     1       1.950  11.583  21.331  0.00  0.00    +0.000 OA
ATOM     11  O   UNL     1      -0.175  12.904  21.601  0.00  0.00    +0.000 OA
BRANCH   9  16
ATOM     12  C   UNL     1       3.503  16.694  17.701  0.00  0.00    +0.000 C 
ATOM     13  C   UNL     1       2.691  15.557  18.256  0.00  0.00    +0.000 A 
ATOM     14  C   UNL     1       1.522  15.807  18.988  0.00  0.00    +0.000 A 
ATOM     15  C   UNL     1       0.867  14.770  19.668  0.00  0.00    +0.000 A 
ATOM     16  C   UNL     1       1.369  13.468  19.603  0.00  0.00    +0.000 A 
ATOM     17  C   UNL     1       2.503  13.198  18.827  0.00  0.00    +0.000 A 
ATOM     18  C   UNL     1       3.163  14.241  18.163  0.00  0.00    +0.000 A 
ENDBRANCH   9  16
ENDBRANCH   1   9
BRANCH   1  19
ATOM     19  C   UNL     1      -0.698  11.442  18.598  0.00  0.00    +0.000 C 
BRANCH  19  20
ATOM     20  C   UNL     1      -2.214  11.414  18.758  0.00  0.00    +0.000 C 
ATOM     21  O   UNL     1      -2.782  12.096  19.613  0.00  0.00    +0.000 OA
ATOM     22  N   UNL     1      -2.940  10.610  17.888  0.00  0.00    +0.000 N 
ATOM     23  C   UNL     1      -2.414   9.812  16.775  0.00  0.00    +0.000 C 
ATOM     24  C   UNL     1      -2.824  10.440  15.434  0.00  0.00    +0.000 C 
ATOM     25  O   UNL     1      -4.242  10.670  15.368  0.00  0.00    +0.000 OA
ATOM     26  C   UNL     1      -4.695  11.494  16.459  0.00  0.00    +0.000 C 
ATOM     27  C   UNL     1      -4.388  10.815  17.798  0.00  0.00    +0.000 C 
ENDBRANCH  19  20
ENDBRANCH   1  19
TORSDOF 5
ENDMDL
MODEL 6
REMARK VINA RESULT:      -6.8      6.098      9.992
REMARK  Name = 
REMARK  6 active torsions:
REMARK  status: ('A' for Active; 'I' for Inactive)
REMARK    1  A    between atoms: C_1  and  C_2
REMARK    2  A    between atoms: C_5  and  S_6
REMARK    3  A    between atoms: S_6  and  N_9
REMARK    4  A    between atoms: N_9  and  C_10
REMARK    5  A    between atoms: N_9  and  C_19
REMARK    6  A    between atoms: C_10  and  C_11
REMARK                            x       y       z     vdW  Elec       q    Type
REMARK                         _______ _______ _______ _____ _____    ______ ____
ROOT
ATOM      1  N   UNL     1       4.152   5.819  18.547  0.00  0.00    +0.000 N 
ENDROOT
BRANCH   1   2
ATOM      2  C   UNL     1       3.230   6.931  18.594  0.00  0.00    +0.000 A 
ATOM      3  C   UNL     1       2.520   7.138  19.778  0.00  0.00    +0.000 A 
ATOM      4  C   UNL     1       1.653   8.226  19.898  0.00  0.00    +0.000 A 
ATOM      5  C   UNL     1       1.498   9.106  18.828  0.00  0.00    +0.000 A 
ATOM      6 BR   UNL     1       0.374  10.616  19.014  0.00  0.00    +0.000 Br
ATOM      7  C   UNL     1       2.170   8.883  17.626  0.00  0.00    +0.000 A 
ATOM      8  C   UNL     1       3.026   7.783  17.501  0.00  0.00    +0.000 A 
ENDBRANCH   1   2
BRANCH   1   9
ATOM      9  S   UNL     1       5.680   6.221  17.900  0.00  0.00    +0.000 S 
ATOM     10  O   UNL     1       6.654   5.856  18.907  0.00  0.00    +0.000 OA
ATOM     11  O   UNL     1       5.628   7.576  17.385  0.00  0.00    +0.000 OA
BRANCH   9  16
ATOM     12  C   UNL     1       6.340   3.639  12.461  0.00  0.00    +0.000 C 
ATOM     13  C   UNL     1       6.251   4.063  13.901  0.00  0.00    +0.000 A 
ATOM     14  C   UNL     1       5.053   3.918  14.613  0.00  0.00    +0.000 A 
ATOM     15  C   UNL     1       4.905   4.482  15.889  0.00  0.00    +0.000 A 
ATOM     16  C   UNL     1       5.966   5.181  16.468  0.00  0.00    +0.000 A 
ATOM     17  C   UNL     1       7.186   5.283  15.789  0.00  0.00    +0.000 A 
ATOM     18  C   UNL     1       7.322   4.731  14.507  0.00  0.00    +0.000 A 
ENDBRANCH   9  16
ENDBRANCH   1   9
BRANCH   1  19
ATOM     19  C   UNL     1       4.132   4.946  19.754  0.00  0.00    +0.000 C 
BRANCH  19  20
ATOM     20  C   UNL     1       4.091   3.475  19.357  0.00  0.00    +0.000 C 
ATOM     21  O   UNL     1       4.916   2.669  19.794  0.00  0.00    +0.000 OA
ATOM     22  N   UNL     1       3.076   3.064  18.502  0.00  0.00    +0.000 N 
ATOM     23  C   UNL     1       1.983   3.885  17.971  0.00  0.00    +0.000 C 
ATOM     24  C   UNL     1       0.652   3.481  18.625  0.00  0.00    +0.000 C 
ATOM     25  O   UNL     1       0.421   2.065  18.523  0.00  0.00    +0.000 OA
ATOM     26  C   UNL     1       1.504   1.310  19.099  0.00  0.00    +0.000 C 
ATOM     27  C   UNL     1       2.815   1.628  18.372  0.00  0.00    +0.000 C 
ENDBRANCH  19  20
ENDBRANCH   1  19
TORSDOF 5
ENDMDL
MODEL 7
REMARK VINA RESULT:      -6.7      6.227      8.998
REMARK  Name = 
REMARK  6 active torsions:
REMARK  status: ('A' for Active; 'I' for Inactive)
REMARK    1  A    between atoms: C_1  and  C_2
REMARK    2  A    between atoms: C_5  and  S_6
REMARK    3  A    between atoms: S_6  and  N_9
REMARK    4  A    between atoms: N_9  and  C_10
REMARK    5  A    between atoms: N_9  and  C_19
REMARK    6  A    between atoms: C_10  and  C_11
REMARK                            x       y       z     vdW  Elec       q    Type
REMARK                         _______ _______ _______ _____ _____    ______ ____
ROOT
ATOM      1  N   UNL     1       5.464   4.304  17.521  0.00  0.00    +0.000 N 
ENDROOT
BRANCH   1   2
ATOM      2  C   UNL     1       5.930   4.315  16.153  0.00  0.00    +0.000 A 
ATOM      3  C   UNL     1       5.044   3.892  15.160  0.00  0.00    +0.000 A 
ATOM      4  C   UNL     1       5.423   3.929  13.817  0.00  0.00    +0.000 A 
ATOM      5  C   UNL     1       6.692   4.388  13.470  0.00  0.00    +0.000 A 
ATOM      6 BR   UNL     1       7.181   4.499  11.646  0.00  0.00    +0.000 Br
ATOM      7  C   UNL     1       7.599   4.771  14.458  0.00  0.00    +0.000 A 
ATOM      8  C   UNL     1       7.225   4.718  15.805  0.00  0.00    +0.000 A 
ENDBRANCH   1   2
BRANCH   1   9
ATOM      9  S   UNL     1       5.649   5.801  18.321  0.00  0.00    +0.000 S 
ATOM     10  O   UNL     1       6.470   6.623  17.456  0.00  0.00    +0.000 OA
ATOM     11  O   UNL     1       6.050   5.551  19.693  0.00  0.00    +0.000 OA
BRANCH   9  16
ATOM     12  C   UNL     1       0.767   9.276  19.198  0.00  0.00    +0.000 C 
ATOM     13  C   UNL     1       1.823   8.255  18.874  0.00  0.00    +0.000 A 
ATOM     14  C   UNL     1       2.162   7.262  19.804  0.00  0.00    +0.000 A 
ATOM     15  C   UNL     1       3.270   6.429  19.591  0.00  0.00    +0.000 A 
ATOM     16  C   UNL     1       4.036   6.573  18.432  0.00  0.00    +0.000 A 
ATOM     17  C   UNL     1       3.671   7.523  17.470  0.00  0.00    +0.000 A 
ATOM     18  C   UNL     1       2.572   8.364  17.696  0.00  0.00    +0.000 A 
ENDBRANCH   9  16
ENDBRANCH   1   9
BRANCH   1  19
ATOM     19  C   UNL     1       4.184   3.572  17.734  0.00  0.00    +0.000 C 
BRANCH  19  20
ATOM     20  C   UNL     1       4.180   2.871  19.087  0.00  0.00    +0.000 C 
ATOM     21  O   UNL     1       5.225   2.677  19.713  0.00  0.00    +0.000 OA
ATOM     22  N   UNL     1       2.954   2.477  19.608  0.00  0.00    +0.000 N 
ATOM     23  C   UNL     1       1.630   2.713  19.023  0.00  0.00    +0.000 C 
ATOM     24  C   UNL     1       0.864   3.757  19.850  0.00  0.00    +0.000 C 
ATOM     25  O   UNL     1       0.831   3.408  21.245  0.00  0.00    +0.000 OA
ATOM     26  C   UNL     1       2.159   3.232  21.776  0.00  0.00    +0.000 C 
ATOM     27  C   UNL     1       2.886   2.111  21.025  0.00  0.00    +0.000 C 
ENDBRANCH  19  20
ENDBRANCH   1  19
TORSDOF 5
ENDMDL
MODEL 8
REMARK VINA RESULT:      -6.7      2.927      5.857
REMARK  Name = 
REMARK  6 active torsions:
REMARK  status: ('A' for Active; 'I' for Inactive)
REMARK    1  A    between atoms: C_1  and  C_2
REMARK    2  A    between atoms: C_5  and  S_6
REMARK    3  A    between atoms: S_6  and  N_9
REMARK    4  A    between atoms: N_9  and  C_10
REMARK    5  A    between atoms: N_9  and  C_19
REMARK    6  A    between atoms: C_10  and  C_11
REMARK                            x       y       z     vdW  Elec       q    Type
REMARK                         _______ _______ _______ _____ _____    ______ ____
ROOT
ATOM      1  N   UNL     1       0.099  10.220  20.235  0.00  0.00    +0.000 N 
ENDROOT
BRANCH   1   2
ATOM      2  C   UNL     1       0.419  11.575  20.623  0.00  0.00    +0.000 A 
ATOM      3  C   UNL     1      -0.416  12.202  21.550  0.00  0.00    +0.000 A 
ATOM      4  C   UNL     1      -0.126  13.492  21.999  0.00  0.00    +0.000 A 
ATOM      5  C   UNL     1       1.000  14.155  21.516  0.00  0.00    +0.000 A 
ATOM      6 BR   UNL     1       1.428  15.876  22.173  0.00  0.00    +0.000 Br
ATOM      7  C   UNL     1       1.816  13.554  20.557  0.00  0.00    +0.000 A 
ATOM      8  C   UNL     1       1.516  12.268  20.095  0.00  0.00    +0.000 A 
ENDBRANCH   1   2
BRANCH   1   9
ATOM      9  S   UNL     1       0.668   9.041  21.330  0.00  0.00    +0.000 S 
ATOM     10  O   UNL     1      -0.506   8.369  21.847  0.00  0.00    +0.000 OA
ATOM     11  O   UNL     1       1.617   9.662  22.235  0.00  0.00    +0.000 OA
BRANCH   9  16
ATOM     12  C   UNL     1       2.872   4.737  17.682  0.00  0.00    +0.000 C 
ATOM     13  C   UNL     1       2.556   5.828  18.668  0.00  0.00    +0.000 A 
ATOM     14  C   UNL     1       2.159   5.514  19.975  0.00  0.00    +0.000 A 
ATOM     15  C   UNL     1       1.682   6.511  20.838  0.00  0.00    +0.000 A 
ATOM     16  C   UNL     1       1.617   7.837  20.402  0.00  0.00    +0.000 A 
ATOM     17  C   UNL     1       2.065   8.170  19.118  0.00  0.00    +0.000 A 
ATOM     18  C   UNL     1       2.526   7.166  18.255  0.00  0.00    +0.000 A 
ENDBRANCH   9  16
ENDBRANCH   1   9
BRANCH   1  19
ATOM     19  C   UNL     1      -1.278  10.039  19.694  0.00  0.00    +0.000 C 
BRANCH  19  20
ATOM     20  C   UNL     1      -1.314  10.331  18.199  0.00  0.00    +0.000 C 
ATOM     21  O   UNL     1      -0.547   9.766  17.416  0.00  0.00    +0.000 OA
ATOM     22  N   UNL     1      -2.260  11.239  17.740  0.00  0.00    +0.000 N 
ATOM     23  C   UNL     1      -3.287  11.921  18.535  0.00  0.00    +0.000 C 
ATOM     24  C   UNL     1      -4.677  11.359  18.198  0.00  0.00    +0.000 C 
ATOM     25  O   UNL     1      -4.927  11.378  16.782  0.00  0.00    +0.000 OA
ATOM     26  C   UNL     1      -3.912  10.656  16.057  0.00  0.00    +0.000 C 
ATOM     27  C   UNL     1      -2.538  11.287  16.303  0.00  0.00    +0.000 C 
ENDBRANCH  19  20
ENDBRANCH   1  19
TORSDOF 5
ENDMDL
MODEL 9
REMARK VINA RESULT:      -6.7      5.932      8.691
REMARK  Name = 
REMARK  6 active torsions:
REMARK  status: ('A' for Active; 'I' for Inactive)
REMARK    1  A    between atoms: C_1  and  C_2
REMARK    2  A    between atoms: C_5  and  S_6
REMARK    3  A    between atoms: S_6  and  N_9
REMARK    4  A    between atoms: N_9  and  C_10
REMARK    5  A    between atoms: N_9  and  C_19
REMARK    6  A    between atoms: C_10  and  C_11
REMARK                            x       y       z     vdW  Elec       q    Type
REMARK                         _______ _______ _______ _____ _____    ______ ____
ROOT
ATOM      1  N   UNL     1       4.930   5.184  16.895  0.00  0.00    +0.000 N 
ENDROOT
BRANCH   1   2
ATOM      2  C   UNL     1       5.523   4.745  15.653  0.00  0.00    +0.000 A 
ATOM      3  C   UNL     1       4.728   4.003  14.778  0.00  0.00    +0.000 A 
ATOM      4  C   UNL     1       5.232   3.596  13.541  0.00  0.00    +0.000 A 
ATOM      5  C   UNL     1       6.537   3.931  13.184  0.00  0.00    +0.000 A 
ATOM      6 BR   UNL     1       7.198   3.435  11.482  0.00  0.00    +0.000 Br
ATOM      7  C   UNL     1       7.354   4.634  14.069  0.00  0.00    +0.000 A 
ATOM      8  C   UNL     1       6.853   5.027  15.315  0.00  0.00    +0.000 A 
ENDBRANCH   1   2
BRANCH   1   9
ATOM      9  S   UNL     1       4.759   6.878  17.013  0.00  0.00    +0.000 S 
ATOM     10  O   UNL     1       4.459   7.348  15.676  0.00  0.00    +0.000 OA
ATOM     11  O   UNL     1       5.893   7.413  17.743  0.00  0.00    +0.000 OA
BRANCH   9  16
ATOM     12  C   UNL     1       0.628   8.780  21.014  0.00  0.00    +0.000 C 
ATOM     13  C   UNL     1       1.473   8.165  19.932  0.00  0.00    +0.000 A 
ATOM     14  C   UNL     1       2.229   7.013  20.188  0.00  0.00    +0.000 A 
ATOM     15  C   UNL     1       3.162   6.545  19.251  0.00  0.00    +0.000 A 
ATOM     16  C   UNL     1       3.330   7.220  18.040  0.00  0.00    +0.000 A 
ATOM     17  C   UNL     1       2.539   8.339  17.751  0.00  0.00    +0.000 A 
ATOM     18  C   UNL     1       1.620   8.811  18.699  0.00  0.00    +0.000 A 
ENDBRANCH   9  16
ENDBRANCH   1   9
BRANCH   1  19
ATOM     19  C   UNL     1       3.788   4.349  17.366  0.00  0.00    +0.000 C 
BRANCH  19  20
ATOM     20  C   UNL     1       4.152   3.609  18.647  0.00  0.00    +0.000 C 
ATOM     21  O   UNL     1       5.277   3.697  19.143  0.00  0.00    +0.000 OA
ATOM     22  N   UNL     1       3.163   2.846  19.255  0.00  0.00    +0.000 N 
ATOM     23  C   UNL     1       1.765   2.713  18.831  0.00  0.00    +0.000 C 
ATOM     24  C   UNL     1       0.841   3.442  19.819  0.00  0.00    +0.000 C 
ATOM     25  O   UNL     1       1.081   3.026  21.175  0.00  0.00    +0.000 OA
ATOM     26  C   UNL     1       2.459   3.220  21.550  0.00  0.00    +0.000 C 
ATOM     27  C   UNL     1       3.377   2.403  20.635  0.00  0.00    +0.000 C 
ENDBRANCH  19  20
ENDBRANCH   1  19
TORSDOF 5
ENDMDL
