MODEL 1
REMARK VINA RESULT:      -8.0      0.000      0.000
REMARK  Name = 
REMARK  2 active torsions:
REMARK  status: ('A' for Active; 'I' for Inactive)
REMARK    1  A    between atoms: C_2  and  C_3
REMARK    2  A    between atoms: C_6  and  N_7
REMARK                            x       y       z     vdW  Elec       q    Type
REMARK                         _______ _______ _______ _____ _____    ______ ____
ROOT
ATOM      1  N   UNL     1       2.572   8.041  18.217  0.00  0.00    +0.000 N 
ATOM      2  C   UNL     1       2.862   6.700  18.018  0.00  0.00    +0.000 A 
ATOM      3  N   UNL     1       2.112   5.745  18.506  0.00  0.00    +0.000 NA
ATOM      4  C   UNL     1       2.461   4.388  18.376  0.00  0.00    +0.000 A 
ATOM      5  C   UNL     1       1.638   3.433  18.966  0.00  0.00    +0.000 A 
ATOM      6  C   UNL     1       1.980   2.081  18.909  0.00  0.00    +0.000 A 
ATOM      7  C   UNL     1       3.149   1.677  18.256  0.00  0.00    +0.000 A 
ATOM      8  C   UNL     1       3.983   2.617  17.650  0.00  0.00    +0.000 A 
ATOM      9  C   UNL     1       3.622   3.960  17.720  0.00  0.00    +0.000 A 
ATOM     10  N   UNL     1       4.381   4.988  17.167  0.00  0.00    +0.000 N 
ATOM     11  N   UNL     1       5.531   4.888  16.483  0.00  0.00    +0.000 NA
ATOM     12  N   UNL     1       5.865   6.143  16.189  0.00  0.00    +0.000 NA
ATOM     13  N   UNL     1       4.939   7.042  16.690  0.00  0.00    +0.000 NA
ATOM     14  C   UNL     1       4.035   6.298  17.284  0.00  0.00    +0.000 A 
ATOM     15  H   UNL     1       3.262   8.681  17.838  0.00  0.00    +0.000 HD
ENDROOT
BRANCH   1  19
ATOM     16  C   UNL     1       0.303   9.804  21.337  0.00  0.00    +0.000 A 
ATOM     17  C   UNL     1       0.329  10.366  20.060  0.00  0.00    +0.000 A 
ATOM     18  C   UNL     1       1.063   9.756  19.034  0.00  0.00    +0.000 A 
ATOM     19  C   UNL     1       1.794   8.579  19.265  0.00  0.00    +0.000 A 
ATOM     20  C   UNL     1       1.719   8.015  20.546  0.00  0.00    +0.000 A 
ATOM     21  C   UNL     1       0.997   8.622  21.578  0.00  0.00    +0.000 A 
BRANCH  16  23
ATOM     22  N   UNL     1      -1.029  10.930  23.253  0.00  0.00    +0.000 NA
ATOM     23  C   UNL     1      -0.434  10.429  22.394  0.00  0.00    +0.000 C 
ENDBRANCH  16  23
ENDBRANCH   1  19
TORSDOF 2
ENDMDL
MODEL 2
REMARK VINA RESULT:      -8.0      2.164      3.471
REMARK  Name = 
REMARK  2 active torsions:
REMARK  status: ('A' for Active; 'I' for Inactive)
REMARK    1  A    between atoms: C_2  and  C_3
REMARK    2  A    between atoms: C_6  and  N_7
REMARK                            x       y       z     vdW  Elec       q    Type
REMARK                         _______ _______ _______ _____ _____    ______ ____
ROOT
ATOM      1  N   UNL     1       2.490   6.701  20.065  0.00  0.00    +0.000 N 
ATOM      2  C   UNL     1       3.248   5.939  19.188  0.00  0.00    +0.000 A 
ATOM      3  N   UNL     1       3.835   6.460  18.141  0.00  0.00    +0.000 NA
ATOM      4  C   UNL     1       4.527   5.666  17.208  0.00  0.00    +0.000 A 
ATOM      5  C   UNL     1       5.082   6.287  16.093  0.00  0.00    +0.000 A 
ATOM      6  C   UNL     1       5.727   5.528  15.116  0.00  0.00    +0.000 A 
ATOM      7  C   UNL     1       5.822   4.139  15.251  0.00  0.00    +0.000 A 
ATOM      8  C   UNL     1       5.281   3.498  16.367  0.00  0.00    +0.000 A 
ATOM      9  C   UNL     1       4.642   4.275  17.329  0.00  0.00    +0.000 A 
ATOM     10  N   UNL     1       4.052   3.748  18.473  0.00  0.00    +0.000 N 
ATOM     11  N   UNL     1       4.003   2.463  18.858  0.00  0.00    +0.000 NA
ATOM     12  N   UNL     1       3.319   2.474  20.001  0.00  0.00    +0.000 NA
ATOM     13  N   UNL     1       2.923   3.756  20.339  0.00  0.00    +0.000 NA
ATOM     14  C   UNL     1       3.393   4.518  19.380  0.00  0.00    +0.000 A 
ATOM     15  H   UNL     1       2.040   6.169  20.803  0.00  0.00    +0.000 HD
ENDROOT
BRANCH   1  19
ATOM     16  C   UNL     1       0.481  10.349  19.261  0.00  0.00    +0.000 A 
ATOM     17  C   UNL     1       0.488   9.798  20.543  0.00  0.00    +0.000 A 
ATOM     18  C   UNL     1       1.178   8.606  20.797  0.00  0.00    +0.000 A 
ATOM     19  C   UNL     1       1.867   7.934  19.774  0.00  0.00    +0.000 A 
ATOM     20  C   UNL     1       1.876   8.529  18.505  0.00  0.00    +0.000 A 
ATOM     21  C   UNL     1       1.182   9.713  18.240  0.00  0.00    +0.000 A 
BRANCH  16  23
ATOM     22  N   UNL     1      -0.812  12.538  18.766  0.00  0.00    +0.000 NA
ATOM     23  C   UNL     1      -0.234  11.560  18.991  0.00  0.00    +0.000 C 
ENDBRANCH  16  23
ENDBRANCH   1  19
TORSDOF 2
ENDMDL
MODEL 3
REMARK VINA RESULT:      -7.9      2.877      7.433
REMARK  Name = 
REMARK  2 active torsions:
REMARK  status: ('A' for Active; 'I' for Inactive)
REMARK    1  A    between atoms: C_2  and  C_3
REMARK    2  A    between atoms: C_6  and  N_7
REMARK                            x       y       z     vdW  Elec       q    Type
REMARK                         _______ _______ _______ _____ _____    ______ ____
ROOT
ATOM      1  N   UNL     1       4.276   3.535  17.442  0.00  0.00    +0.000 N 
ATOM      2  C   UNL     1       3.531   4.367  18.264  0.00  0.00    +0.000 A 
ATOM      3  N   UNL     1       3.231   5.595  17.926  0.00  0.00    +0.000 NA
ATOM      4  C   UNL     1       2.552   6.461  18.803  0.00  0.00    +0.000 A 
ATOM      5  C   UNL     1       2.313   7.768  18.389  0.00  0.00    +0.000 A 
ATOM      6  C   UNL     1       1.694   8.674  19.251  0.00  0.00    +0.000 A 
ATOM      7  C   UNL     1       1.307   8.275  20.534  0.00  0.00    +0.000 A 
ATOM      8  C   UNL     1       1.529   6.966  20.965  0.00  0.00    +0.000 A 
ATOM      9  C   UNL     1       2.148   6.079  20.088  0.00  0.00    +0.000 A 
ATOM     10  N   UNL     1       2.435   4.756  20.411  0.00  0.00    +0.000 N 
ATOM     11  N   UNL     1       2.169   4.111  21.557  0.00  0.00    +0.000 NA
ATOM     12  N   UNL     1       2.653   2.883  21.379  0.00  0.00    +0.000 NA
ATOM     13  N   UNL     1       3.235   2.746  20.131  0.00  0.00    +0.000 NA
ATOM     14  C   UNL     1       3.081   3.918  19.557  0.00  0.00    +0.000 A 
ATOM     15  H   UNL     1       4.491   2.629  17.844  0.00  0.00    +0.000 HD
ENDROOT
BRANCH   1  19
ATOM     16  C   UNL     1       6.969   4.916  14.470  0.00  0.00    +0.000 A 
ATOM     17  C   UNL     1       7.282   5.014  15.827  0.00  0.00    +0.000 A 
ATOM     18  C   UNL     1       6.392   4.530  16.794  0.00  0.00    +0.000 A 
ATOM     19  C   UNL     1       5.168   3.947  16.428  0.00  0.00    +0.000 A 
ATOM     20  C   UNL     1       4.897   3.826  15.058  0.00  0.00    +0.000 A 
ATOM     21  C   UNL     1       5.774   4.316  14.086  0.00  0.00    +0.000 A 
BRANCH  16  23
ATOM     22  N   UNL     1       8.590   5.831  12.668  0.00  0.00    +0.000 NA
ATOM     23  C   UNL     1       7.868   5.422  13.476  0.00  0.00    +0.000 C 
ENDBRANCH  16  23
ENDBRANCH   1  19
TORSDOF 2
ENDMDL
MODEL 4
REMARK VINA RESULT:      -7.8      0.253      1.054
REMARK  Name = 
REMARK  2 active torsions:
REMARK  status: ('A' for Active; 'I' for Inactive)
REMARK    1  A    between atoms: C_2  and  C_3
REMARK    2  A    between atoms: C_6  and  N_7
REMARK                            x       y       z     vdW  Elec       q    Type
REMARK                         _______ _______ _______ _____ _____    ______ ____
ROOT
ATOM      1  N   UNL     1       2.549   7.963  18.204  0.00  0.00    +0.000 N 
ATOM      2  C   UNL     1       2.774   6.602  18.061  0.00  0.00    +0.000 A 
ATOM      3  N   UNL     1       1.998   5.705  18.614  0.00  0.00    +0.000 NA
ATOM      4  C   UNL     1       2.283   4.330  18.540  0.00  0.00    +0.000 A 
ATOM      5  C   UNL     1       1.436   3.441  19.196  0.00  0.00    +0.000 A 
ATOM      6  C   UNL     1       1.717   2.074  19.195  0.00  0.00    +0.000 A 
ATOM      7  C   UNL     1       2.849   1.587  18.533  0.00  0.00    +0.000 A 
ATOM      8  C   UNL     1       3.705   2.460  17.860  0.00  0.00    +0.000 A 
ATOM      9  C   UNL     1       3.406   3.820  17.875  0.00  0.00    +0.000 A 
ATOM     10  N   UNL     1       4.193   4.785  17.254  0.00  0.00    +0.000 N 
ATOM     11  N   UNL     1       5.318   4.602  16.546  0.00  0.00    +0.000 NA
ATOM     12  N   UNL     1       5.698   5.825  16.183  0.00  0.00    +0.000 NA
ATOM     13  N   UNL     1       4.827   6.787  16.664  0.00  0.00    +0.000 NA
ATOM     14  C   UNL     1       3.908   6.114  17.317  0.00  0.00    +0.000 A 
ATOM     15  H   UNL     1       3.256   8.553  17.776  0.00  0.00    +0.000 HD
ENDROOT
BRANCH   1  19
ATOM     16  C   UNL     1       0.308   9.684  21.366  0.00  0.00    +0.000 A 
ATOM     17  C   UNL     1       1.078   8.538  21.570  0.00  0.00    +0.000 A 
ATOM     18  C   UNL     1       1.832   7.997  20.521  0.00  0.00    +0.000 A 
ATOM     19  C   UNL     1       1.826   8.584  19.244  0.00  0.00    +0.000 A 
ATOM     20  C   UNL     1       1.075   9.755  19.078  0.00  0.00    +0.000 A 
ATOM     21  C   UNL     1       0.311  10.296  20.116  0.00  0.00    +0.000 A 
BRANCH  16  23
ATOM     22  N   UNL     1      -1.108  10.676  23.295  0.00  0.00    +0.000 NA
ATOM     23  C   UNL     1      -0.477  10.234  22.430  0.00  0.00    +0.000 C 
ENDBRANCH  16  23
ENDBRANCH   1  19
TORSDOF 2
ENDMDL
MODEL 5
REMARK VINA RESULT:      -7.8      2.219      3.451
REMARK  Name = 
REMARK  2 active torsions:
REMARK  status: ('A' for Active; 'I' for Inactive)
REMARK    1  A    between atoms: C_2  and  C_3
REMARK    2  A    between atoms: C_6  and  N_7
REMARK                            x       y       z     vdW  Elec       q    Type
REMARK                         _______ _______ _______ _____ _____    ______ ____
ROOT
ATOM      1  N   UNL     1       2.547   6.671  20.034  0.00  0.00    +0.000 N 
ATOM      2  C   UNL     1       3.301   5.915  19.149  0.00  0.00    +0.000 A 
ATOM      3  N   UNL     1       3.868   6.439  18.093  0.00  0.00    +0.000 NA
ATOM      4  C   UNL     1       4.556   5.650  17.152  0.00  0.00    +0.000 A 
ATOM      5  C   UNL     1       5.090   6.274  16.029  0.00  0.00    +0.000 A 
ATOM      6  C   UNL     1       5.730   5.519  15.045  0.00  0.00    +0.000 A 
ATOM      7  C   UNL     1       5.841   4.132  15.182  0.00  0.00    +0.000 A 
ATOM      8  C   UNL     1       5.322   3.488  16.306  0.00  0.00    +0.000 A 
ATOM      9  C   UNL     1       4.688   4.261  17.275  0.00  0.00    +0.000 A 
ATOM     10  N   UNL     1       4.119   3.730  18.428  0.00  0.00    +0.000 N 
ATOM     11  N   UNL     1       4.088   2.446  18.817  0.00  0.00    +0.000 NA
ATOM     12  N   UNL     1       3.419   2.452  19.968  0.00  0.00    +0.000 NA
ATOM     13  N   UNL     1       3.015   3.731  20.310  0.00  0.00    +0.000 NA
ATOM     14  C   UNL     1       3.464   4.496  19.342  0.00  0.00    +0.000 A 
ATOM     15  H   UNL     1       2.112   6.136  20.780  0.00  0.00    +0.000 HD
ENDROOT
BRANCH   1  19
ATOM     16  C   UNL     1       0.763  10.406  19.109  0.00  0.00    +0.000 A 
ATOM     17  C   UNL     1       1.447   9.674  18.137  0.00  0.00    +0.000 A 
ATOM     18  C   UNL     1       2.008   8.430  18.453  0.00  0.00    +0.000 A 
ATOM     19  C   UNL     1       1.907   7.896  19.748  0.00  0.00    +0.000 A 
ATOM     20  C   UNL     1       1.182   8.634  20.694  0.00  0.00    +0.000 A 
ATOM     21  C   UNL     1       0.627   9.880  20.390  0.00  0.00    +0.000 A 
BRANCH  16  23
ATOM     22  N   UNL     1      -0.255  12.721  18.549  0.00  0.00    +0.000 NA
ATOM     23  C   UNL     1       0.198  11.684  18.796  0.00  0.00    +0.000 C 
ENDBRANCH  16  23
ENDBRANCH   1  19
TORSDOF 2
ENDMDL
MODEL 6
REMARK VINA RESULT:      -7.7      0.942      1.028
REMARK  Name = 
REMARK  2 active torsions:
REMARK  status: ('A' for Active; 'I' for Inactive)
REMARK    1  A    between atoms: C_2  and  C_3
REMARK    2  A    between atoms: C_6  and  N_7
REMARK                            x       y       z     vdW  Elec       q    Type
REMARK                         _______ _______ _______ _____ _____    ______ ____
ROOT
ATOM      1  N   UNL     1       2.976   7.939  17.832  0.00  0.00    +0.000 N 
ATOM      2  C   UNL     1       3.111   6.559  17.819  0.00  0.00    +0.000 A 
ATOM      3  N   UNL     1       2.122   5.759  18.125  0.00  0.00    +0.000 NA
ATOM      4  C   UNL     1       2.291   4.365  18.197  0.00  0.00    +0.000 A 
ATOM      5  C   UNL     1       1.203   3.585  18.578  0.00  0.00    +0.000 A 
ATOM      6  C   UNL     1       1.344   2.203  18.717  0.00  0.00    +0.000 A 
ATOM      7  C   UNL     1       2.579   1.593  18.472  0.00  0.00    +0.000 A 
ATOM      8  C   UNL     1       3.680   2.356  18.079  0.00  0.00    +0.000 A 
ATOM      9  C   UNL     1       3.515   3.732  17.947  0.00  0.00    +0.000 A 
ATOM     10  N   UNL     1       4.542   4.595  17.578  0.00  0.00    +0.000 N 
ATOM     11  N   UNL     1       5.813   4.284  17.277  0.00  0.00    +0.000 NA
ATOM     12  N   UNL     1       6.397   5.451  17.010  0.00  0.00    +0.000 NA
ATOM     13  N   UNL     1       5.509   6.504  17.151  0.00  0.00    +0.000 NA
ATOM     14  C   UNL     1       4.374   5.942  17.498  0.00  0.00    +0.000 A 
ATOM     15  H   UNL     1       3.833   8.447  17.633  0.00  0.00    +0.000 HD
ENDROOT
BRANCH   1  19
ATOM     16  C   UNL     1       0.157  10.292  19.955  0.00  0.00    +0.000 A 
ATOM     17  C   UNL     1       0.303  10.416  18.573  0.00  0.00    +0.000 A 
ATOM     18  C   UNL     1       1.221   9.613  17.884  0.00  0.00    +0.000 A 
ATOM     19  C   UNL     1       2.019   8.677  18.562  0.00  0.00    +0.000 A 
ATOM     20  C   UNL     1       1.825   8.545  19.943  0.00  0.00    +0.000 A 
ATOM     21  C   UNL     1       0.919   9.349  20.640  0.00  0.00    +0.000 A 
BRANCH  16  23
ATOM     22  N   UNL     1      -1.520  11.790  21.239  0.00  0.00    +0.000 NA
ATOM     23  C   UNL     1      -0.769  11.119  20.668  0.00  0.00    +0.000 C 
ENDBRANCH  16  23
ENDBRANCH   1  19
TORSDOF 2
ENDMDL
MODEL 7
REMARK VINA RESULT:      -7.6      1.977      3.408
REMARK  Name = 
REMARK  2 active torsions:
REMARK  status: ('A' for Active; 'I' for Inactive)
REMARK    1  A    between atoms: C_2  and  C_3
REMARK    2  A    between atoms: C_6  and  N_7
REMARK                            x       y       z     vdW  Elec       q    Type
REMARK                         _______ _______ _______ _____ _____    ______ ____
ROOT
ATOM      1  N   UNL     1       1.888   6.768  20.693  0.00  0.00    +0.000 N 
ATOM      2  C   UNL     1       2.604   6.063  19.737  0.00  0.00    +0.000 A 
ATOM      3  N   UNL     1       3.345   6.661  18.840  0.00  0.00    +0.000 NA
ATOM      4  C   UNL     1       3.997   5.944  17.819  0.00  0.00    +0.000 A 
ATOM      5  C   UNL     1       4.727   6.657  16.872  0.00  0.00    +0.000 A 
ATOM      6  C   UNL     1       5.340   5.988  15.812  0.00  0.00    +0.000 A 
ATOM      7  C   UNL     1       5.228   4.599  15.695  0.00  0.00    +0.000 A 
ATOM      8  C   UNL     1       4.509   3.865  16.640  0.00  0.00    +0.000 A 
ATOM      9  C   UNL     1       3.906   4.553  17.689  0.00  0.00    +0.000 A 
ATOM     10  N   UNL     1       3.152   3.931  18.680  0.00  0.00    +0.000 N 
ATOM     11  N   UNL     1       2.891   2.622  18.819  0.00  0.00    +0.000 NA
ATOM     12  N   UNL     1       2.120   2.540  19.901  0.00  0.00    +0.000 NA
ATOM     13  N   UNL     1       1.879   3.789  20.446  0.00  0.00    +0.000 NA
ATOM     14  C   UNL     1       2.532   4.625  19.672  0.00  0.00    +0.000 A 
ATOM     15  H   UNL     1       1.306   6.192  21.293  0.00  0.00    +0.000 HD
ENDROOT
BRANCH   1  19
ATOM     16  C   UNL     1       0.503  10.773  20.496  0.00  0.00    +0.000 A 
ATOM     17  C   UNL     1       0.633  10.115  21.721  0.00  0.00    +0.000 A 
ATOM     18  C   UNL     1       1.117   8.801  21.769  0.00  0.00    +0.000 A 
ATOM     19  C   UNL     1       1.470   8.113  20.596  0.00  0.00    +0.000 A 
ATOM     20  C   UNL     1       1.365   8.810  19.385  0.00  0.00    +0.000 A 
ATOM     21  C   UNL     1       0.875  10.118  19.326  0.00  0.00    +0.000 A 
BRANCH  16  23
ATOM     22  N   UNL     1      -0.416  13.192  20.385  0.00  0.00    +0.000 NA
ATOM     23  C   UNL     1      -0.004  12.111  20.438  0.00  0.00    +0.000 C 
ENDBRANCH  16  23
ENDBRANCH   1  19
TORSDOF 2
ENDMDL
MODEL 8
REMARK VINA RESULT:      -7.6      1.729      2.200
REMARK  Name = 
REMARK  2 active torsions:
REMARK  status: ('A' for Active; 'I' for Inactive)
REMARK    1  A    between atoms: C_2  and  C_3
REMARK    2  A    between atoms: C_6  and  N_7
REMARK                            x       y       z     vdW  Elec       q    Type
REMARK                         _______ _______ _______ _____ _____    ______ ____
ROOT
ATOM      1  N   UNL     1       2.745   7.578  18.188  0.00  0.00    +0.000 N 
ATOM      2  C   UNL     1       2.938   6.312  18.721  0.00  0.00    +0.000 A 
ATOM      3  N   UNL     1       2.019   5.708  19.431  0.00  0.00    +0.000 NA
ATOM      4  C   UNL     1       2.254   4.464  20.044  0.00  0.00    +0.000 A 
ATOM      5  C   UNL     1       1.244   3.909  20.824  0.00  0.00    +0.000 A 
ATOM      6  C   UNL     1       1.458   2.704  21.495  0.00  0.00    +0.000 A 
ATOM      7  C   UNL     1       2.687   2.045  21.386  0.00  0.00    +0.000 A 
ATOM      8  C   UNL     1       3.709   2.580  20.600  0.00  0.00    +0.000 A 
ATOM      9  C   UNL     1       3.473   3.783  19.940  0.00  0.00    +0.000 A 
ATOM     10  N   UNL     1       4.420   4.418  19.143  0.00  0.00    +0.000 N 
ATOM     11  N   UNL     1       5.667   4.010  18.857  0.00  0.00    +0.000 NA
ATOM     12  N   UNL     1       6.170   4.966  18.079  0.00  0.00    +0.000 NA
ATOM     13  N   UNL     1       5.256   5.985  17.876  0.00  0.00    +0.000 NA
ATOM     14  C   UNL     1       4.187   5.616  18.542  0.00  0.00    +0.000 A 
ATOM     15  H   UNL     1       3.555   7.959  17.708  0.00  0.00    +0.000 HD
ENDROOT
BRANCH   1  19
ATOM     16  C   UNL     1      -0.071  10.382  19.670  0.00  0.00    +0.000 A 
ATOM     17  C   UNL     1       0.570   9.484  20.525  0.00  0.00    +0.000 A 
ATOM     18  C   UNL     1       1.517   8.582  20.022  0.00  0.00    +0.000 A 
ATOM     19  C   UNL     1       1.835   8.550  18.655  0.00  0.00    +0.000 A 
ATOM     20  C   UNL     1       1.206   9.488  17.825  0.00  0.00    +0.000 A 
ATOM     21  C   UNL     1       0.253  10.385  18.316  0.00  0.00    +0.000 A 
BRANCH  16  23
ATOM     22  N   UNL     1      -1.842  12.034  20.587  0.00  0.00    +0.000 NA
ATOM     23  C   UNL     1      -1.050  11.297  20.174  0.00  0.00    +0.000 C 
ENDBRANCH  16  23
ENDBRANCH   1  19
TORSDOF 2
ENDMDL
MODEL 9
REMARK VINA RESULT:      -7.6      1.776      2.015
REMARK  Name = 
REMARK  2 active torsions:
REMARK  status: ('A' for Active; 'I' for Inactive)
REMARK    1  A    between atoms: C_2  and  C_3
REMARK    2  A    between atoms: C_6  and  N_7
REMARK                            x       y       z     vdW  Elec       q    Type
REMARK                         _______ _______ _______ _____ _____    ______ ____
ROOT
ATOM      1  N   UNL     1       2.692   7.672  18.334  0.00  0.00    +0.000 N 
ATOM      2  C   UNL     1       2.913   6.396  18.830  0.00  0.00    +0.000 A 
ATOM      3  N   UNL     1       1.998   5.739  19.496  0.00  0.00    +0.000 NA
ATOM      4  C   UNL     1       2.259   4.483  20.073  0.00  0.00    +0.000 A 
ATOM      5  C   UNL     1       1.249   3.869  20.808  0.00  0.00    +0.000 A 
ATOM      6  C   UNL     1       1.487   2.650  21.444  0.00  0.00    +0.000 A 
ATOM      7  C   UNL     1       2.740   2.036  21.346  0.00  0.00    +0.000 A 
ATOM      8  C   UNL     1       3.763   2.630  20.605  0.00  0.00    +0.000 A 
ATOM      9  C   UNL     1       3.503   3.846  19.979  0.00  0.00    +0.000 A 
ATOM     10  N   UNL     1       4.447   4.539  19.228  0.00  0.00    +0.000 N 
ATOM     11  N   UNL     1       5.714   4.181  18.962  0.00  0.00    +0.000 NA
ATOM     12  N   UNL     1       6.204   5.179  18.229  0.00  0.00    +0.000 NA
ATOM     13  N   UNL     1       5.262   6.174  18.036  0.00  0.00    +0.000 NA
ATOM     14  C   UNL     1       4.189   5.748  18.661  0.00  0.00    +0.000 A 
ATOM     15  H   UNL     1       3.500   8.096  17.888  0.00  0.00    +0.000 HD
ENDROOT
BRANCH   1  19
ATOM     16  C   UNL     1      -0.102  10.569  19.670  0.00  0.00    +0.000 A 
ATOM     17  C   UNL     1       0.156  10.392  18.310  0.00  0.00    +0.000 A 
ATOM     18  C   UNL     1       1.063   9.413  17.885  0.00  0.00    +0.000 A 
ATOM     19  C   UNL     1       1.738   8.598  18.809  0.00  0.00    +0.000 A 
ATOM     20  C   UNL     1       1.430   8.770  20.165  0.00  0.00    +0.000 A 
ATOM     21  C   UNL     1       0.534   9.751  20.599  0.00  0.00    +0.000 A 
BRANCH  16  23
ATOM     22  N   UNL     1      -1.760  12.389  20.477  0.00  0.00    +0.000 NA
ATOM     23  C   UNL     1      -1.018  11.577  20.113  0.00  0.00    +0.000 C 
ENDBRANCH  16  23
ENDBRANCH   1  19
TORSDOF 2
ENDMDL
