MODEL 1
REMARK VINA RESULT:      -8.0      0.000      0.000
REMARK  Name = 
REMARK  3 active torsions:
REMARK  status: ('A' for Active; 'I' for Inactive)
REMARK    1  A    between atoms: C_1  and  N_2
REMARK    2  A    between atoms: N_5  and  C_6
REMARK    3  A    between atoms: N_9  and  C_10
REMARK                            x       y       z     vdW  Elec       q    Type
REMARK                         _______ _______ _______ _____ _____    ______ ____
ROOT
ATOM      1  C   UNL     1       7.061   4.967  17.032  0.00  0.00    +0.000 C 
ATOM      2  C   UNL     1       6.428   4.274  15.837  0.00  0.00    +0.000 C 
ATOM      3  C   UNL     1       4.933   4.492  16.032  0.00  0.00    +0.000 C 
ATOM      4  N   UNL     1       4.736   4.572  17.484  0.00  0.00    +0.000 N 
ATOM      5  C   UNL     1       6.048   4.694  18.166  0.00  0.00    +0.000 C 
ENDROOT
BRANCH   4   6
ATOM      6  C   UNL     1       3.792   3.769  18.118  0.00  0.00    +0.000 A 
ATOM      7  C   UNL     1       3.634   2.396  17.855  0.00  0.00    +0.000 A 
ATOM      8  C   UNL     1       2.602   1.628  18.439  0.00  0.00    +0.000 A 
ATOM      9  C   UNL     1       1.695   2.217  19.313  0.00  0.00    +0.000 A 
ATOM     10  C   UNL     1       1.875   3.550  19.605  0.00  0.00    +0.000 A 
ATOM     11  C   UNL     1       2.899   4.306  19.044  0.00  0.00    +0.000 A 
ATOM     12  C   UNL     1       2.738   5.712  19.495  0.00  0.00    +0.000 C 
ATOM     13  C   UNL     1       1.739   5.504  20.631  0.00  0.00    +0.000 C 
ATOM     14  O   UNL     1       1.039   4.258  20.430  0.00  0.00    +0.000 OA
ENDBRANCH   4   6
BRANCH   1  19
ATOM     15  C   UNL     1       8.537   9.461  18.207  0.00  0.00    +0.000 C 
ATOM     16  N   UNL     1       7.882   8.500  17.351  0.00  0.00    +0.000 N 
ATOM     17  C   UNL     1       7.756   7.201  17.773  0.00  0.00    +0.000 C 
ATOM     18  O   UNL     1       8.064   6.804  18.889  0.00  0.00    +0.000 OA
ATOM     19  N   UNL     1       7.273   6.393  16.774  0.00  0.00    +0.000 N 
ATOM     20  H   UNL     1       8.015   8.610  16.358  0.00  0.00    +0.000 HD
ATOM     21  H   UNL     1       6.614   6.843  16.152  0.00  0.00    +0.000 HD
ENDBRANCH   1  19
TORSDOF 2
ENDMDL
MODEL 2
REMARK VINA RESULT:      -6.9      1.312      2.380
REMARK  Name = 
REMARK  3 active torsions:
REMARK  status: ('A' for Active; 'I' for Inactive)
REMARK    1  A    between atoms: C_1  and  N_2
REMARK    2  A    between atoms: N_5  and  C_6
REMARK    3  A    between atoms: N_9  and  C_10
REMARK                            x       y       z     vdW  Elec       q    Type
REMARK                         _______ _______ _______ _____ _____    ______ ____
ROOT
ATOM      1  C   UNL     1       6.564   6.266  17.259  0.00  0.00    +0.000 C 
ATOM      2  C   UNL     1       5.593   5.904  16.147  0.00  0.00    +0.000 C 
ATOM      3  C   UNL     1       4.232   6.304  16.699  0.00  0.00    +0.000 C 
ATOM      4  N   UNL     1       4.338   6.149  18.155  0.00  0.00    +0.000 N 
ATOM      5  C   UNL     1       5.758   5.948  18.537  0.00  0.00    +0.000 C 
ENDROOT
BRANCH   4   6
ATOM      6  C   UNL     1       3.405   5.394  18.860  0.00  0.00    +0.000 A 
ATOM      7  C   UNL     1       2.550   5.930  19.841  0.00  0.00    +0.000 A 
ATOM      8  C   UNL     1       1.684   5.123  20.612  0.00  0.00    +0.000 A 
ATOM      9  C   UNL     1       1.647   3.746  20.417  0.00  0.00    +0.000 A 
ATOM     10  C   UNL     1       2.450   3.227  19.428  0.00  0.00    +0.000 A 
ATOM     11  C   UNL     1       3.293   4.020  18.656  0.00  0.00    +0.000 A 
ATOM     12  C   UNL     1       4.080   3.130  17.765  0.00  0.00    +0.000 C 
ATOM     13  C   UNL     1       3.277   1.840  17.917  0.00  0.00    +0.000 C 
ATOM     14  O   UNL     1       2.528   1.886  19.150  0.00  0.00    +0.000 OA
ENDBRANCH   4   6
BRANCH   1  19
ATOM     15  C   UNL     1       9.289  10.114  18.492  0.00  0.00    +0.000 C 
ATOM     16  N   UNL     1       8.191   9.478  17.803  0.00  0.00    +0.000 N 
ATOM     17  C   UNL     1       7.936   8.149  18.029  0.00  0.00    +0.000 C 
ATOM     18  O   UNL     1       8.509   7.470  18.871  0.00  0.00    +0.000 OA
ATOM     19  N   UNL     1       6.980   7.668  17.170  0.00  0.00    +0.000 N 
ATOM     20  H   UNL     1       8.001   9.790  16.863  0.00  0.00    +0.000 HD
ATOM     21  H   UNL     1       6.265   8.338  16.920  0.00  0.00    +0.000 HD
ENDBRANCH   1  19
TORSDOF 2
ENDMDL
MODEL 3
REMARK VINA RESULT:      -6.9      2.541      3.960
REMARK  Name = 
REMARK  3 active torsions:
REMARK  status: ('A' for Active; 'I' for Inactive)
REMARK    1  A    between atoms: C_1  and  N_2
REMARK    2  A    between atoms: N_5  and  C_6
REMARK    3  A    between atoms: N_9  and  C_10
REMARK                            x       y       z     vdW  Elec       q    Type
REMARK                         _______ _______ _______ _____ _____    ______ ____
ROOT
ATOM      1  C   UNL     1       5.882   5.139  16.161  0.00  0.00    +0.000 C 
ATOM      2  C   UNL     1       6.539   4.643  17.439  0.00  0.00    +0.000 C 
ATOM      3  C   UNL     1       5.415   3.928  18.178  0.00  0.00    +0.000 C 
ATOM      4  N   UNL     1       4.182   4.614  17.773  0.00  0.00    +0.000 N 
ATOM      5  C   UNL     1       4.459   5.515  16.627  0.00  0.00    +0.000 C 
ENDROOT
BRANCH   4   6
ATOM      6  C   UNL     1       3.292   5.099  18.727  0.00  0.00    +0.000 A 
ATOM      7  C   UNL     1       3.068   6.469  18.960  0.00  0.00    +0.000 A 
ATOM      8  C   UNL     1       2.236   6.932  20.003  0.00  0.00    +0.000 A 
ATOM      9  C   UNL     1       1.596   6.030  20.846  0.00  0.00    +0.000 A 
ATOM     10  C   UNL     1       1.779   4.690  20.592  0.00  0.00    +0.000 A 
ATOM     11  C   UNL     1       2.586   4.229  19.557  0.00  0.00    +0.000 A 
ATOM     12  C   UNL     1       2.637   2.748  19.634  0.00  0.00    +0.000 C 
ATOM     13  C   UNL     1       1.477   2.500  20.596  0.00  0.00    +0.000 C 
ATOM     14  O   UNL     1       1.227   3.698  21.361  0.00  0.00    +0.000 OA
ENDBRANCH   4   6
BRANCH   1  19
ATOM     15  C   UNL     1       7.194   3.302  11.841  0.00  0.00    +0.000 C 
ATOM     16  N   UNL     1       6.441   3.292  13.073  0.00  0.00    +0.000 N 
ATOM     17  C   UNL     1       6.534   4.362  13.927  0.00  0.00    +0.000 C 
ATOM     18  O   UNL     1       7.134   5.398  13.672  0.00  0.00    +0.000 OA
ATOM     19  N   UNL     1       5.899   4.111  15.118  0.00  0.00    +0.000 N 
ATOM     20  H   UNL     1       6.323   2.399  13.527  0.00  0.00    +0.000 HD
ATOM     21  H   UNL     1       5.075   3.532  15.039  0.00  0.00    +0.000 HD
ENDBRANCH   1  19
TORSDOF 2
ENDMDL
MODEL 4
REMARK VINA RESULT:      -6.9      1.296      1.309
REMARK  Name = 
REMARK  3 active torsions:
REMARK  status: ('A' for Active; 'I' for Inactive)
REMARK    1  A    between atoms: C_1  and  N_2
REMARK    2  A    between atoms: N_5  and  C_6
REMARK    3  A    between atoms: N_9  and  C_10
REMARK                            x       y       z     vdW  Elec       q    Type
REMARK                         _______ _______ _______ _____ _____    ______ ____
ROOT
ATOM      1  C   UNL     1       7.107   5.691  17.519  0.00  0.00    +0.000 C 
ATOM      2  C   UNL     1       6.041   6.408  16.707  0.00  0.00    +0.000 C 
ATOM      3  C   UNL     1       4.799   6.340  17.585  0.00  0.00    +0.000 C 
ATOM      4  N   UNL     1       4.937   5.103  18.363  0.00  0.00    +0.000 N 
ATOM      5  C   UNL     1       6.311   4.565  18.214  0.00  0.00    +0.000 C 
ENDROOT
BRANCH   4   6
ATOM      6  C   UNL     1       3.913   4.161  18.388  0.00  0.00    +0.000 A 
ATOM      7  C   UNL     1       3.887   3.016  17.570  0.00  0.00    +0.000 A 
ATOM      8  C   UNL     1       2.787   2.130  17.544  0.00  0.00    +0.000 A 
ATOM      9  C   UNL     1       1.675   2.366  18.346  0.00  0.00    +0.000 A 
ATOM     10  C   UNL     1       1.718   3.461  19.178  0.00  0.00    +0.000 A 
ATOM     11  C   UNL     1       2.806   4.328  19.217  0.00  0.00    +0.000 A 
ATOM     12  C   UNL     1       2.476   5.443  20.141  0.00  0.00    +0.000 C 
ATOM     13  C   UNL     1       1.253   4.848  20.835  0.00  0.00    +0.000 C 
ATOM     14  O   UNL     1       0.680   3.822  19.999  0.00  0.00    +0.000 OA
ENDBRANCH   4   6
BRANCH   1  19
ATOM     15  C   UNL     1       9.014   9.969  18.867  0.00  0.00    +0.000 C 
ATOM     16  N   UNL     1       8.729   8.566  19.057  0.00  0.00    +0.000 N 
ATOM     17  C   UNL     1       8.119   7.863  18.049  0.00  0.00    +0.000 C 
ATOM     18  O   UNL     1       7.891   8.312  16.934  0.00  0.00    +0.000 OA
ATOM     19  N   UNL     1       7.766   6.601  18.459  0.00  0.00    +0.000 N 
ATOM     20  H   UNL     1       8.474   8.275  19.988  0.00  0.00    +0.000 HD
ATOM     21  H   UNL     1       8.403   6.183  19.124  0.00  0.00    +0.000 HD
ENDBRANCH   1  19
TORSDOF 2
ENDMDL
MODEL 5
REMARK VINA RESULT:      -6.8      3.153      4.732
REMARK  Name = 
REMARK  3 active torsions:
REMARK  status: ('A' for Active; 'I' for Inactive)
REMARK    1  A    between atoms: C_1  and  N_2
REMARK    2  A    between atoms: N_5  and  C_6
REMARK    3  A    between atoms: N_9  and  C_10
REMARK                            x       y       z     vdW  Elec       q    Type
REMARK                         _______ _______ _______ _____ _____    ______ ____
ROOT
ATOM      1  C   UNL     1       6.273   4.683  14.411  0.00  0.00    +0.000 C 
ATOM      2  C   UNL     1       7.106   4.567  15.677  0.00  0.00    +0.000 C 
ATOM      3  C   UNL     1       6.144   3.975  16.699  0.00  0.00    +0.000 C 
ATOM      4  N   UNL     1       4.812   4.445  16.302  0.00  0.00    +0.000 N 
ATOM      5  C   UNL     1       4.874   5.054  14.950  0.00  0.00    +0.000 C 
ENDROOT
BRANCH   4   6
ATOM      6  C   UNL     1       3.981   5.082  17.218  0.00  0.00    +0.000 A 
ATOM      7  C   UNL     1       4.138   6.425  17.612  0.00  0.00    +0.000 A 
ATOM      8  C   UNL     1       3.343   7.015  18.619  0.00  0.00    +0.000 A 
ATOM      9  C   UNL     1       2.358   6.274  19.263  0.00  0.00    +0.000 A 
ATOM     10  C   UNL     1       2.174   4.975  18.848  0.00  0.00    +0.000 A 
ATOM     11  C   UNL     1       2.945   4.394  17.846  0.00  0.00    +0.000 A 
ATOM     12  C   UNL     1       2.550   2.967  17.726  0.00  0.00    +0.000 C 
ATOM     13  C   UNL     1       1.248   2.994  18.524  0.00  0.00    +0.000 C 
ATOM     14  O   UNL     1       1.257   4.128  19.416  0.00  0.00    +0.000 OA
ENDBRANCH   4   6
BRANCH   1  19
ATOM     15  C   UNL     1       7.358   1.929  10.538  0.00  0.00    +0.000 C 
ATOM     16  N   UNL     1       6.718   2.174  11.809  0.00  0.00    +0.000 N 
ATOM     17  C   UNL     1       6.793   3.424  12.369  0.00  0.00    +0.000 C 
ATOM     18  O   UNL     1       7.277   4.401  11.814  0.00  0.00    +0.000 OA
ATOM     19  N   UNL     1       6.287   3.434  13.646  0.00  0.00    +0.000 N 
ATOM     20  H   UNL     1       6.716   1.414  12.472  0.00  0.00    +0.000 HD
ATOM     21  H   UNL     1       5.511   2.802  13.794  0.00  0.00    +0.000 HD
ENDBRANCH   1  19
TORSDOF 2
ENDMDL
MODEL 6
REMARK VINA RESULT:      -6.7      2.862      4.076
REMARK  Name = 
REMARK  3 active torsions:
REMARK  status: ('A' for Active; 'I' for Inactive)
REMARK    1  A    between atoms: C_1  and  N_2
REMARK    2  A    between atoms: N_5  and  C_6
REMARK    3  A    between atoms: N_9  and  C_10
REMARK                            x       y       z     vdW  Elec       q    Type
REMARK                         _______ _______ _______ _____ _____    ______ ____
ROOT
ATOM      1  C   UNL     1       5.219   4.036  17.115  0.00  0.00    +0.000 C 
ATOM      2  C   UNL     1       4.061   3.113  17.461  0.00  0.00    +0.000 C 
ATOM      3  C   UNL     1       2.841   4.024  17.428  0.00  0.00    +0.000 C 
ATOM      4  N   UNL     1       3.334   5.353  17.806  0.00  0.00    +0.000 N 
ATOM      5  C   UNL     1       4.817   5.363  17.795  0.00  0.00    +0.000 C 
ENDROOT
BRANCH   4   6
ATOM      6  C   UNL     1       2.728   6.070  18.834  0.00  0.00    +0.000 A 
ATOM      7  C   UNL     1       2.368   5.505  20.072  0.00  0.00    +0.000 A 
ATOM      8  C   UNL     1       1.662   6.231  21.057  0.00  0.00    +0.000 A 
ATOM      9  C   UNL     1       1.300   7.555  20.832  0.00  0.00    +0.000 A 
ATOM     10  C   UNL     1       1.690   8.121  19.640  0.00  0.00    +0.000 A 
ATOM     11  C   UNL     1       2.397   7.414  18.672  0.00  0.00    +0.000 A 
ATOM     12  C   UNL     1       2.562   8.292  17.486  0.00  0.00    +0.000 C 
ATOM     13  C   UNL     1       2.180   9.634  18.104  0.00  0.00    +0.000 C 
ATOM     14  O   UNL     1       1.376   9.407  19.281  0.00  0.00    +0.000 OA
ENDBRANCH   4   6
BRANCH   1  19
ATOM     15  C   UNL     1       7.777   4.958  13.071  0.00  0.00    +0.000 C 
ATOM     16  N   UNL     1       6.560   4.666  13.789  0.00  0.00    +0.000 N 
ATOM     17  C   UNL     1       6.583   4.615  15.160  0.00  0.00    +0.000 C 
ATOM     18  O   UNL     1       7.553   4.911  15.845  0.00  0.00    +0.000 OA
ATOM     19  N   UNL     1       5.393   4.155  15.666  0.00  0.00    +0.000 N 
ATOM     20  H   UNL     1       5.918   4.021  13.354  0.00  0.00    +0.000 HD
ATOM     21  H   UNL     1       4.578   4.428  15.133  0.00  0.00    +0.000 HD
ENDBRANCH   1  19
TORSDOF 2
ENDMDL
MODEL 7
REMARK VINA RESULT:      -6.7      3.049      6.105
REMARK  Name = 
REMARK  3 active torsions:
REMARK  status: ('A' for Active; 'I' for Inactive)
REMARK    1  A    between atoms: C_1  and  N_2
REMARK    2  A    between atoms: N_5  and  C_6
REMARK    3  A    between atoms: N_9  and  C_10
REMARK                            x       y       z     vdW  Elec       q    Type
REMARK                         _______ _______ _______ _____ _____    ______ ____
ROOT
ATOM      1  C   UNL     1       1.651   6.783  19.844  0.00  0.00    +0.000 C 
ATOM      2  C   UNL     1       1.702   5.323  20.263  0.00  0.00    +0.000 C 
ATOM      3  C   UNL     1       3.187   4.983  20.240  0.00  0.00    +0.000 C 
ATOM      4  N   UNL     1       3.770   5.849  19.207  0.00  0.00    +0.000 N 
ATOM      5  C   UNL     1       2.786   6.882  18.801  0.00  0.00    +0.000 C 
ENDROOT
BRANCH   4   6
ATOM      6  C   UNL     1       4.545   5.311  18.184  0.00  0.00    +0.000 A 
ATOM      7  C   UNL     1       4.010   4.790  16.991  0.00  0.00    +0.000 A 
ATOM      8  C   UNL     1       4.812   4.159  16.015  0.00  0.00    +0.000 A 
ATOM      9  C   UNL     1       6.185   4.035  16.205  0.00  0.00    +0.000 A 
ATOM     10  C   UNL     1       6.715   4.582  17.350  0.00  0.00    +0.000 A 
ATOM     11  C   UNL     1       5.930   5.218  18.308  0.00  0.00    +0.000 A 
ATOM     12  C   UNL     1       6.804   5.595  19.447  0.00  0.00    +0.000 C 
ATOM     13  C   UNL     1       8.172   5.405  18.796  0.00  0.00    +0.000 C 
ATOM     14  O   UNL     1       8.046   4.507  17.673  0.00  0.00    +0.000 OA
ENDBRANCH   4   6
BRANCH   1  19
ATOM     15  C   UNL     1       0.091   9.715  23.411  0.00  0.00    +0.000 C 
ATOM     16  N   UNL     1       1.116   9.106  22.597  0.00  0.00    +0.000 N 
ATOM     17  C   UNL     1       0.750   8.308  21.542  0.00  0.00    +0.000 C 
ATOM     18  O   UNL     1      -0.402   8.156  21.159  0.00  0.00    +0.000 OA
ATOM     19  N   UNL     1       1.836   7.675  20.990  0.00  0.00    +0.000 N 
ATOM     20  H   UNL     1       1.961   8.822  23.067  0.00  0.00    +0.000 HD
ATOM     21  H   UNL     1       2.691   8.215  21.011  0.00  0.00    +0.000 HD
ENDBRANCH   1  19
TORSDOF 2
ENDMDL
MODEL 8
REMARK VINA RESULT:      -6.6      1.985      3.645
REMARK  Name = 
REMARK  3 active torsions:
REMARK  status: ('A' for Active; 'I' for Inactive)
REMARK    1  A    between atoms: C_1  and  N_2
REMARK    2  A    between atoms: N_5  and  C_6
REMARK    3  A    between atoms: N_9  and  C_10
REMARK                            x       y       z     vdW  Elec       q    Type
REMARK                         _______ _______ _______ _____ _____    ______ ____
ROOT
ATOM      1  C   UNL     1       6.480   6.325  16.852  0.00  0.00    +0.000 C 
ATOM      2  C   UNL     1       7.034   6.023  18.236  0.00  0.00    +0.000 C 
ATOM      3  C   UNL     1       6.184   4.859  18.727  0.00  0.00    +0.000 C 
ATOM      4  N   UNL     1       4.876   5.029  18.083  0.00  0.00    +0.000 N 
ATOM      5  C   UNL     1       4.968   6.061  17.020  0.00  0.00    +0.000 C 
ENDROOT
BRANCH   4   6
ATOM      6  C   UNL     1       3.707   5.035  18.837  0.00  0.00    +0.000 A 
ATOM      7  C   UNL     1       3.191   6.184  19.467  0.00  0.00    +0.000 A 
ATOM      8  C   UNL     1       2.059   6.140  20.311  0.00  0.00    +0.000 A 
ATOM      9  C   UNL     1       1.403   4.936  20.545  0.00  0.00    +0.000 A 
ATOM     10  C   UNL     1       1.879   3.821  19.895  0.00  0.00    +0.000 A 
ATOM     11  C   UNL     1       2.986   3.863  19.052  0.00  0.00    +0.000 A 
ATOM     12  C   UNL     1       3.280   2.477  18.605  0.00  0.00    +0.000 C 
ATOM     13  C   UNL     1       1.983   1.791  19.025  0.00  0.00    +0.000 C 
ATOM     14  O   UNL     1       1.342   2.569  20.057  0.00  0.00    +0.000 OA
ENDBRANCH   4   6
BRANCH   1  19
ATOM     15  C   UNL     1       6.535   3.810  12.678  0.00  0.00    +0.000 C 
ATOM     16  N   UNL     1       7.107   4.244  13.930  0.00  0.00    +0.000 N 
ATOM     17  C   UNL     1       6.356   5.018  14.779  0.00  0.00    +0.000 C 
ATOM     18  O   UNL     1       5.175   5.287  14.606  0.00  0.00    +0.000 OA
ATOM     19  N   UNL     1       7.107   5.483  15.830  0.00  0.00    +0.000 N 
ATOM     20  H   UNL     1       8.094   4.450  13.933  0.00  0.00    +0.000 HD
ATOM     21  H   UNL     1       7.825   4.846  16.146  0.00  0.00    +0.000 HD
ENDBRANCH   1  19
TORSDOF 2
ENDMDL
MODEL 9
REMARK VINA RESULT:      -6.5      2.596      3.701
REMARK  Name = 
REMARK  3 active torsions:
REMARK  status: ('A' for Active; 'I' for Inactive)
REMARK    1  A    between atoms: C_1  and  N_2
REMARK    2  A    between atoms: N_5  and  C_6
REMARK    3  A    between atoms: N_9  and  C_10
REMARK                            x       y       z     vdW  Elec       q    Type
REMARK                         _______ _______ _______ _____ _____    ______ ____
ROOT
ATOM      1  C   UNL     1       5.441   5.306  16.153  0.00  0.00    +0.000 C 
ATOM      2  C   UNL     1       6.258   5.907  17.286  0.00  0.00    +0.000 C 
ATOM      3  C   UNL     1       6.225   4.839  18.372  0.00  0.00    +0.000 C 
ATOM      4  N   UNL     1       4.948   4.139  18.193  0.00  0.00    +0.000 N 
ATOM      5  C   UNL     1       4.334   4.531  16.901  0.00  0.00    +0.000 C 
ENDROOT
BRANCH   4   6
ATOM      6  C   UNL     1       4.069   3.980  19.261  0.00  0.00    +0.000 A 
ATOM      7  C   UNL     1       3.935   2.783  19.990  0.00  0.00    +0.000 A 
ATOM      8  C   UNL     1       2.964   2.619  21.002  0.00  0.00    +0.000 A 
ATOM      9  C   UNL     1       2.095   3.658  21.318  0.00  0.00    +0.000 A 
ATOM     10  C   UNL     1       2.254   4.842  20.637  0.00  0.00    +0.000 A 
ATOM     11  C   UNL     1       3.219   5.013  19.649  0.00  0.00    +0.000 A 
ATOM     12  C   UNL     1       3.044   6.365  19.060  0.00  0.00    +0.000 C 
ATOM     13  C   UNL     1       2.123   6.985  20.108  0.00  0.00    +0.000 C 
ATOM     14  O   UNL     1       1.449   5.935  20.833  0.00  0.00    +0.000 OA
ENDBRANCH   4   6
BRANCH   1  19
ATOM     15  C   UNL     1       6.448   2.921  12.024  0.00  0.00    +0.000 C 
ATOM     16  N   UNL     1       6.694   3.277  13.401  0.00  0.00    +0.000 N 
ATOM     17  C   UNL     1       5.792   4.074  14.061  0.00  0.00    +0.000 C 
ATOM     18  O   UNL     1       4.715   4.425  13.599  0.00  0.00    +0.000 OA
ATOM     19  N   UNL     1       6.265   4.456  15.292  0.00  0.00    +0.000 N 
ATOM     20  H   UNL     1       7.656   3.417  13.671  0.00  0.00    +0.000 HD
ATOM     21  H   UNL     1       6.838   3.763  15.754  0.00  0.00    +0.000 HD
ENDBRANCH   1  19
TORSDOF 2
ENDMDL
