MODEL 1
REMARK VINA RESULT:      -8.1      0.000      0.000
REMARK  Name = 
REMARK  6 active torsions:
REMARK  status: ('A' for Active; 'I' for Inactive)
REMARK    1  A    between atoms: C_1  and  O_2
REMARK    2  A    between atoms: O_2  and  C_3
REMARK    3  A    between atoms: C_8  and  O_9
REMARK    4  A    between atoms: O_9  and  C_10
REMARK    5  A    between atoms: C_11  and  C_12
REMARK    6  A    between atoms: C_15  and  C_16
REMARK                            x       y       z     vdW  Elec       q    Type
REMARK                         _______ _______ _______ _____ _____    ______ ____
ROOT
ATOM      1  C   UNL     1      -3.433  11.080  17.887  0.00  0.00    +0.000 A 
ATOM      2  C   UNL     1      -3.004  11.618  19.114  0.00  0.00    +0.000 A 
ATOM      3  C   UNL     1      -1.687  11.431  19.556  0.00  0.00    +0.000 A 
ATOM      4  C   UNL     1      -0.829  10.601  18.833  0.00  0.00    +0.000 A 
ATOM      5  C   UNL     1      -1.272  10.018  17.645  0.00  0.00    +0.000 A 
ATOM      6  C   UNL     1      -2.561  10.256  17.157  0.00  0.00    +0.000 A 
ATOM      7  C   UNL     1       0.568  10.451  19.337  0.00  0.00    +0.000 C 
ATOM      8  N   UNL     1       1.105  11.298  20.159  0.00  0.00    +0.000 NA
ATOM      9  C   UNL     1       0.307  12.464  20.555  0.00  0.00    +0.000 C 
ATOM     10  C   UNL     1      -1.163  12.119  20.782  0.00  0.00    +0.000 C 
ENDROOT
BRANCH   7  11
ATOM     11  C   UNL     1       1.397   9.351  18.890  0.00  0.00    +0.000 A 
ATOM     12  C   UNL     1       2.237   9.260  17.796  0.00  0.00    +0.000 A 
ATOM     13  C   UNL     1       2.795   7.964  17.817  0.00  0.00    +0.000 A 
ATOM     14  C   UNL     1       2.322   7.345  18.958  0.00  0.00    +0.000 A 
ATOM     15  O   UNL     1       1.450   8.177  19.597  0.00  0.00    +0.000 OA
BRANCH  14  16
ATOM     16  C   UNL     1       2.590   6.036  19.554  0.00  0.00    +0.000 A 
ATOM     17  C   UNL     1       1.627   5.508  20.438  0.00  0.00    +0.000 A 
ATOM     18  C   UNL     1       1.720   4.202  20.927  0.00  0.00    +0.000 A 
ATOM     19  C   UNL     1       2.788   3.398  20.550  0.00  0.00    +0.000 A 
ATOM     20  C   UNL     1       3.779   3.913  19.715  0.00  0.00    +0.000 A 
ATOM     21  C   UNL     1       3.690   5.224  19.222  0.00  0.00    +0.000 A 
ATOM     22 CL   UNL     1       4.960   5.724  18.157  0.00  0.00    +0.000 Cl
ENDBRANCH  14  16
ENDBRANCH   7  11
BRANCH   1  24
ATOM     23  C   UNL     1      -5.691  11.634  18.360  0.00  0.00    +0.000 C 
ATOM     24  O   UNL     1      -4.682  11.349  17.393  0.00  0.00    +0.000 OA
ENDBRANCH   1  24
BRANCH   6  25
ATOM     25  O   UNL     1      -2.754   9.632  15.953  0.00  0.00    +0.000 OA
ATOM     26  C   UNL     1      -3.028  10.396  14.794  0.00  0.00    +0.000 C 
ENDBRANCH   6  25
TORSDOF 4
ENDMDL
MODEL 2
REMARK VINA RESULT:      -8.0      4.941      7.739
REMARK  Name = 
REMARK  6 active torsions:
REMARK  status: ('A' for Active; 'I' for Inactive)
REMARK    1  A    between atoms: C_1  and  O_2
REMARK    2  A    between atoms: O_2  and  C_3
REMARK    3  A    between atoms: C_8  and  O_9
REMARK    4  A    between atoms: O_9  and  C_10
REMARK    5  A    between atoms: C_11  and  C_12
REMARK    6  A    between atoms: C_15  and  C_16
REMARK                            x       y       z     vdW  Elec       q    Type
REMARK                         _______ _______ _______ _____ _____    ______ ____
ROOT
ATOM      1  C   UNL     1       1.821   4.144  20.346  0.00  0.00    +0.000 A 
ATOM      2  C   UNL     1       1.712   5.545  20.428  0.00  0.00    +0.000 A 
ATOM      3  C   UNL     1       2.390   6.370  19.522  0.00  0.00    +0.000 A 
ATOM      4  C   UNL     1       3.279   5.804  18.607  0.00  0.00    +0.000 A 
ATOM      5  C   UNL     1       3.434   4.417  18.563  0.00  0.00    +0.000 A 
ATOM      6  C   UNL     1       2.707   3.578  19.415  0.00  0.00    +0.000 A 
ATOM      7  C   UNL     1       3.962   6.725  17.652  0.00  0.00    +0.000 C 
ATOM      8  N   UNL     1       3.518   7.916  17.396  0.00  0.00    +0.000 NA
ATOM      9  C   UNL     1       2.268   8.331  18.045  0.00  0.00    +0.000 C 
ATOM     10  C   UNL     1       2.173   7.853  19.492  0.00  0.00    +0.000 C 
ENDROOT
BRANCH   7  11
ATOM     11  C   UNL     1       5.150   6.299  16.941  0.00  0.00    +0.000 A 
ATOM     12  C   UNL     1       6.482   6.399  17.297  0.00  0.00    +0.000 A 
ATOM     13  C   UNL     1       7.230   5.842  16.238  0.00  0.00    +0.000 A 
ATOM     14  C   UNL     1       6.320   5.369  15.313  0.00  0.00    +0.000 A 
ATOM     15  O   UNL     1       5.056   5.671  15.725  0.00  0.00    +0.000 OA
BRANCH  14  16
ATOM     16  C   UNL     1       6.481   4.642  14.054  0.00  0.00    +0.000 A 
ATOM     17  C   UNL     1       5.488   3.700  13.709  0.00  0.00    +0.000 A 
ATOM     18  C   UNL     1       5.473   3.079  12.457  0.00  0.00    +0.000 A 
ATOM     19  C   UNL     1       6.459   3.378  11.525  0.00  0.00    +0.000 A 
ATOM     20  C   UNL     1       7.477   4.269  11.859  0.00  0.00    +0.000 A 
ATOM     21  C   UNL     1       7.498   4.895  13.115  0.00  0.00    +0.000 A 
ATOM     22 CL   UNL     1       8.789   6.016  13.386  0.00  0.00    +0.000 Cl
ENDBRANCH  14  16
ENDBRANCH   7  11
BRANCH   1  24
ATOM     23  C   UNL     1       1.809   2.477  22.034  0.00  0.00    +0.000 C 
ATOM     24  O   UNL     1       1.076   3.327  21.154  0.00  0.00    +0.000 OA
ENDBRANCH   1  24
BRANCH   6  25
ATOM     25  O   UNL     1       2.974   2.261  19.154  0.00  0.00    +0.000 OA
ATOM     26  C   UNL     1       3.189   1.831  17.823  0.00  0.00    +0.000 C 
ENDBRANCH   6  25
TORSDOF 4
ENDMDL
MODEL 3
REMARK VINA RESULT:      -8.0      3.580      7.756
REMARK  Name = 
REMARK  6 active torsions:
REMARK  status: ('A' for Active; 'I' for Inactive)
REMARK    1  A    between atoms: C_1  and  O_2
REMARK    2  A    between atoms: O_2  and  C_3
REMARK    3  A    between atoms: C_8  and  O_9
REMARK    4  A    between atoms: O_9  and  C_10
REMARK    5  A    between atoms: C_11  and  C_12
REMARK    6  A    between atoms: C_15  and  C_16
REMARK                            x       y       z     vdW  Elec       q    Type
REMARK                         _______ _______ _______ _____ _____    ______ ____
ROOT
ATOM      1  C   UNL     1       2.804   3.018  18.587  0.00  0.00    +0.000 A 
ATOM      2  C   UNL     1       3.732   3.493  17.642  0.00  0.00    +0.000 A 
ATOM      3  C   UNL     1       3.912   4.868  17.445  0.00  0.00    +0.000 A 
ATOM      4  C   UNL     1       3.078   5.774  18.103  0.00  0.00    +0.000 A 
ATOM      5  C   UNL     1       2.116   5.302  18.998  0.00  0.00    +0.000 A 
ATOM      6  C   UNL     1       1.976   3.934  19.257  0.00  0.00    +0.000 A 
ATOM      7  C   UNL     1       3.325   7.228  17.873  0.00  0.00    +0.000 C 
ATOM      8  N   UNL     1       4.450   7.677  17.409  0.00  0.00    +0.000 NA
ATOM      9  C   UNL     1       5.520   6.705  17.155  0.00  0.00    +0.000 C 
ATOM     10  C   UNL     1       4.997   5.401  16.557  0.00  0.00    +0.000 C 
ENDROOT
BRANCH   7  11
ATOM     11  C   UNL     1       2.309   8.207  18.197  0.00  0.00    +0.000 A 
ATOM     12  C   UNL     1       1.612   9.070  17.372  0.00  0.00    +0.000 A 
ATOM     13  C   UNL     1       0.751   9.820  18.200  0.00  0.00    +0.000 A 
ATOM     14  C   UNL     1       0.912   9.337  19.483  0.00  0.00    +0.000 A 
ATOM     15  O   UNL     1       1.879   8.375  19.488  0.00  0.00    +0.000 OA
BRANCH  14  16
ATOM     16  C   UNL     1       0.255   9.662  20.750  0.00  0.00    +0.000 A 
ATOM     17  C   UNL     1       0.608   8.903  21.885  0.00  0.00    +0.000 A 
ATOM     18  C   UNL     1       0.155   9.245  23.163  0.00  0.00    +0.000 A 
ATOM     19  C   UNL     1      -0.671  10.348  23.331  0.00  0.00    +0.000 A 
ATOM     20  C   UNL     1      -1.072  11.086  22.219  0.00  0.00    +0.000 A 
ATOM     21  C   UNL     1      -0.622  10.747  20.934  0.00  0.00    +0.000 A 
ATOM     22 CL   UNL     1      -1.155  11.772  19.644  0.00  0.00    +0.000 Cl
ENDBRANCH  14  16
ENDBRANCH   7  11
BRANCH   1  24
ATOM     23  C   UNL     1       3.856   0.892  18.601  0.00  0.00    +0.000 C 
ATOM     24  O   UNL     1       2.698   1.681  18.868  0.00  0.00    +0.000 OA
ENDBRANCH   1  24
BRANCH   6  25
ATOM     25  O   UNL     1       1.016   3.710  20.207  0.00  0.00    +0.000 OA
ATOM     26  C   UNL     1       1.373   3.153  21.458  0.00  0.00    +0.000 C 
ENDBRANCH   6  25
TORSDOF 4
ENDMDL
MODEL 4
REMARK VINA RESULT:      -7.9      1.559      2.273
REMARK  Name = 
REMARK  6 active torsions:
REMARK  status: ('A' for Active; 'I' for Inactive)
REMARK    1  A    between atoms: C_1  and  O_2
REMARK    2  A    between atoms: O_2  and  C_3
REMARK    3  A    between atoms: C_8  and  O_9
REMARK    4  A    between atoms: O_9  and  C_10
REMARK    5  A    between atoms: C_11  and  C_12
REMARK    6  A    between atoms: C_15  and  C_16
REMARK                            x       y       z     vdW  Elec       q    Type
REMARK                         _______ _______ _______ _____ _____    ______ ____
ROOT
ATOM      1  C   UNL     1      -3.177  11.551  18.385  0.00  0.00    +0.000 A 
ATOM      2  C   UNL     1      -2.676  12.313  19.457  0.00  0.00    +0.000 A 
ATOM      3  C   UNL     1      -1.465  11.971  20.074  0.00  0.00    +0.000 A 
ATOM      4  C   UNL     1      -0.812  10.794  19.703  0.00  0.00    +0.000 A 
ATOM      5  C   UNL     1      -1.339  10.005  18.679  0.00  0.00    +0.000 A 
ATOM      6  C   UNL     1      -2.509  10.375  18.007  0.00  0.00    +0.000 A 
ATOM      7  C   UNL     1       0.484  10.487  20.377  0.00  0.00    +0.000 C 
ATOM      8  N   UNL     1       1.182  11.392  20.990  0.00  0.00    +0.000 NA
ATOM      9  C   UNL     1       0.682  12.772  20.962  0.00  0.00    +0.000 C 
ATOM     10  C   UNL     1      -0.836  12.849  21.114  0.00  0.00    +0.000 C 
ENDROOT
BRANCH   7  11
ATOM     11  C   UNL     1       1.031   9.147  20.342  0.00  0.00    +0.000 A 
ATOM     12  C   UNL     1       0.941   8.125  21.269  0.00  0.00    +0.000 A 
ATOM     13  C   UNL     1       1.667   7.034  20.746  0.00  0.00    +0.000 A 
ATOM     14  C   UNL     1       2.113   7.415  19.496  0.00  0.00    +0.000 A 
ATOM     15  O   UNL     1       1.752   8.708  19.260  0.00  0.00    +0.000 OA
BRANCH  14  16
ATOM     16  C   UNL     1       2.854   6.703  18.454  0.00  0.00    +0.000 A 
ATOM     17  C   UNL     1       3.825   7.426  17.730  0.00  0.00    +0.000 A 
ATOM     18  C   UNL     1       4.689   6.793  16.832  0.00  0.00    +0.000 A 
ATOM     19  C   UNL     1       4.593   5.422  16.630  0.00  0.00    +0.000 A 
ATOM     20  C   UNL     1       3.610   4.694  17.298  0.00  0.00    +0.000 A 
ATOM     21  C   UNL     1       2.739   5.324  18.199  0.00  0.00    +0.000 A 
ATOM     22 CL   UNL     1       1.596   4.299  18.998  0.00  0.00    +0.000 Cl
ENDBRANCH  14  16
ENDBRANCH   7  11
BRANCH   1  24
ATOM     23  C   UNL     1      -5.535  11.395  18.167  0.00  0.00    +0.000 C 
ATOM     24  O   UNL     1      -4.300  11.939  17.704  0.00  0.00    +0.000 OA
ENDBRANCH   1  24
BRANCH   6  25
ATOM     25  O   UNL     1      -2.803   9.488  17.007  0.00  0.00    +0.000 OA
ATOM     26  C   UNL     1      -2.642   9.866  15.653  0.00  0.00    +0.000 C 
ENDBRANCH   6  25
TORSDOF 4
ENDMDL
MODEL 5
REMARK VINA RESULT:      -7.8      1.091      1.131
REMARK  Name = 
REMARK  6 active torsions:
REMARK  status: ('A' for Active; 'I' for Inactive)
REMARK    1  A    between atoms: C_1  and  O_2
REMARK    2  A    between atoms: O_2  and  C_3
REMARK    3  A    between atoms: C_8  and  O_9
REMARK    4  A    between atoms: O_9  and  C_10
REMARK    5  A    between atoms: C_11  and  C_12
REMARK    6  A    between atoms: C_15  and  C_16
REMARK                            x       y       z     vdW  Elec       q    Type
REMARK                         _______ _______ _______ _____ _____    ______ ____
ROOT
ATOM      1  C   UNL     1      -3.120  11.233  18.078  0.00  0.00    +0.000 A 
ATOM      2  C   UNL     1      -2.575  11.758  19.265  0.00  0.00    +0.000 A 
ATOM      3  C   UNL     1      -1.275  11.424  19.665  0.00  0.00    +0.000 A 
ATOM      4  C   UNL     1      -0.558  10.466  18.946  0.00  0.00    +0.000 A 
ATOM      5  C   UNL     1      -1.120   9.899  17.801  0.00  0.00    +0.000 A 
ATOM      6  C   UNL     1      -2.388  10.279  17.351  0.00  0.00    +0.000 A 
ATOM      7  C   UNL     1       0.830  10.161  19.404  0.00  0.00    +0.000 C 
ATOM      8  N   UNL     1       1.502  10.963  20.169  0.00  0.00    +0.000 NA
ATOM      9  C   UNL     1       0.872  12.235  20.545  0.00  0.00    +0.000 C 
ATOM     10  C   UNL     1      -0.618  12.085  20.840  0.00  0.00    +0.000 C 
ENDROOT
BRANCH   7  11
ATOM     11  C   UNL     1       1.496   8.949  18.974  0.00  0.00    +0.000 A 
ATOM     12  C   UNL     1       2.375   8.743  17.927  0.00  0.00    +0.000 A 
ATOM     13  C   UNL     1       2.715   7.374  17.943  0.00  0.00    +0.000 A 
ATOM     14  C   UNL     1       2.081   6.819  19.037  0.00  0.00    +0.000 A 
ATOM     15  O   UNL     1       1.317   7.769  19.649  0.00  0.00    +0.000 OA
BRANCH  14  16
ATOM     16  C   UNL     1       2.098   5.473  19.610  0.00  0.00    +0.000 A 
ATOM     17  C   UNL     1       2.373   5.350  20.988  0.00  0.00    +0.000 A 
ATOM     18  C   UNL     1       2.253   4.126  21.652  0.00  0.00    +0.000 A 
ATOM     19  C   UNL     1       1.865   2.993  20.947  0.00  0.00    +0.000 A 
ATOM     20  C   UNL     1       1.633   3.079  19.575  0.00  0.00    +0.000 A 
ATOM     21  C   UNL     1       1.754   4.305  18.904  0.00  0.00    +0.000 A 
ATOM     22 CL   UNL     1       1.393   4.285  17.211  0.00  0.00    +0.000 Cl
ENDBRANCH  14  16
ENDBRANCH   7  11
BRANCH   1  24
ATOM     23  C   UNL     1      -5.477  10.989  18.196  0.00  0.00    +0.000 C 
ATOM     24  O   UNL     1      -4.345  11.638  17.620  0.00  0.00    +0.000 OA
ENDBRANCH   1  24
BRANCH   6  25
ATOM     25  O   UNL     1      -2.708   9.640  16.184  0.00  0.00    +0.000 OA
ATOM     26  C   UNL     1      -2.843  10.379  14.984  0.00  0.00    +0.000 C 
ENDBRANCH   6  25
TORSDOF 4
ENDMDL
MODEL 6
REMARK VINA RESULT:      -7.7      3.446      7.634
REMARK  Name = 
REMARK  6 active torsions:
REMARK  status: ('A' for Active; 'I' for Inactive)
REMARK    1  A    between atoms: C_1  and  O_2
REMARK    2  A    between atoms: O_2  and  C_3
REMARK    3  A    between atoms: C_8  and  O_9
REMARK    4  A    between atoms: O_9  and  C_10
REMARK    5  A    between atoms: C_11  and  C_12
REMARK    6  A    between atoms: C_15  and  C_16
REMARK                            x       y       z     vdW  Elec       q    Type
REMARK                         _______ _______ _______ _____ _____    ______ ____
ROOT
ATOM      1  C   UNL     1       2.796   3.080  18.256  0.00  0.00    +0.000 A 
ATOM      2  C   UNL     1       3.753   3.589  17.359  0.00  0.00    +0.000 A 
ATOM      3  C   UNL     1       3.959   4.970  17.240  0.00  0.00    +0.000 A 
ATOM      4  C   UNL     1       3.124   5.853  17.927  0.00  0.00    +0.000 A 
ATOM      5  C   UNL     1       2.134   5.349  18.772  0.00  0.00    +0.000 A 
ATOM      6  C   UNL     1       1.967   3.973  18.955  0.00  0.00    +0.000 A 
ATOM      7  C   UNL     1       3.398   7.312  17.780  0.00  0.00    +0.000 C 
ATOM      8  N   UNL     1       4.540   7.768  17.366  0.00  0.00    +0.000 NA
ATOM      9  C   UNL     1       5.601   6.793  17.085  0.00  0.00    +0.000 C 
ATOM     10  C   UNL     1       5.073   5.531  16.407  0.00  0.00    +0.000 C 
ENDROOT
BRANCH   7  11
ATOM     11  C   UNL     1       2.390   8.290  18.133  0.00  0.00    +0.000 A 
ATOM     12  C   UNL     1       1.618   9.101  17.323  0.00  0.00    +0.000 A 
ATOM     13  C   UNL     1       0.805   9.876  18.177  0.00  0.00    +0.000 A 
ATOM     14  C   UNL     1       1.069   9.457  19.466  0.00  0.00    +0.000 A 
ATOM     15  O   UNL     1       2.052   8.513  19.444  0.00  0.00    +0.000 OA
BRANCH  14  16
ATOM     16  C   UNL     1       0.501   9.832  20.761  0.00  0.00    +0.000 A 
ATOM     17  C   UNL     1       0.130  11.179  20.951  0.00  0.00    +0.000 A 
ATOM     18  C   UNL     1      -0.565  11.594  22.090  0.00  0.00    +0.000 A 
ATOM     19  C   UNL     1      -0.895  10.670  23.073  0.00  0.00    +0.000 A 
ATOM     20  C   UNL     1      -0.498   9.341  22.931  0.00  0.00    +0.000 A 
ATOM     21  C   UNL     1       0.201   8.919  21.790  0.00  0.00    +0.000 A 
ATOM     22 CL   UNL     1       0.593   7.235  21.715  0.00  0.00    +0.000 Cl
ENDBRANCH  14  16
ENDBRANCH   7  11
BRANCH   1  24
ATOM     23  C   UNL     1       3.877   1.002  18.634  0.00  0.00    +0.000 C 
ATOM     24  O   UNL     1       2.664   1.732  18.462  0.00  0.00    +0.000 OA
ENDBRANCH   1  24
BRANCH   6  25
ATOM     25  O   UNL     1       0.982   3.714  19.869  0.00  0.00    +0.000 OA
ATOM     26  C   UNL     1       1.321   3.373  21.200  0.00  0.00    +0.000 C 
ENDBRANCH   6  25
TORSDOF 4
ENDMDL
MODEL 7
REMARK VINA RESULT:      -7.5      1.062      1.283
REMARK  Name = 
REMARK  6 active torsions:
REMARK  status: ('A' for Active; 'I' for Inactive)
REMARK    1  A    between atoms: C_1  and  O_2
REMARK    2  A    between atoms: O_2  and  C_3
REMARK    3  A    between atoms: C_8  and  O_9
REMARK    4  A    between atoms: O_9  and  C_10
REMARK    5  A    between atoms: C_11  and  C_12
REMARK    6  A    between atoms: C_15  and  C_16
REMARK                            x       y       z     vdW  Elec       q    Type
REMARK                         _______ _______ _______ _____ _____    ______ ____
ROOT
ATOM      1  C   UNL     1      -3.671  12.166  19.409  0.00  0.00    +0.000 A 
ATOM      2  C   UNL     1      -2.992  12.511  20.592  0.00  0.00    +0.000 A 
ATOM      3  C   UNL     1      -1.641  12.180  20.764  0.00  0.00    +0.000 A 
ATOM      4  C   UNL     1      -0.996  11.396  19.806  0.00  0.00    +0.000 A 
ATOM      5  C   UNL     1      -1.687  11.003  18.658  0.00  0.00    +0.000 A 
ATOM      6  C   UNL     1      -3.014  11.388  18.442  0.00  0.00    +0.000 A 
ATOM      7  C   UNL     1       0.447  11.088  20.028  0.00  0.00    +0.000 C 
ATOM      8  N   UNL     1       1.191  11.783  20.832  0.00  0.00    +0.000 NA
ATOM      9  C   UNL     1       0.579  12.939  21.498  0.00  0.00    +0.000 C 
ATOM     10  C   UNL     1      -0.855  12.666  21.945  0.00  0.00    +0.000 C 
ENDROOT
BRANCH   7  11
ATOM     11  C   UNL     1       1.087  10.003  19.314  0.00  0.00    +0.000 A 
ATOM     12  C   UNL     1       1.525   9.938  18.004  0.00  0.00    +0.000 A 
ATOM     13  C   UNL     1       2.060   8.646  17.817  0.00  0.00    +0.000 A 
ATOM     14  C   UNL     1       1.984   8.003  19.036  0.00  0.00    +0.000 A 
ATOM     15  O   UNL     1       1.367   8.816  19.941  0.00  0.00    +0.000 OA
BRANCH  14  16
ATOM     16  C   UNL     1       2.433   6.685  19.487  0.00  0.00    +0.000 A 
ATOM     17  C   UNL     1       1.707   6.064  20.525  0.00  0.00    +0.000 A 
ATOM     18  C   UNL     1       1.962   4.744  20.908  0.00  0.00    +0.000 A 
ATOM     19  C   UNL     1       2.957   4.018  20.267  0.00  0.00    +0.000 A 
ATOM     20  C   UNL     1       3.720   4.624  19.270  0.00  0.00    +0.000 A 
ATOM     21  C   UNL     1       3.470   5.950  18.882  0.00  0.00    +0.000 A 
ATOM     22 CL   UNL     1       4.455   6.568  17.600  0.00  0.00    +0.000 Cl
ENDBRANCH  14  16
ENDBRANCH   7  11
BRANCH   1  24
ATOM     23  C   UNL     1      -5.904  12.271  20.205  0.00  0.00    +0.000 C 
ATOM     24  O   UNL     1      -4.957  12.580  19.184  0.00  0.00    +0.000 OA
ENDBRANCH   1  24
BRANCH   6  25
ATOM     25  O   UNL     1      -3.465  10.940  17.230  0.00  0.00    +0.000 OA
ATOM     26  C   UNL     1      -2.592  10.908  16.116  0.00  0.00    +0.000 C 
ENDBRANCH   6  25
TORSDOF 4
ENDMDL
MODEL 8
REMARK VINA RESULT:      -7.3      3.028      8.115
REMARK  Name = 
REMARK  6 active torsions:
REMARK  status: ('A' for Active; 'I' for Inactive)
REMARK    1  A    between atoms: C_1  and  O_2
REMARK    2  A    between atoms: O_2  and  C_3
REMARK    3  A    between atoms: C_8  and  O_9
REMARK    4  A    between atoms: O_9  and  C_10
REMARK    5  A    between atoms: C_11  and  C_12
REMARK    6  A    between atoms: C_15  and  C_16
REMARK                            x       y       z     vdW  Elec       q    Type
REMARK                         _______ _______ _______ _____ _____    ______ ____
ROOT
ATOM      1  C   UNL     1       2.773   2.974  18.105  0.00  0.00    +0.000 A 
ATOM      2  C   UNL     1       3.591   3.675  17.200  0.00  0.00    +0.000 A 
ATOM      3  C   UNL     1       3.701   5.071  17.268  0.00  0.00    +0.000 A 
ATOM      4  C   UNL     1       2.899   5.782  18.162  0.00  0.00    +0.000 A 
ATOM      5  C   UNL     1       2.043   5.092  19.020  0.00  0.00    +0.000 A 
ATOM      6  C   UNL     1       1.977   3.695  19.011  0.00  0.00    +0.000 A 
ATOM      7  C   UNL     1       3.070   7.264  18.207  0.00  0.00    +0.000 C 
ATOM      8  N   UNL     1       4.129   7.857  17.750  0.00  0.00    +0.000 NA
ATOM      9  C   UNL     1       5.206   7.013  17.219  0.00  0.00    +0.000 C 
ATOM     10  C   UNL     1       4.678   5.825  16.417  0.00  0.00    +0.000 C 
ENDROOT
BRANCH   7  11
ATOM     11  C   UNL     1       2.053   8.104  18.805  0.00  0.00    +0.000 A 
ATOM     12  C   UNL     1       1.854   8.453  20.128  0.00  0.00    +0.000 A 
ATOM     13  C   UNL     1       0.711   9.280  20.164  0.00  0.00    +0.000 A 
ATOM     14  C   UNL     1       0.303   9.453  18.857  0.00  0.00    +0.000 A 
ATOM     15  O   UNL     1       1.100   8.716  18.031  0.00  0.00    +0.000 OA
BRANCH  14  16
ATOM     16  C   UNL     1      -0.768  10.247  18.254  0.00  0.00    +0.000 A 
ATOM     17  C   UNL     1      -1.461   9.690  17.158  0.00  0.00    +0.000 A 
ATOM     18  C   UNL     1      -2.598  10.303  16.624  0.00  0.00    +0.000 A 
ATOM     19  C   UNL     1      -3.062  11.494  17.168  0.00  0.00    +0.000 A 
ATOM     20  C   UNL     1      -2.367  12.088  18.221  0.00  0.00    +0.000 A 
ATOM     21  C   UNL     1      -1.224  11.478  18.760  0.00  0.00    +0.000 A 
ATOM     22 CL   UNL     1      -0.483  12.294  20.095  0.00  0.00    +0.000 Cl
ENDBRANCH  14  16
ENDBRANCH   7  11
BRANCH   1  24
ATOM     23  C   UNL     1       3.853   0.960  18.741  0.00  0.00    +0.000 C 
ATOM     24  O   UNL     1       2.743   1.605  18.119  0.00  0.00    +0.000 OA
ENDBRANCH   1  24
BRANCH   6  25
ATOM     25  O   UNL     1       1.118   3.236  19.974  0.00  0.00    +0.000 OA
ATOM     26  C   UNL     1       1.599   2.944  21.273  0.00  0.00    +0.000 C 
ENDBRANCH   6  25
TORSDOF 4
ENDMDL
MODEL 9
REMARK VINA RESULT:      -7.2      2.987      3.383
REMARK  Name = 
REMARK  6 active torsions:
REMARK  status: ('A' for Active; 'I' for Inactive)
REMARK    1  A    between atoms: C_1  and  O_2
REMARK    2  A    between atoms: O_2  and  C_3
REMARK    3  A    between atoms: C_8  and  O_9
REMARK    4  A    between atoms: O_9  and  C_10
REMARK    5  A    between atoms: C_11  and  C_12
REMARK    6  A    between atoms: C_15  and  C_16
REMARK                            x       y       z     vdW  Elec       q    Type
REMARK                         _______ _______ _______ _____ _____    ______ ____
ROOT
ATOM      1  C   UNL     1      -1.225  13.241  20.780  0.00  0.00    +0.000 A 
ATOM      2  C   UNL     1      -1.447  12.284  21.787  0.00  0.00    +0.000 A 
ATOM      3  C   UNL     1      -0.735  11.077  21.796  0.00  0.00    +0.000 A 
ATOM      4  C   UNL     1       0.113  10.769  20.731  0.00  0.00    +0.000 A 
ATOM      5  C   UNL     1       0.290  11.694  19.700  0.00  0.00    +0.000 A 
ATOM      6  C   UNL     1      -0.361  12.932  19.717  0.00  0.00    +0.000 A 
ATOM      7  C   UNL     1       0.862   9.480  20.800  0.00  0.00    +0.000 C 
ATOM      8  N   UNL     1       1.040   8.838  21.912  0.00  0.00    +0.000 NA
ATOM      9  C   UNL     1       0.519   9.446  23.142  0.00  0.00    +0.000 C 
ATOM     10  C   UNL     1      -0.841  10.109  22.936  0.00  0.00    +0.000 C 
ENDROOT
BRANCH   7  11
ATOM     11  C   UNL     1       1.455   8.909  19.608  0.00  0.00    +0.000 A 
ATOM     12  C   UNL     1       1.760   9.501  18.397  0.00  0.00    +0.000 A 
ATOM     13  C   UNL     1       2.308   8.493  17.576  0.00  0.00    +0.000 A 
ATOM     14  C   UNL     1       2.374   7.347  18.344  0.00  0.00    +0.000 A 
ATOM     15  O   UNL     1       1.830   7.590  19.570  0.00  0.00    +0.000 OA
BRANCH  14  16
ATOM     16  C   UNL     1       2.901   6.009  18.076  0.00  0.00    +0.000 A 
ATOM     17  C   UNL     1       2.043   4.910  18.291  0.00  0.00    +0.000 A 
ATOM     18  C   UNL     1       2.404   3.614  17.911  0.00  0.00    +0.000 A 
ATOM     19  C   UNL     1       3.638   3.387  17.316  0.00  0.00    +0.000 A 
ATOM     20  C   UNL     1       4.523   4.449  17.135  0.00  0.00    +0.000 A 
ATOM     21  C   UNL     1       4.167   5.752  17.516  0.00  0.00    +0.000 A 
ATOM     22 CL   UNL     1       5.336   6.986  17.194  0.00  0.00    +0.000 Cl
ENDBRANCH  14  16
ENDBRANCH   7  11
BRANCH   1  24
ATOM     23  C   UNL     1      -2.105  14.989  22.122  0.00  0.00    +0.000 C 
ATOM     24  O   UNL     1      -1.833  14.468  20.822  0.00  0.00    +0.000 OA
ENDBRANCH   1  24
BRANCH   6  25
ATOM     25  O   UNL     1       0.007  13.695  18.641  0.00  0.00    +0.000 OA
ATOM     26  C   UNL     1       1.133  14.548  18.728  0.00  0.00    +0.000 C 
ENDBRANCH   6  25
TORSDOF 4
ENDMDL
