MODEL 1
REMARK VINA RESULT:      -7.9      0.000      0.000
REMARK  Name = 
REMARK  4 active torsions:
REMARK  status: ('A' for Active; 'I' for Inactive)
REMARK    1  A    between atoms: C_2  and  C_4
REMARK    2  A    between atoms: C_7  and  S_8
REMARK    3  A    between atoms: S_8  and  N_11
REMARK    4  A    between atoms: N_11  and  C_12
REMARK                            x       y       z     vdW  Elec       q    Type
REMARK                         _______ _______ _______ _____ _____    ______ ____
ROOT
ATOM      1  C   UNL     1       6.554   4.533  14.719  0.00  0.00    +0.000 A 
ATOM      2  C   UNL     1       5.212   4.444  15.108  0.00  0.00    +0.000 A 
ATOM      3  C   UNL     1       4.864   4.516  16.458  0.00  0.00    +0.000 A 
ATOM      4  C   UNL     1       5.866   4.687  17.420  0.00  0.00    +0.000 A 
ATOM      5  C   UNL     1       7.203   4.831  17.036  0.00  0.00    +0.000 A 
ATOM      6  C   UNL     1       7.549   4.738  15.684  0.00  0.00    +0.000 A 
ENDROOT
BRANCH   1   8
ATOM      7  N   UNL     1       6.447   3.416  12.591  0.00  0.00    +0.000 NA
ATOM      8  C   UNL     1       6.909   4.409  13.276  0.00  0.00    +0.000 C 
ATOM      9  N   UNL     1       7.736   5.323  12.690  0.00  0.00    +0.000 N 
ATOM     10  H   UNL     1       6.747   3.494  11.618  0.00  0.00    +0.000 HD
ATOM     11  H   UNL     1       8.195   5.014  11.840  0.00  0.00    +0.000 HD
ATOM     12  H   UNL     1       8.385   5.793  13.312  0.00  0.00    +0.000 HD
ENDBRANCH   1   8
BRANCH   4  13
ATOM     13  S   UNL     1       5.420   4.768  19.145  0.00  0.00    +0.000 S 
ATOM     14  O   UNL     1       6.623   5.017  19.906  0.00  0.00    +0.000 OA
ATOM     15  O   UNL     1       4.267   5.641  19.252  0.00  0.00    +0.000 OA
BRANCH  13  16
ATOM     16  N   UNL     1       4.855   3.216  19.480  0.00  0.00    +0.000 N 
ATOM     17  H   UNL     1       5.505   2.625  19.993  0.00  0.00    +0.000 HD
BRANCH  16  18
ATOM     18  C   UNL     1       3.461   2.989  19.605  0.00  0.00    +0.000 A 
ATOM     19  C   UNL     1       2.722   2.688  18.464  0.00  0.00    +0.000 A 
ATOM     20  C   UNL     1       1.342   2.507  18.558  0.00  0.00    +0.000 A 
ATOM     21  C   UNL     1       0.702   2.650  19.789  0.00  0.00    +0.000 A 
ATOM     22  C   UNL     1       1.446   2.948  20.932  0.00  0.00    +0.000 A 
ATOM     23  C   UNL     1       2.831   3.101  20.844  0.00  0.00    +0.000 A 
ENDBRANCH  16  18
ENDBRANCH  13  16
ENDBRANCH   4  13
TORSDOF 4
ENDMDL
MODEL 2
REMARK VINA RESULT:      -7.9      0.079      1.342
REMARK  Name = 
REMARK  4 active torsions:
REMARK  status: ('A' for Active; 'I' for Inactive)
REMARK    1  A    between atoms: C_2  and  C_4
REMARK    2  A    between atoms: C_7  and  S_8
REMARK    3  A    between atoms: S_8  and  N_11
REMARK    4  A    between atoms: N_11  and  C_12
REMARK                            x       y       z     vdW  Elec       q    Type
REMARK                         _______ _______ _______ _____ _____    ______ ____
ROOT
ATOM      1  C   UNL     1       6.563   4.500  14.747  0.00  0.00    +0.000 A 
ATOM      2  C   UNL     1       7.552   4.625  15.731  0.00  0.00    +0.000 A 
ATOM      3  C   UNL     1       7.197   4.716  17.078  0.00  0.00    +0.000 A 
ATOM      4  C   UNL     1       5.845   4.671  17.438  0.00  0.00    +0.000 A 
ATOM      5  C   UNL     1       4.855   4.493  16.467  0.00  0.00    +0.000 A 
ATOM      6  C   UNL     1       5.214   4.423  15.117  0.00  0.00    +0.000 A 
ENDROOT
BRANCH   1   8
ATOM      7  N   UNL     1       7.738   5.367  12.834  0.00  0.00    +0.000 NA
ATOM      8  C   UNL     1       6.962   4.450  13.310  0.00  0.00    +0.000 C 
ATOM      9  N   UNL     1       6.488   3.460  12.499  0.00  0.00    +0.000 N 
ATOM     10  H   UNL     1       7.948   5.171  11.854  0.00  0.00    +0.000 HD
ATOM     11  H   UNL     1       6.515   3.660  11.506  0.00  0.00    +0.000 HD
ATOM     12  H   UNL     1       5.600   3.054  12.773  0.00  0.00    +0.000 HD
ENDBRANCH   1   8
BRANCH   4  13
ATOM     13  S   UNL     1       5.393   4.798  19.160  0.00  0.00    +0.000 S 
ATOM     14  O   UNL     1       6.590   5.093  19.914  0.00  0.00    +0.000 OA
ATOM     15  O   UNL     1       4.225   5.652  19.237  0.00  0.00    +0.000 OA
BRANCH  13  16
ATOM     16  N   UNL     1       4.857   3.247  19.542  0.00  0.00    +0.000 N 
ATOM     17  H   UNL     1       5.508   2.692  20.093  0.00  0.00    +0.000 HD
BRANCH  16  18
ATOM     18  C   UNL     1       3.466   2.991  19.644  0.00  0.00    +0.000 A 
ATOM     19  C   UNL     1       2.763   2.620  18.500  0.00  0.00    +0.000 A 
ATOM     20  C   UNL     1       1.386   2.410  18.569  0.00  0.00    +0.000 A 
ATOM     21  C   UNL     1       0.712   2.593  19.777  0.00  0.00    +0.000 A 
ATOM     22  C   UNL     1       1.419   2.960  20.922  0.00  0.00    +0.000 A 
ATOM     23  C   UNL     1       2.803   3.144  20.861  0.00  0.00    +0.000 A 
ENDBRANCH  16  18
ENDBRANCH  13  16
ENDBRANCH   4  13
TORSDOF 4
ENDMDL
MODEL 3
REMARK VINA RESULT:      -7.8      2.483      6.707
REMARK  Name = 
REMARK  4 active torsions:
REMARK  status: ('A' for Active; 'I' for Inactive)
REMARK    1  A    between atoms: C_2  and  C_4
REMARK    2  A    between atoms: C_7  and  S_8
REMARK    3  A    between atoms: S_8  and  N_11
REMARK    4  A    between atoms: N_11  and  C_12
REMARK                            x       y       z     vdW  Elec       q    Type
REMARK                         _______ _______ _______ _____ _____    ______ ____
ROOT
ATOM      1  C   UNL     1       2.155   3.794  18.444  0.00  0.00    +0.000 A 
ATOM      2  C   UNL     1       3.142   3.113  17.720  0.00  0.00    +0.000 A 
ATOM      3  C   UNL     1       4.179   3.821  17.109  0.00  0.00    +0.000 A 
ATOM      4  C   UNL     1       4.231   5.213  17.234  0.00  0.00    +0.000 A 
ATOM      5  C   UNL     1       3.280   5.894  18.000  0.00  0.00    +0.000 A 
ATOM      6  C   UNL     1       2.232   5.185  18.594  0.00  0.00    +0.000 A 
ENDROOT
BRANCH   1   8
ATOM      7  N   UNL     1       0.501   2.047  18.393  0.00  0.00    +0.000 NA
ATOM      8  C   UNL     1       1.031   3.024  19.052  0.00  0.00    +0.000 C 
ATOM      9  N   UNL     1       0.548   3.367  20.281  0.00  0.00    +0.000 N 
ATOM     10  H   UNL     1      -0.224   1.601  18.956  0.00  0.00    +0.000 HD
ATOM     11  H   UNL     1      -0.391   3.046  20.486  0.00  0.00    +0.000 HD
ATOM     12  H   UNL     1       0.676   4.337  20.550  0.00  0.00    +0.000 HD
ENDBRANCH   1   8
BRANCH   4  13
ATOM     13  S   UNL     1       5.552   6.115  16.443  0.00  0.00    +0.000 S 
ATOM     14  O   UNL     1       5.005   6.783  15.284  0.00  0.00    +0.000 OA
ATOM     15  O   UNL     1       6.249   6.854  17.477  0.00  0.00    +0.000 OA
BRANCH  13  16
ATOM     16  N   UNL     1       6.613   4.905  15.944  0.00  0.00    +0.000 N 
ATOM     17  H   UNL     1       6.767   4.164  16.624  0.00  0.00    +0.000 HD
BRANCH  16  18
ATOM     18  C   UNL     1       6.752   4.620  14.562  0.00  0.00    +0.000 A 
ATOM     19  C   UNL     1       7.694   5.329  13.820  0.00  0.00    +0.000 A 
ATOM     20  C   UNL     1       7.814   5.098  12.449  0.00  0.00    +0.000 A 
ATOM     21  C   UNL     1       6.977   4.175  11.821  0.00  0.00    +0.000 A 
ATOM     22  C   UNL     1       6.037   3.464  12.568  0.00  0.00    +0.000 A 
ATOM     23  C   UNL     1       5.934   3.674  13.945  0.00  0.00    +0.000 A 
ENDBRANCH  16  18
ENDBRANCH  13  16
ENDBRANCH   4  13
TORSDOF 4
ENDMDL
MODEL 4
REMARK VINA RESULT:      -7.8      0.117      1.576
REMARK  Name = 
REMARK  4 active torsions:
REMARK  status: ('A' for Active; 'I' for Inactive)
REMARK    1  A    between atoms: C_2  and  C_4
REMARK    2  A    between atoms: C_7  and  S_8
REMARK    3  A    between atoms: S_8  and  N_11
REMARK    4  A    between atoms: N_11  and  C_12
REMARK                            x       y       z     vdW  Elec       q    Type
REMARK                         _______ _______ _______ _____ _____    ______ ____
ROOT
ATOM      1  C   UNL     1       6.605   4.594  14.691  0.00  0.00    +0.000 A 
ATOM      2  C   UNL     1       7.585   4.777  15.675  0.00  0.00    +0.000 A 
ATOM      3  C   UNL     1       7.224   4.839  17.023  0.00  0.00    +0.000 A 
ATOM      4  C   UNL     1       5.879   4.706  17.383  0.00  0.00    +0.000 A 
ATOM      5  C   UNL     1       4.902   4.468  16.411  0.00  0.00    +0.000 A 
ATOM      6  C   UNL     1       5.264   4.427  15.061  0.00  0.00    +0.000 A 
ENDROOT
BRANCH   1   8
ATOM      7  N   UNL     1       6.514   3.675  12.469  0.00  0.00    +0.000 NA
ATOM      8  C   UNL     1       7.006   4.576  13.254  0.00  0.00    +0.000 C 
ATOM      9  N   UNL     1       7.905   5.486  12.779  0.00  0.00    +0.000 N 
ATOM     10  H   UNL     1       6.853   3.820  11.517  0.00  0.00    +0.000 HD
ATOM     11  H   UNL     1       8.376   5.226  11.920  0.00  0.00    +0.000 HD
ATOM     12  H   UNL     1       8.556   5.859  13.462  0.00  0.00    +0.000 HD
ENDBRANCH   1   8
BRANCH   4  13
ATOM     13  S   UNL     1       5.420   4.795  19.106  0.00  0.00    +0.000 S 
ATOM     14  O   UNL     1       6.623   5.016  19.876  0.00  0.00    +0.000 OA
ATOM     15  O   UNL     1       4.287   5.694  19.204  0.00  0.00    +0.000 OA
BRANCH  13  16
ATOM     16  N   UNL     1       4.819   3.256  19.434  0.00  0.00    +0.000 N 
ATOM     17  H   UNL     1       5.451   2.650  19.952  0.00  0.00    +0.000 HD
BRANCH  16  18
ATOM     18  C   UNL     1       3.419   3.060  19.547  0.00  0.00    +0.000 A 
ATOM     19  C   UNL     1       2.826   3.151  20.804  0.00  0.00    +0.000 A 
ATOM     20  C   UNL     1       1.458   2.915  20.945  0.00  0.00    +0.000 A 
ATOM     21  C   UNL     1       0.692   2.568  19.832  0.00  0.00    +0.000 A 
ATOM     22  C   UNL     1       1.288   2.482  18.573  0.00  0.00    +0.000 A 
ATOM     23  C   UNL     1       2.653   2.744  18.427  0.00  0.00    +0.000 A 
ENDBRANCH  16  18
ENDBRANCH  13  16
ENDBRANCH   4  13
TORSDOF 4
ENDMDL
MODEL 5
REMARK VINA RESULT:      -7.8      2.467      6.697
REMARK  Name = 
REMARK  4 active torsions:
REMARK  status: ('A' for Active; 'I' for Inactive)
REMARK    1  A    between atoms: C_2  and  C_4
REMARK    2  A    between atoms: C_7  and  S_8
REMARK    3  A    between atoms: S_8  and  N_11
REMARK    4  A    between atoms: N_11  and  C_12
REMARK                            x       y       z     vdW  Elec       q    Type
REMARK                         _______ _______ _______ _____ _____    ______ ____
ROOT
ATOM      1  C   UNL     1       2.221   3.841  18.437  0.00  0.00    +0.000 A 
ATOM      2  C   UNL     1       2.333   5.222  18.640  0.00  0.00    +0.000 A 
ATOM      3  C   UNL     1       3.358   5.942  18.023  0.00  0.00    +0.000 A 
ATOM      4  C   UNL     1       4.267   5.275  17.193  0.00  0.00    +0.000 A 
ATOM      5  C   UNL     1       4.128   3.906  16.943  0.00  0.00    +0.000 A 
ATOM      6  C   UNL     1       3.113   3.185  17.578  0.00  0.00    +0.000 A 
ENDROOT
BRANCH   1   8
ATOM      7  N   UNL     1       0.772   1.935  18.679  0.00  0.00    +0.000 NA
ATOM      8  C   UNL     1       1.146   3.083  19.141  0.00  0.00    +0.000 C 
ATOM      9  N   UNL     1       0.543   3.609  20.246  0.00  0.00    +0.000 N 
ATOM     10  H   UNL     1       0.061   1.529  19.290  0.00  0.00    +0.000 HD
ATOM     11  H   UNL     1      -0.368   3.227  20.470  0.00  0.00    +0.000 HD
ATOM     12  H   UNL     1       0.547   4.622  20.309  0.00  0.00    +0.000 HD
ENDBRANCH   1   8
BRANCH   4  13
ATOM     13  S   UNL     1       5.582   6.196  16.415  0.00  0.00    +0.000 S 
ATOM     14  O   UNL     1       5.025   6.892  15.277  0.00  0.00    +0.000 OA
ATOM     15  O   UNL     1       6.287   6.910  17.462  0.00  0.00    +0.000 OA
BRANCH  13  16
ATOM     16  N   UNL     1       6.639   4.999  15.879  0.00  0.00    +0.000 N 
ATOM     17  H   UNL     1       6.818   4.255  16.549  0.00  0.00    +0.000 HD
BRANCH  16  18
ATOM     18  C   UNL     1       6.742   4.725  14.491  0.00  0.00    +0.000 A 
ATOM     19  C   UNL     1       5.922   3.746  13.935  0.00  0.00    +0.000 A 
ATOM     20  C   UNL     1       6.041   3.428  12.581  0.00  0.00    +0.000 A 
ATOM     21  C   UNL     1       6.994   4.075  11.794  0.00  0.00    +0.000 A 
ATOM     22  C   UNL     1       7.811   5.058  12.353  0.00  0.00    +0.000 A 
ATOM     23  C   UNL     1       7.674   5.397  13.702  0.00  0.00    +0.000 A 
ENDBRANCH  16  18
ENDBRANCH  13  16
ENDBRANCH   4  13
TORSDOF 4
ENDMDL
MODEL 6
REMARK VINA RESULT:      -7.7      0.150      1.346
REMARK  Name = 
REMARK  4 active torsions:
REMARK  status: ('A' for Active; 'I' for Inactive)
REMARK    1  A    between atoms: C_2  and  C_4
REMARK    2  A    between atoms: C_7  and  S_8
REMARK    3  A    between atoms: S_8  and  N_11
REMARK    4  A    between atoms: N_11  and  C_12
REMARK                            x       y       z     vdW  Elec       q    Type
REMARK                         _______ _______ _______ _____ _____    ______ ____
ROOT
ATOM      1  C   UNL     1       6.496   4.392  14.645  0.00  0.00    +0.000 A 
ATOM      2  C   UNL     1       5.168   4.253  15.067  0.00  0.00    +0.000 A 
ATOM      3  C   UNL     1       4.843   4.374  16.420  0.00  0.00    +0.000 A 
ATOM      4  C   UNL     1       5.854   4.646  17.349  0.00  0.00    +0.000 A 
ATOM      5  C   UNL     1       7.173   4.839  16.929  0.00  0.00    +0.000 A 
ATOM      6  C   UNL     1       7.497   4.696  15.577  0.00  0.00    +0.000 A 
ENDROOT
BRANCH   1   8
ATOM      7  N   UNL     1       7.614   5.060  12.622  0.00  0.00    +0.000 NA
ATOM      8  C   UNL     1       6.828   4.214  13.202  0.00  0.00    +0.000 C 
ATOM      9  N   UNL     1       6.285   3.182  12.493  0.00  0.00    +0.000 N 
ATOM     10  H   UNL     1       7.772   4.781  11.653  0.00  0.00    +0.000 HD
ATOM     11  H   UNL     1       6.274   3.302  11.487  0.00  0.00    +0.000 HD
ATOM     12  H   UNL     1       5.396   2.832  12.835  0.00  0.00    +0.000 HD
ENDBRANCH   1   8
BRANCH   4  13
ATOM     13  S   UNL     1       5.437   4.790  19.079  0.00  0.00    +0.000 S 
ATOM     14  O   UNL     1       6.658   5.031  19.812  0.00  0.00    +0.000 OA
ATOM     15  O   UNL     1       4.309   5.695  19.176  0.00  0.00    +0.000 OA
BRANCH  13  16
ATOM     16  N   UNL     1       4.840   3.264  19.469  0.00  0.00    +0.000 N 
ATOM     17  H   UNL     1       5.472   2.683  20.015  0.00  0.00    +0.000 HD
BRANCH  16  18
ATOM     18  C   UNL     1       3.440   3.068  19.584  0.00  0.00    +0.000 A 
ATOM     19  C   UNL     1       2.841   3.204  20.835  0.00  0.00    +0.000 A 
ATOM     20  C   UNL     1       1.474   2.969  20.979  0.00  0.00    +0.000 A 
ATOM     21  C   UNL     1       0.713   2.577  19.877  0.00  0.00    +0.000 A 
ATOM     22  C   UNL     1       1.315   2.446  18.625  0.00  0.00    +0.000 A 
ATOM     23  C   UNL     1       2.679   2.708  18.474  0.00  0.00    +0.000 A 
ENDBRANCH  16  18
ENDBRANCH  13  16
ENDBRANCH   4  13
TORSDOF 4
ENDMDL
MODEL 7
REMARK VINA RESULT:      -7.7      1.065      1.922
REMARK  Name = 
REMARK  4 active torsions:
REMARK  status: ('A' for Active; 'I' for Inactive)
REMARK    1  A    between atoms: C_2  and  C_4
REMARK    2  A    between atoms: C_7  and  S_8
REMARK    3  A    between atoms: S_8  and  N_11
REMARK    4  A    between atoms: N_11  and  C_12
REMARK                            x       y       z     vdW  Elec       q    Type
REMARK                         _______ _______ _______ _____ _____    ______ ____
ROOT
ATOM      1  C   UNL     1       6.662   4.471  14.689  0.00  0.00    +0.000 A 
ATOM      2  C   UNL     1       7.480   5.155  15.597  0.00  0.00    +0.000 A 
ATOM      3  C   UNL     1       7.137   5.209  16.949  0.00  0.00    +0.000 A 
ATOM      4  C   UNL     1       5.975   4.566  17.392  0.00  0.00    +0.000 A 
ATOM      5  C   UNL     1       5.183   3.836  16.501  0.00  0.00    +0.000 A 
ATOM      6  C   UNL     1       5.519   3.801  15.145  0.00  0.00    +0.000 A 
ENDROOT
BRANCH   1   8
ATOM      7  N   UNL     1       6.551   3.535  12.475  0.00  0.00    +0.000 NA
ATOM      8  C   UNL     1       7.022   4.462  13.241  0.00  0.00    +0.000 C 
ATOM      9  N   UNL     1       7.864   5.411  12.737  0.00  0.00    +0.000 N 
ATOM     10  H   UNL     1       6.857   3.690  11.513  0.00  0.00    +0.000 HD
ATOM     11  H   UNL     1       8.323   5.168  11.866  0.00  0.00    +0.000 HD
ATOM     12  H   UNL     1       8.516   5.818  13.399  0.00  0.00    +0.000 HD
ENDBRANCH   1   8
BRANCH   4  13
ATOM     13  S   UNL     1       5.534   4.646  19.120  0.00  0.00    +0.000 S 
ATOM     14  O   UNL     1       5.380   3.293  19.603  0.00  0.00    +0.000 OA
ATOM     15  O   UNL     1       6.450   5.573  19.756  0.00  0.00    +0.000 OA
BRANCH  13  16
ATOM     16  N   UNL     1       4.034   5.413  19.109  0.00  0.00    +0.000 N 
ATOM     17  H   UNL     1       3.989   6.257  18.543  0.00  0.00    +0.000 HD
BRANCH  16  18
ATOM     18  C   UNL     1       2.857   4.651  19.317  0.00  0.00    +0.000 A 
ATOM     19  C   UNL     1       2.368   4.506  20.613  0.00  0.00    +0.000 A 
ATOM     20  C   UNL     1       1.238   3.722  20.846  0.00  0.00    +0.000 A 
ATOM     21  C   UNL     1       0.613   3.068  19.784  0.00  0.00    +0.000 A 
ATOM     22  C   UNL     1       1.101   3.218  18.486  0.00  0.00    +0.000 A 
ATOM     23  C   UNL     1       2.216   4.025  18.248  0.00  0.00    +0.000 A 
ENDBRANCH  16  18
ENDBRANCH  13  16
ENDBRANCH   4  13
TORSDOF 4
ENDMDL
MODEL 8
REMARK VINA RESULT:      -7.7      0.968      1.075
REMARK  Name = 
REMARK  4 active torsions:
REMARK  status: ('A' for Active; 'I' for Inactive)
REMARK    1  A    between atoms: C_2  and  C_4
REMARK    2  A    between atoms: C_7  and  S_8
REMARK    3  A    between atoms: S_8  and  N_11
REMARK    4  A    between atoms: N_11  and  C_12
REMARK                            x       y       z     vdW  Elec       q    Type
REMARK                         _______ _______ _______ _____ _____    ______ ____
ROOT
ATOM      1  C   UNL     1       6.625   4.519  14.655  0.00  0.00    +0.000 A 
ATOM      2  C   UNL     1       5.298   4.301  15.046  0.00  0.00    +0.000 A 
ATOM      3  C   UNL     1       4.950   4.327  16.398  0.00  0.00    +0.000 A 
ATOM      4  C   UNL     1       5.935   4.583  17.358  0.00  0.00    +0.000 A 
ATOM      5  C   UNL     1       7.251   4.855  16.972  0.00  0.00    +0.000 A 
ATOM      6  C   UNL     1       7.600   4.808  15.619  0.00  0.00    +0.000 A 
ENDROOT
BRANCH   1   8
ATOM      7  N   UNL     1       6.543   3.460  12.496  0.00  0.00    +0.000 NA
ATOM      8  C   UNL     1       6.984   4.443  13.209  0.00  0.00    +0.000 C 
ATOM      9  N   UNL     1       7.795   5.389  12.651  0.00  0.00    +0.000 N 
ATOM     10  H   UNL     1       6.843   3.571  11.526  0.00  0.00    +0.000 HD
ATOM     11  H   UNL     1       8.261   5.113  11.794  0.00  0.00    +0.000 HD
ATOM     12  H   UNL     1       8.434   5.853  13.288  0.00  0.00    +0.000 HD
ENDBRANCH   1   8
BRANCH   4  13
ATOM     13  S   UNL     1       5.489   4.605  19.086  0.00  0.00    +0.000 S 
ATOM     14  O   UNL     1       5.410   3.236  19.543  0.00  0.00    +0.000 OA
ATOM     15  O   UNL     1       6.350   5.569  19.741  0.00  0.00    +0.000 OA
BRANCH  13  16
ATOM     16  N   UNL     1       3.948   5.286  19.086  0.00  0.00    +0.000 N 
ATOM     17  H   UNL     1       3.835   6.090  18.474  0.00  0.00    +0.000 HD
BRANCH  16  18
ATOM     18  C   UNL     1       2.823   4.475  19.384  0.00  0.00    +0.000 A 
ATOM     19  C   UNL     1       2.159   3.834  18.340  0.00  0.00    +0.000 A 
ATOM     20  C   UNL     1       1.023   3.070  18.606  0.00  0.00    +0.000 A 
ATOM     21  C   UNL     1       0.541   2.967  19.911  0.00  0.00    +0.000 A 
ATOM     22  C   UNL     1       1.211   3.606  20.955  0.00  0.00    +0.000 A 
ATOM     23  C   UNL     1       2.365   4.349  20.694  0.00  0.00    +0.000 A 
ENDBRANCH  16  18
ENDBRANCH  13  16
ENDBRANCH   4  13
TORSDOF 4
ENDMDL
MODEL 9
REMARK VINA RESULT:      -7.5      2.489      6.709
REMARK  Name = 
REMARK  4 active torsions:
REMARK  status: ('A' for Active; 'I' for Inactive)
REMARK    1  A    between atoms: C_2  and  C_4
REMARK    2  A    between atoms: C_7  and  S_8
REMARK    3  A    between atoms: S_8  and  N_11
REMARK    4  A    between atoms: N_11  and  C_12
REMARK                            x       y       z     vdW  Elec       q    Type
REMARK                         _______ _______ _______ _____ _____    ______ ____
ROOT
ATOM      1  C   UNL     1       2.260   4.020  18.529  0.00  0.00    +0.000 A 
ATOM      2  C   UNL     1       2.210   5.414  18.406  0.00  0.00    +0.000 A 
ATOM      3  C   UNL     1       3.240   6.101  17.761  0.00  0.00    +0.000 A 
ATOM      4  C   UNL     1       4.319   5.385  17.230  0.00  0.00    +0.000 A 
ATOM      5  C   UNL     1       4.350   3.989  17.301  0.00  0.00    +0.000 A 
ATOM      6  C   UNL     1       3.327   3.307  17.966  0.00  0.00    +0.000 A 
ENDROOT
BRANCH   1   8
ATOM      7  N   UNL     1       0.786   3.753  20.411  0.00  0.00    +0.000 NA
ATOM      8  C   UNL     1       1.172   3.310  19.260  0.00  0.00    +0.000 C 
ATOM      9  N   UNL     1       0.607   2.185  18.731  0.00  0.00    +0.000 N 
ATOM     10  H   UNL     1       0.013   3.185  20.762  0.00  0.00    +0.000 HD
ATOM     11  H   UNL     1       0.137   1.580  19.395  0.00  0.00    +0.000 HD
ATOM     12  H   UNL     1       1.195   1.655  18.096  0.00  0.00    +0.000 HD
ENDBRANCH   1   8
BRANCH   4  13
ATOM     13  S   UNL     1       5.640   6.267  16.415  0.00  0.00    +0.000 S 
ATOM     14  O   UNL     1       5.089   6.911  15.245  0.00  0.00    +0.000 OA
ATOM     15  O   UNL     1       6.342   7.026  17.432  0.00  0.00    +0.000 OA
BRANCH  13  16
ATOM     16  N   UNL     1       6.696   5.044  15.939  0.00  0.00    +0.000 N 
ATOM     17  H   UNL     1       6.878   4.336  16.646  0.00  0.00    +0.000 HD
BRANCH  16  18
ATOM     18  C   UNL     1       6.794   4.698  14.567  0.00  0.00    +0.000 A 
ATOM     19  C   UNL     1       7.733   5.353  13.773  0.00  0.00    +0.000 A 
ATOM     20  C   UNL     1       7.814   5.061  12.411  0.00  0.00    +0.000 A 
ATOM     21  C   UNL     1       6.942   4.132  11.844  0.00  0.00    +0.000 A 
ATOM     22  C   UNL     1       6.006   3.475  12.642  0.00  0.00    +0.000 A 
ATOM     23  C   UNL     1       5.942   3.746  14.011  0.00  0.00    +0.000 A 
ENDBRANCH  16  18
ENDBRANCH  13  16
ENDBRANCH   4  13
TORSDOF 4
ENDMDL
