MODEL 1
REMARK VINA RESULT:      -7.9      0.000      0.000
REMARK  Name = 
REMARK  5 active torsions:
REMARK  status: ('A' for Active; 'I' for Inactive)
REMARK    1  A    between atoms: N_2  and  C_4
REMARK    2  A    between atoms: C_10  and  C_11
REMARK    3  A    between atoms: C_11  and  C_12
REMARK    4  A    between atoms: C_11  and  C_19
REMARK    5  A    between atoms: C_25  and  N_26
REMARK                            x       y       z     vdW  Elec       q    Type
REMARK                         _______ _______ _______ _____ _____    ______ ____
ROOT
ATOM      1  C   UNL     1       0.365  10.534  18.923  0.00  0.00    +0.000 C 
ENDROOT
BRANCH   1   8
ATOM      2  C   UNL     1      -3.283  10.584  15.836  0.00  0.00    +0.000 A 
ATOM      3  C   UNL     1      -4.377  11.308  16.311  0.00  0.00    +0.000 A 
ATOM      4  C   UNL     1      -4.348  11.862  17.594  0.00  0.00    +0.000 A 
ATOM      5  C   UNL     1      -3.191  11.678  18.365  0.00  0.00    +0.000 A 
ATOM      6  N   UNL     1      -2.898  12.126  19.630  0.00  0.00    +0.000 N 
ATOM      7  C   UNL     1      -1.624  11.765  19.975  0.00  0.00    +0.000 A 
ATOM      8  C   UNL     1      -1.060  11.045  18.932  0.00  0.00    +0.000 A 
ATOM      9  C   UNL     1      -2.076  10.971  17.912  0.00  0.00    +0.000 A 
ATOM     10  C   UNL     1      -2.137  10.406  16.622  0.00  0.00    +0.000 A 
ATOM     11  H   UNL     1      -3.523  12.674  20.207  0.00  0.00    +0.000 HD
BRANCH   2  13
ATOM     12  O   UNL     1      -2.219   9.737  13.956  0.00  0.00    +0.000 OA
ATOM     13  N   UNL     1      -3.305  10.022  14.480  0.00  0.00    +0.000 N 
ATOM     14  O   UNL     1      -4.407   9.851  13.941  0.00  0.00    +0.000 OA
ENDBRANCH   2  13
ENDBRANCH   1   8
BRANCH   1  15
ATOM     15  C   UNL     1       0.685   9.399  19.869  0.00  0.00    +0.000 A 
ATOM     16  C   UNL     1       0.156   9.138  21.122  0.00  0.00    +0.000 A 
ATOM     17  N   UNL     1       0.678   7.964  21.592  0.00  0.00    +0.000 N 
ATOM     18  C   UNL     1       1.518   7.411  20.655  0.00  0.00    +0.000 A 
ATOM     19  C   UNL     1       2.228   6.205  20.684  0.00  0.00    +0.000 A 
ATOM     20  C   UNL     1       3.005   5.881  19.567  0.00  0.00    +0.000 A 
ATOM     21  C   UNL     1       3.069   6.751  18.473  0.00  0.00    +0.000 A 
ATOM     22  C   UNL     1       2.359   7.961  18.462  0.00  0.00    +0.000 A 
ATOM     23  C   UNL     1       1.556   8.291  19.574  0.00  0.00    +0.000 A 
ATOM     24  H   UNL     1       0.453   7.543  22.484  0.00  0.00    +0.000 HD
BRANCH  21  25
ATOM     25  N   UNL     1       3.881   6.390  17.303  0.00  0.00    +0.000 N 
ATOM     26  O   UNL     1       4.439   7.307  16.683  0.00  0.00    +0.000 OA
ATOM     27  O   UNL     1       3.968   5.189  17.009  0.00  0.00    +0.000 OA
ENDBRANCH  21  25
ENDBRANCH   1  15
BRANCH   1  28
ATOM     28  C   UNL     1       1.293  11.718  19.179  0.00  0.00    +0.000 A 
ATOM     29  C   UNL     1       1.482  12.314  20.440  0.00  0.00    +0.000 A 
ATOM     30  C   UNL     1       2.310  13.429  20.603  0.00  0.00    +0.000 A 
ATOM     31  C   UNL     1       3.002  13.941  19.512  0.00  0.00    +0.000 A 
ATOM     32 CL   UNL     1       4.028  15.307  19.713  0.00  0.00    +0.000 Cl
ATOM     33  C   UNL     1       2.873  13.347  18.260  0.00  0.00    +0.000 A 
ATOM     34  C   UNL     1       2.018  12.253  18.094  0.00  0.00    +0.000 A 
ENDBRANCH   1  28
TORSDOF 5
ENDMDL
MODEL 2
REMARK VINA RESULT:      -7.9      2.872      6.964
REMARK  Name = 
REMARK  5 active torsions:
REMARK  status: ('A' for Active; 'I' for Inactive)
REMARK    1  A    between atoms: N_2  and  C_4
REMARK    2  A    between atoms: C_10  and  C_11
REMARK    3  A    between atoms: C_11  and  C_12
REMARK    4  A    between atoms: C_11  and  C_19
REMARK    5  A    between atoms: C_25  and  N_26
REMARK                            x       y       z     vdW  Elec       q    Type
REMARK                         _______ _______ _______ _____ _____    ______ ____
ROOT
ATOM      1  C   UNL     1      -1.460  12.730  20.500  0.00  0.00    +0.000 C 
ENDROOT
BRANCH   1   8
ATOM      2  C   UNL     1       1.338   8.965  19.587  0.00  0.00    +0.000 A 
ATOM      3  C   UNL     1       1.498   8.135  20.698  0.00  0.00    +0.000 A 
ATOM      4  C   UNL     1       0.926   8.485  21.925  0.00  0.00    +0.000 A 
ATOM      5  C   UNL     1       0.185   9.674  21.990  0.00  0.00    +0.000 A 
ATOM      6  N   UNL     1      -0.487  10.234  23.049  0.00  0.00    +0.000 N 
ATOM      7  C   UNL     1      -1.128  11.375  22.652  0.00  0.00    +0.000 A 
ATOM      8  C   UNL     1      -0.865  11.596  21.308  0.00  0.00    +0.000 A 
ATOM      9  C   UNL     1      -0.004  10.518  20.893  0.00  0.00    +0.000 A 
ATOM     10  C   UNL     1       0.599  10.152  19.672  0.00  0.00    +0.000 A 
ATOM     11  H   UNL     1      -0.528   9.838  23.979  0.00  0.00    +0.000 HD
BRANCH   2  13
ATOM     12  O   UNL     1       2.319   7.420  18.162  0.00  0.00    +0.000 OA
ATOM     13  N   UNL     1       1.920   8.585  18.294  0.00  0.00    +0.000 N 
ATOM     14  O   UNL     1       1.967   9.445  17.405  0.00  0.00    +0.000 OA
ENDBRANCH   2  13
ENDBRANCH   1   8
BRANCH   1  15
ATOM     15  C   UNL     1      -2.161  12.351  19.215  0.00  0.00    +0.000 A 
ATOM     16  C   UNL     1      -1.612  12.098  17.968  0.00  0.00    +0.000 A 
ATOM     17  N   UNL     1      -2.609  11.718  17.111  0.00  0.00    +0.000 N 
ATOM     18  C   UNL     1      -3.811  11.670  17.773  0.00  0.00    +0.000 A 
ATOM     19  C   UNL     1      -5.078  11.291  17.312  0.00  0.00    +0.000 A 
ATOM     20  C   UNL     1      -6.138  11.323  18.225  0.00  0.00    +0.000 A 
ATOM     21  C   UNL     1      -5.924  11.736  19.544  0.00  0.00    +0.000 A 
ATOM     22  C   UNL     1      -4.651  12.121  19.990  0.00  0.00    +0.000 A 
ATOM     23  C   UNL     1      -3.568  12.075  19.086  0.00  0.00    +0.000 A 
ATOM     24  H   UNL     1      -2.476  11.471  16.138  0.00  0.00    +0.000 HD
BRANCH  21  25
ATOM     25  N   UNL     1      -7.046  11.753  20.492  0.00  0.00    +0.000 N 
ATOM     26  O   UNL     1      -7.278  10.715  21.128  0.00  0.00    +0.000 OA
ATOM     27  O   UNL     1      -7.688  12.806  20.608  0.00  0.00    +0.000 OA
ENDBRANCH  21  25
ENDBRANCH   1  15
BRANCH   1  28
ATOM     28  C   UNL     1      -0.353  13.744  20.222  0.00  0.00    +0.000 A 
ATOM     29  C   UNL     1       1.008  13.523  20.503  0.00  0.00    +0.000 A 
ATOM     30  C   UNL     1       1.970  14.512  20.271  0.00  0.00    +0.000 A 
ATOM     31  C   UNL     1       1.592  15.725  19.708  0.00  0.00    +0.000 A 
ATOM     32 CL   UNL     1       2.775  16.938  19.414  0.00  0.00    +0.000 Cl
ATOM     33  C   UNL     1       0.261  15.958  19.376  0.00  0.00    +0.000 A 
ATOM     34  C   UNL     1      -0.704  14.980  19.641  0.00  0.00    +0.000 A 
ENDBRANCH   1  28
TORSDOF 5
ENDMDL
MODEL 3
REMARK VINA RESULT:      -7.8      0.355      1.193
REMARK  Name = 
REMARK  5 active torsions:
REMARK  status: ('A' for Active; 'I' for Inactive)
REMARK    1  A    between atoms: N_2  and  C_4
REMARK    2  A    between atoms: C_10  and  C_11
REMARK    3  A    between atoms: C_11  and  C_12
REMARK    4  A    between atoms: C_11  and  C_19
REMARK    5  A    between atoms: C_25  and  N_26
REMARK                            x       y       z     vdW  Elec       q    Type
REMARK                         _______ _______ _______ _____ _____    ______ ____
ROOT
ATOM      1  C   UNL     1       0.493  10.566  18.705  0.00  0.00    +0.000 C 
ENDROOT
BRANCH   1   8
ATOM      2  C   UNL     1      -3.278  10.552  15.770  0.00  0.00    +0.000 A 
ATOM      3  C   UNL     1      -4.374  11.231  16.303  0.00  0.00    +0.000 A 
ATOM      4  C   UNL     1      -4.311  11.762  17.596  0.00  0.00    +0.000 A 
ATOM      5  C   UNL     1      -3.118  11.602  18.315  0.00  0.00    +0.000 A 
ATOM      6  N   UNL     1      -2.787  12.036  19.576  0.00  0.00    +0.000 N 
ATOM      7  C   UNL     1      -1.490  11.710  19.862  0.00  0.00    +0.000 A 
ATOM      8  C   UNL     1      -0.946  11.028  18.783  0.00  0.00    +0.000 A 
ATOM      9  C   UNL     1      -2.000  10.940  17.803  0.00  0.00    +0.000 A 
ATOM     10  C   UNL     1      -2.095  10.397  16.506  0.00  0.00    +0.000 A 
ATOM     11  H   UNL     1      -3.406  12.552  20.188  0.00  0.00    +0.000 HD
BRANCH   2  13
ATOM     12  O   UNL     1      -4.456   9.840  13.903  0.00  0.00    +0.000 OA
ATOM     13  N   UNL     1      -3.338  10.015  14.405  0.00  0.00    +0.000 N 
ATOM     14  O   UNL     1      -2.268   9.779  13.828  0.00  0.00    +0.000 OA
ENDBRANCH   2  13
ENDBRANCH   1   8
BRANCH   1  15
ATOM     15  C   UNL     1       0.882   9.408  19.597  0.00  0.00    +0.000 A 
ATOM     16  C   UNL     1       0.393   9.074  20.849  0.00  0.00    +0.000 A 
ATOM     17  N   UNL     1       0.974   7.905  21.258  0.00  0.00    +0.000 N 
ATOM     18  C   UNL     1       1.815   7.427  20.282  0.00  0.00    +0.000 A 
ATOM     19  C   UNL     1       2.575   6.251  20.246  0.00  0.00    +0.000 A 
ATOM     20  C   UNL     1       3.339   6.007  19.100  0.00  0.00    +0.000 A 
ATOM     21  C   UNL     1       3.342   6.923  18.043  0.00  0.00    +0.000 A 
ATOM     22  C   UNL     1       2.583   8.100  18.096  0.00  0.00    +0.000 A 
ATOM     23  C   UNL     1       1.792   8.351  19.238  0.00  0.00    +0.000 A 
ATOM     24  H   UNL     1       0.787   7.439  22.137  0.00  0.00    +0.000 HD
BRANCH  21  25
ATOM     25  N   UNL     1       4.141   6.644  16.841  0.00  0.00    +0.000 N 
ATOM     26  O   UNL     1       4.620   5.508  16.718  0.00  0.00    +0.000 OA
ATOM     27  O   UNL     1       4.281   7.559  16.017  0.00  0.00    +0.000 OA
ENDBRANCH  21  25
ENDBRANCH   1  15
BRANCH   1  28
ATOM     28  C   UNL     1       1.392  11.769  18.974  0.00  0.00    +0.000 A 
ATOM     29  C   UNL     1       2.166  12.412  17.989  0.00  0.00    +0.000 A 
ATOM     30  C   UNL     1       3.009  13.481  18.308  0.00  0.00    +0.000 A 
ATOM     31  C   UNL     1       3.059  13.957  19.613  0.00  0.00    +0.000 A 
ATOM     32 CL   UNL     1       4.089  15.277  20.003  0.00  0.00    +0.000 Cl
ATOM     33  C   UNL     1       2.273  13.373  20.601  0.00  0.00    +0.000 A 
ATOM     34  C   UNL     1       1.456  12.282  20.286  0.00  0.00    +0.000 A 
ENDBRANCH   1  28
TORSDOF 5
ENDMDL
MODEL 4
REMARK VINA RESULT:      -7.8      3.512      6.756
REMARK  Name = 
REMARK  5 active torsions:
REMARK  status: ('A' for Active; 'I' for Inactive)
REMARK    1  A    between atoms: N_2  and  C_4
REMARK    2  A    between atoms: C_10  and  C_11
REMARK    3  A    between atoms: C_11  and  C_12
REMARK    4  A    between atoms: C_11  and  C_19
REMARK    5  A    between atoms: C_25  and  N_26
REMARK                            x       y       z     vdW  Elec       q    Type
REMARK                         _______ _______ _______ _____ _____    ______ ____
ROOT
ATOM      1  C   UNL     1       0.031  12.019  18.651  0.00  0.00    +0.000 C 
ENDROOT
BRANCH   1   8
ATOM      2  C   UNL     1       0.177  16.795  18.734  0.00  0.00    +0.000 A 
ATOM      3  C   UNL     1       1.213  17.285  19.531  0.00  0.00    +0.000 A 
ATOM      4  C   UNL     1       2.024  16.402  20.250  0.00  0.00    +0.000 A 
ATOM      5  C   UNL     1       1.771  15.028  20.129  0.00  0.00    +0.000 A 
ATOM      6  N   UNL     1       2.418  13.961  20.702  0.00  0.00    +0.000 N 
ATOM      7  C   UNL     1       1.874  12.786  20.261  0.00  0.00    +0.000 A 
ATOM      8  C   UNL     1       0.830  13.069  19.392  0.00  0.00    +0.000 A 
ATOM      9  C   UNL     1       0.752  14.507  19.329  0.00  0.00    +0.000 A 
ATOM     10  C   UNL     1      -0.065  15.419  18.629  0.00  0.00    +0.000 A 
ATOM     11  H   UNL     1       3.206  14.036  21.332  0.00  0.00    +0.000 HD
BRANCH   2  13
ATOM     12  O   UNL     1      -0.312  17.981  16.802  0.00  0.00    +0.000 OA
ATOM     13  N   UNL     1      -0.659  17.722  17.962  0.00  0.00    +0.000 N 
ATOM     14  O   UNL     1      -1.671  18.181  18.509  0.00  0.00    +0.000 OA
ENDBRANCH   2  13
ENDBRANCH   1   8
BRANCH   1  15
ATOM     15  C   UNL     1      -1.466  12.033  18.861  0.00  0.00    +0.000 A 
ATOM     16  C   UNL     1      -2.189  12.546  19.926  0.00  0.00    +0.000 A 
ATOM     17  N   UNL     1      -3.525  12.408  19.666  0.00  0.00    +0.000 N 
ATOM     18  C   UNL     1      -3.711  11.850  18.425  0.00  0.00    +0.000 A 
ATOM     19  C   UNL     1      -4.896  11.571  17.733  0.00  0.00    +0.000 A 
ATOM     20  C   UNL     1      -4.786  11.008  16.457  0.00  0.00    +0.000 A 
ATOM     21  C   UNL     1      -3.528  10.725  15.914  0.00  0.00    +0.000 A 
ATOM     22  C   UNL     1      -2.350  11.002  16.623  0.00  0.00    +0.000 A 
ATOM     23  C   UNL     1      -2.445  11.588  17.903  0.00  0.00    +0.000 A 
ATOM     24  H   UNL     1      -4.270  12.708  20.282  0.00  0.00    +0.000 HD
BRANCH  21  25
ATOM     25  N   UNL     1      -3.430  10.144  14.568  0.00  0.00    +0.000 N 
ATOM     26  O   UNL     1      -2.298   9.904  14.125  0.00  0.00    +0.000 OA
ATOM     27  O   UNL     1      -4.485   9.919  13.958  0.00  0.00    +0.000 OA
ENDBRANCH  21  25
ENDBRANCH   1  15
BRANCH   1  28
ATOM     28  C   UNL     1       0.605  10.650  19.004  0.00  0.00    +0.000 A 
ATOM     29  C   UNL     1       0.346   9.973  20.211  0.00  0.00    +0.000 A 
ATOM     30  C   UNL     1       0.941   8.741  20.498  0.00  0.00    +0.000 A 
ATOM     31  C   UNL     1       1.772   8.140  19.560  0.00  0.00    +0.000 A 
ATOM     32 CL   UNL     1       2.497   6.620  19.909  0.00  0.00    +0.000 Cl
ATOM     33  C   UNL     1       2.012   8.760  18.339  0.00  0.00    +0.000 A 
ATOM     34  C   UNL     1       1.443  10.009  18.068  0.00  0.00    +0.000 A 
ENDBRANCH   1  28
TORSDOF 5
ENDMDL
MODEL 5
REMARK VINA RESULT:      -7.7      3.537      6.829
REMARK  Name = 
REMARK  5 active torsions:
REMARK  status: ('A' for Active; 'I' for Inactive)
REMARK    1  A    between atoms: N_2  and  C_4
REMARK    2  A    between atoms: C_10  and  C_11
REMARK    3  A    between atoms: C_11  and  C_12
REMARK    4  A    between atoms: C_11  and  C_19
REMARK    5  A    between atoms: C_25  and  N_26
REMARK                            x       y       z     vdW  Elec       q    Type
REMARK                         _______ _______ _______ _____ _____    ______ ____
ROOT
ATOM      1  C   UNL     1       0.103  12.062  18.592  0.00  0.00    +0.000 C 
ENDROOT
BRANCH   1   8
ATOM      2  C   UNL     1       0.128  16.838  18.731  0.00  0.00    +0.000 A 
ATOM      3  C   UNL     1       1.191  17.347  19.479  0.00  0.00    +0.000 A 
ATOM      4  C   UNL     1       2.062  16.477  20.143  0.00  0.00    +0.000 A 
ATOM      5  C   UNL     1       1.839  15.098  20.017  0.00  0.00    +0.000 A 
ATOM      6  N   UNL     1       2.544  14.042  20.541  0.00  0.00    +0.000 N 
ATOM      7  C   UNL     1       2.008  12.858  20.113  0.00  0.00    +0.000 A 
ATOM      8  C   UNL     1       0.913  13.124  19.305  0.00  0.00    +0.000 A 
ATOM      9  C   UNL     1       0.793  14.559  19.264  0.00  0.00    +0.000 A 
ATOM     10  C   UNL     1      -0.083  15.458  18.620  0.00  0.00    +0.000 A 
ATOM     11  H   UNL     1       3.362  14.131  21.130  0.00  0.00    +0.000 HD
BRANCH   2  13
ATOM     12  O   UNL     1      -1.905  17.926  18.483  0.00  0.00    +0.000 OA
ATOM     13  N   UNL     1      -0.772  17.751  18.017  0.00  0.00    +0.000 N 
ATOM     14  O   UNL     1      -0.343  18.306  16.995  0.00  0.00    +0.000 OA
ENDBRANCH   2  13
ENDBRANCH   1   8
BRANCH   1  15
ATOM     15  C   UNL     1      -1.389  12.067  18.838  0.00  0.00    +0.000 A 
ATOM     16  C   UNL     1      -2.089  12.580  19.918  0.00  0.00    +0.000 A 
ATOM     17  N   UNL     1      -3.430  12.434  19.690  0.00  0.00    +0.000 N 
ATOM     18  C   UNL     1      -3.643  11.871  18.456  0.00  0.00    +0.000 A 
ATOM     19  C   UNL     1      -4.842  11.583  17.793  0.00  0.00    +0.000 A 
ATOM     20  C   UNL     1      -4.759  11.015  16.517  0.00  0.00    +0.000 A 
ATOM     21  C   UNL     1      -3.513  10.738  15.945  0.00  0.00    +0.000 A 
ATOM     22  C   UNL     1      -2.319  11.024  16.625  0.00  0.00    +0.000 A 
ATOM     23  C   UNL     1      -2.387  11.614  17.905  0.00  0.00    +0.000 A 
ATOM     24  H   UNL     1      -4.162  12.731  20.322  0.00  0.00    +0.000 HD
BRANCH  21  25
ATOM     25  N   UNL     1      -3.443  10.153  14.599  0.00  0.00    +0.000 N 
ATOM     26  O   UNL     1      -2.320   9.922  14.128  0.00  0.00    +0.000 OA
ATOM     27  O   UNL     1      -4.511   9.915  14.017  0.00  0.00    +0.000 OA
ENDBRANCH  21  25
ENDBRANCH   1  15
BRANCH   1  28
ATOM     28  C   UNL     1       0.694  10.700  18.944  0.00  0.00    +0.000 A 
ATOM     29  C   UNL     1       1.512   9.947  18.080  0.00  0.00    +0.000 A 
ATOM     30  C   UNL     1       1.983   8.681  18.442  0.00  0.00    +0.000 A 
ATOM     31  C   UNL     1       1.684   8.165  19.697  0.00  0.00    +0.000 A 
ATOM     32 CL   UNL     1       2.272   6.612  20.146  0.00  0.00    +0.000 Cl
ATOM     33  C   UNL     1       0.917   8.903  20.592  0.00  0.00    +0.000 A 
ATOM     34  C   UNL     1       0.418  10.154  20.215  0.00  0.00    +0.000 A 
ENDBRANCH   1  28
TORSDOF 5
ENDMDL
MODEL 6
REMARK VINA RESULT:      -7.6      2.839      3.515
REMARK  Name = 
REMARK  5 active torsions:
REMARK  status: ('A' for Active; 'I' for Inactive)
REMARK    1  A    between atoms: N_2  and  C_4
REMARK    2  A    between atoms: C_10  and  C_11
REMARK    3  A    between atoms: C_11  and  C_12
REMARK    4  A    between atoms: C_11  and  C_19
REMARK    5  A    between atoms: C_25  and  N_26
REMARK                            x       y       z     vdW  Elec       q    Type
REMARK                         _______ _______ _______ _____ _____    ______ ____
ROOT
ATOM      1  C   UNL     1      -1.309  12.555  21.195  0.00  0.00    +0.000 C 
ENDROOT
BRANCH   1   8
ATOM      2  C   UNL     1      -3.604  11.228  17.219  0.00  0.00    +0.000 A 
ATOM      3  C   UNL     1      -4.958  11.565  17.244  0.00  0.00    +0.000 A 
ATOM      4  C   UNL     1      -5.513  12.159  18.383  0.00  0.00    +0.000 A 
ATOM      5  C   UNL     1      -4.667  12.411  19.472  0.00  0.00    +0.000 A 
ATOM      6  N   UNL     1      -4.946  12.992  20.685  0.00  0.00    +0.000 N 
ATOM      7  C   UNL     1      -3.805  13.096  21.432  0.00  0.00    +0.000 A 
ATOM      8  C   UNL     1      -2.745  12.557  20.717  0.00  0.00    +0.000 A 
ATOM      9  C   UNL     1      -3.306  12.098  19.471  0.00  0.00    +0.000 A 
ATOM     10  C   UNL     1      -2.775  11.483  18.319  0.00  0.00    +0.000 A 
ATOM     11  H   UNL     1      -5.859  13.325  20.968  0.00  0.00    +0.000 HD
BRANCH   2  13
ATOM     12  O   UNL     1      -2.336   9.602  16.156  0.00  0.00    +0.000 OA
ATOM     13  N   UNL     1      -3.018  10.627  16.015  0.00  0.00    +0.000 N 
ATOM     14  O   UNL     1      -3.248  11.169  14.926  0.00  0.00    +0.000 OA
ENDBRANCH   2  13
ENDBRANCH   1   8
BRANCH   1  15
ATOM     15  C   UNL     1      -0.807  11.277  21.827  0.00  0.00    +0.000 A 
ATOM     16  C   UNL     1      -1.114  10.742  23.067  0.00  0.00    +0.000 A 
ATOM     17  N   UNL     1      -0.490   9.531  23.198  0.00  0.00    +0.000 N 
ATOM     18  C   UNL     1       0.196   9.225  22.049  0.00  0.00    +0.000 A 
ATOM     19  C   UNL     1       0.933   8.081  21.718  0.00  0.00    +0.000 A 
ATOM     20  C   UNL     1       1.522   8.031  20.450  0.00  0.00    +0.000 A 
ATOM     21  C   UNL     1       1.381   9.102  19.562  0.00  0.00    +0.000 A 
ATOM     22  C   UNL     1       0.648  10.246  19.910  0.00  0.00    +0.000 A 
ATOM     23  C   UNL     1       0.032  10.302  21.178  0.00  0.00    +0.000 A 
ATOM     24  H   UNL     1      -0.554   8.930  24.009  0.00  0.00    +0.000 HD
BRANCH  21  25
ATOM     25  N   UNL     1       1.996   9.028  18.229  0.00  0.00    +0.000 N 
ATOM     26  O   UNL     1       1.913  10.026  17.500  0.00  0.00    +0.000 OA
ATOM     27  O   UNL     1       2.571   7.976  17.917  0.00  0.00    +0.000 OA
ENDBRANCH  21  25
ENDBRANCH   1  15
BRANCH   1  28
ATOM     28  C   UNL     1      -1.127  13.729  22.154  0.00  0.00    +0.000 A 
ATOM     29  C   UNL     1      -1.450  13.686  23.523  0.00  0.00    +0.000 A 
ATOM     30  C   UNL     1      -1.307  14.811  24.341  0.00  0.00    +0.000 A 
ATOM     31  C   UNL     1      -0.792  15.989  23.812  0.00  0.00    +0.000 A 
ATOM     32 CL   UNL     1      -0.607  17.370  24.820  0.00  0.00    +0.000 Cl
ATOM     33  C   UNL     1      -0.421  16.051  22.473  0.00  0.00    +0.000 A 
ATOM     34  C   UNL     1      -0.597  14.934  21.650  0.00  0.00    +0.000 A 
ENDBRANCH   1  28
TORSDOF 5
ENDMDL
MODEL 7
REMARK VINA RESULT:      -7.6      2.810      3.594
REMARK  Name = 
REMARK  5 active torsions:
REMARK  status: ('A' for Active; 'I' for Inactive)
REMARK    1  A    between atoms: N_2  and  C_4
REMARK    2  A    between atoms: C_10  and  C_11
REMARK    3  A    between atoms: C_11  and  C_12
REMARK    4  A    between atoms: C_11  and  C_19
REMARK    5  A    between atoms: C_25  and  N_26
REMARK                            x       y       z     vdW  Elec       q    Type
REMARK                         _______ _______ _______ _____ _____    ______ ____
ROOT
ATOM      1  C   UNL     1       0.496  10.807  18.838  0.00  0.00    +0.000 C 
ENDROOT
BRANCH   1   8
ATOM      2  C   UNL     1      -2.868  12.503  21.777  0.00  0.00    +0.000 A 
ATOM      3  C   UNL     1      -4.070  12.770  21.120  0.00  0.00    +0.000 A 
ATOM      4  C   UNL     1      -4.164  12.601  19.735  0.00  0.00    +0.000 A 
ATOM      5  C   UNL     1      -3.030  12.145  19.048  0.00  0.00    +0.000 A 
ATOM      6  N   UNL     1      -2.860  11.879  17.711  0.00  0.00    +0.000 N 
ATOM      7  C   UNL     1      -1.602  11.393  17.483  0.00  0.00    +0.000 A 
ATOM      8  C   UNL     1      -0.908  11.352  18.683  0.00  0.00    +0.000 A 
ATOM      9  C   UNL     1      -1.819  11.856  19.680  0.00  0.00    +0.000 A 
ATOM     10  C   UNL     1      -1.743  12.053  21.074  0.00  0.00    +0.000 A 
ATOM     11  H   UNL     1      -3.576  11.994  17.005  0.00  0.00    +0.000 HD
BRANCH   2  13
ATOM     12  O   UNL     1      -3.549  11.993  23.936  0.00  0.00    +0.000 OA
ATOM     13  N   UNL     1      -2.776  12.660  23.234  0.00  0.00    +0.000 N 
ATOM     14  O   UNL     1      -1.923  13.439  23.680  0.00  0.00    +0.000 OA
ENDBRANCH   2  13
ENDBRANCH   1   8
BRANCH   1  15
ATOM     15  C   UNL     1       0.679   9.675  19.823  0.00  0.00    +0.000 A 
ATOM     16  C   UNL     1       0.073   9.489  21.055  0.00  0.00    +0.000 A 
ATOM     17  N   UNL     1       0.477   8.290  21.575  0.00  0.00    +0.000 N 
ATOM     18  C   UNL     1       1.311   7.648  20.691  0.00  0.00    +0.000 A 
ATOM     19  C   UNL     1       1.919   6.389  20.781  0.00  0.00    +0.000 A 
ATOM     20  C   UNL     1       2.717   5.975  19.709  0.00  0.00    +0.000 A 
ATOM     21  C   UNL     1       2.902   6.809  18.601  0.00  0.00    +0.000 A 
ATOM     22  C   UNL     1       2.294   8.071  18.529  0.00  0.00    +0.000 A 
ATOM     23  C   UNL     1       1.470   8.494  19.594  0.00  0.00    +0.000 A 
ATOM     24  H   UNL     1       0.177   7.911  22.464  0.00  0.00    +0.000 HD
BRANCH  21  25
ATOM     25  N   UNL     1       3.734   6.354  17.479  0.00  0.00    +0.000 N 
ATOM     26  O   UNL     1       4.383   7.209  16.859  0.00  0.00    +0.000 OA
ATOM     27  O   UNL     1       3.746   5.142  17.223  0.00  0.00    +0.000 OA
ENDBRANCH  21  25
ENDBRANCH   1  15
BRANCH   1  28
ATOM     28  C   UNL     1       1.419  11.971  19.188  0.00  0.00    +0.000 A 
ATOM     29  C   UNL     1       1.624  12.450  20.495  0.00  0.00    +0.000 A 
ATOM     30  C   UNL     1       2.446  13.553  20.747  0.00  0.00    +0.000 A 
ATOM     31  C   UNL     1       3.116  14.169  19.697  0.00  0.00    +0.000 A 
ATOM     32 CL   UNL     1       4.134  15.520  20.007  0.00  0.00    +0.000 Cl
ATOM     33  C   UNL     1       2.971  13.692  18.398  0.00  0.00    +0.000 A 
ATOM     34  C   UNL     1       2.121  12.610  18.145  0.00  0.00    +0.000 A 
ENDBRANCH   1  28
TORSDOF 5
ENDMDL
MODEL 8
REMARK VINA RESULT:      -7.6      3.276      4.178
REMARK  Name = 
REMARK  5 active torsions:
REMARK  status: ('A' for Active; 'I' for Inactive)
REMARK    1  A    between atoms: N_2  and  C_4
REMARK    2  A    between atoms: C_10  and  C_11
REMARK    3  A    between atoms: C_11  and  C_12
REMARK    4  A    between atoms: C_11  and  C_19
REMARK    5  A    between atoms: C_25  and  N_26
REMARK                            x       y       z     vdW  Elec       q    Type
REMARK                         _______ _______ _______ _____ _____    ______ ____
ROOT
ATOM      1  C   UNL     1      -1.590  12.789  21.619  0.00  0.00    +0.000 C 
ENDROOT
BRANCH   1   8
ATOM      2  C   UNL     1      -3.455  11.311  17.475  0.00  0.00    +0.000 A 
ATOM      3  C   UNL     1      -4.802  11.649  17.343  0.00  0.00    +0.000 A 
ATOM      4  C   UNL     1      -5.472  12.285  18.393  0.00  0.00    +0.000 A 
ATOM      5  C   UNL     1      -4.746  12.579  19.555  0.00  0.00    +0.000 A 
ATOM      6  N   UNL     1      -5.150  13.207  20.709  0.00  0.00    +0.000 N 
ATOM      7  C   UNL     1      -4.094  13.339  21.569  0.00  0.00    +0.000 A 
ATOM      8  C   UNL     1      -2.967  12.773  20.991  0.00  0.00    +0.000 A 
ATOM      9  C   UNL     1      -3.394  12.266  19.711  0.00  0.00    +0.000 A 
ATOM     10  C   UNL     1      -2.746  11.608  18.646  0.00  0.00    +0.000 A 
ATOM     11  H   UNL     1      -6.086  13.551  20.880  0.00  0.00    +0.000 HD
BRANCH   2  13
ATOM     12  O   UNL     1      -3.039  11.011  15.212  0.00  0.00    +0.000 OA
ATOM     13  N   UNL     1      -2.746  10.663  16.364  0.00  0.00    +0.000 N 
ATOM     14  O   UNL     1      -1.887   9.816  16.641  0.00  0.00    +0.000 OA
ENDBRANCH   2  13
ENDBRANCH   1   8
BRANCH   1  15
ATOM     15  C   UNL     1      -1.030  11.455  22.059  0.00  0.00    +0.000 A 
ATOM     16  C   UNL     1      -1.306  10.735  23.211  0.00  0.00    +0.000 A 
ATOM     17  N   UNL     1      -0.631   9.546  23.165  0.00  0.00    +0.000 N 
ATOM     18  C   UNL     1       0.059   9.437  21.982  0.00  0.00    +0.000 A 
ATOM     19  C   UNL     1       0.840   8.384  21.490  0.00  0.00    +0.000 A 
ATOM     20  C   UNL     1       1.421   8.542  20.227  0.00  0.00    +0.000 A 
ATOM     21  C   UNL     1       1.230   9.723  19.502  0.00  0.00    +0.000 A 
ATOM     22  C   UNL     1       0.452  10.773  20.012  0.00  0.00    +0.000 A 
ATOM     23  C   UNL     1      -0.156  10.620  21.276  0.00  0.00    +0.000 A 
ATOM     24  H   UNL     1      -0.664   8.832  23.881  0.00  0.00    +0.000 HD
BRANCH  21  25
ATOM     25  N   UNL     1       1.838   9.868  18.172  0.00  0.00    +0.000 N 
ATOM     26  O   UNL     1       1.862   8.869  17.438  0.00  0.00    +0.000 OA
ATOM     27  O   UNL     1       2.283  10.981  17.859  0.00  0.00    +0.000 OA
ENDBRANCH  21  25
ENDBRANCH   1  15
BRANCH   1  28
ATOM     28  C   UNL     1      -1.614  13.768  22.790  0.00  0.00    +0.000 A 
ATOM     29  C   UNL     1      -2.533  13.701  23.854  0.00  0.00    +0.000 A 
ATOM     30  C   UNL     1      -2.536  14.658  24.874  0.00  0.00    +0.000 A 
ATOM     31  C   UNL     1      -1.587  15.674  24.873  0.00  0.00    +0.000 A 
ATOM     32 CL   UNL     1      -1.585  16.845  26.132  0.00  0.00    +0.000 Cl
ATOM     33  C   UNL     1      -0.636  15.741  23.859  0.00  0.00    +0.000 A 
ATOM     34  C   UNL     1      -0.657  14.803  22.822  0.00  0.00    +0.000 A 
ENDBRANCH   1  28
TORSDOF 5
ENDMDL
MODEL 9
REMARK VINA RESULT:      -7.6      3.738      7.525
REMARK  Name = 
REMARK  5 active torsions:
REMARK  status: ('A' for Active; 'I' for Inactive)
REMARK    1  A    between atoms: N_2  and  C_4
REMARK    2  A    between atoms: C_10  and  C_11
REMARK    3  A    between atoms: C_11  and  C_12
REMARK    4  A    between atoms: C_11  and  C_19
REMARK    5  A    between atoms: C_25  and  N_26
REMARK                            x       y       z     vdW  Elec       q    Type
REMARK                         _______ _______ _______ _____ _____    ______ ____
ROOT
ATOM      1  C   UNL     1      -1.590  12.659  21.395  0.00  0.00    +0.000 C 
ENDROOT
BRANCH   1   8
ATOM      2  C   UNL     1       1.255   9.310  19.518  0.00  0.00    +0.000 A 
ATOM      3  C   UNL     1       1.476   8.243  20.392  0.00  0.00    +0.000 A 
ATOM      4  C   UNL     1       0.943   8.273  21.684  0.00  0.00    +0.000 A 
ATOM      5  C   UNL     1       0.178   9.388  22.056  0.00  0.00    +0.000 A 
ATOM      6  N   UNL     1      -0.466   9.657  23.239  0.00  0.00    +0.000 N 
ATOM      7  C   UNL     1      -1.147  10.840  23.148  0.00  0.00    +0.000 A 
ATOM      8  C   UNL     1      -0.941  11.384  21.889  0.00  0.00    +0.000 A 
ATOM      9  C   UNL     1      -0.072  10.463  21.200  0.00  0.00    +0.000 A 
ATOM     10  C   UNL     1       0.493  10.418  19.909  0.00  0.00    +0.000 A 
ATOM     11  H   UNL     1      -0.463   9.049  24.048  0.00  0.00    +0.000 HD
BRANCH   2  13
ATOM     12  O   UNL     1       1.928   8.158  17.620  0.00  0.00    +0.000 OA
ATOM     13  N   UNL     1       1.796   9.268  18.154  0.00  0.00    +0.000 N 
ATOM     14  O   UNL     1       2.077  10.344  17.609  0.00  0.00    +0.000 OA
ENDBRANCH   2  13
ENDBRANCH   1   8
BRANCH   1  15
ATOM     15  C   UNL     1      -2.756  12.502  20.445  0.00  0.00    +0.000 A 
ATOM     16  C   UNL     1      -2.744  12.157  19.103  0.00  0.00    +0.000 A 
ATOM     17  N   UNL     1      -4.033  12.059  18.656  0.00  0.00    +0.000 N 
ATOM     18  C   UNL     1      -4.911  12.291  19.686  0.00  0.00    +0.000 A 
ATOM     19  C   UNL     1      -6.311  12.249  19.701  0.00  0.00    +0.000 A 
ATOM     20  C   UNL     1      -6.956  12.516  20.914  0.00  0.00    +0.000 A 
ATOM     21  C   UNL     1      -6.212  12.826  22.058  0.00  0.00    +0.000 A 
ATOM     22  C   UNL     1      -4.811  12.872  22.026  0.00  0.00    +0.000 A 
ATOM     23  C   UNL     1      -4.146  12.586  20.814  0.00  0.00    +0.000 A 
ATOM     24  H   UNL     1      -4.303  11.815  17.712  0.00  0.00    +0.000 HD
BRANCH  21  25
ATOM     25  N   UNL     1      -6.905  13.092  23.326  0.00  0.00    +0.000 N 
ATOM     26  O   UNL     1      -7.780  12.291  23.683  0.00  0.00    +0.000 OA
ATOM     27  O   UNL     1      -6.567  14.097  23.968  0.00  0.00    +0.000 OA
ENDBRANCH  21  25
ENDBRANCH   1  15
BRANCH   1  28
ATOM     28  C   UNL     1      -0.506  13.530  20.765  0.00  0.00    +0.000 A 
ATOM     29  C   UNL     1      -0.550  14.012  19.443  0.00  0.00    +0.000 A 
ATOM     30  C   UNL     1       0.499  14.765  18.907  0.00  0.00    +0.000 A 
ATOM     31  C   UNL     1       1.592  15.091  19.701  0.00  0.00    +0.000 A 
ATOM     32 CL   UNL     1       2.878  16.026  19.045  0.00  0.00    +0.000 Cl
ATOM     33  C   UNL     1       1.645  14.669  21.026  0.00  0.00    +0.000 A 
ATOM     34  C   UNL     1       0.611  13.886  21.549  0.00  0.00    +0.000 A 
ENDBRANCH   1  28
TORSDOF 5
ENDMDL
