MODEL 1
REMARK VINA RESULT:      -7.0      0.000      0.000
REMARK  Name = 
REMARK  6 active torsions:
REMARK  status: ('A' for Active; 'I' for Inactive)
REMARK    1  A    between atoms: C_1  and  O_2
REMARK    2  A    between atoms: O_2  and  C_3
REMARK    3  A    between atoms: C_3  and  C_5
REMARK    4  A    between atoms: C_9  and  N_10
REMARK    5  A    between atoms: C_14  and  C_15
REMARK    6  A    between atoms: C_15  and  C_17
REMARK                            x       y       z     vdW  Elec       q    Type
REMARK                         _______ _______ _______ _____ _____    ______ ____
ROOT
ATOM      1  N   UNL     1       4.016   6.314  17.310  0.00  0.00    +0.000 N 
ATOM      2  C   UNL     1       4.027   7.679  17.547  0.00  0.00    +0.000 A 
ATOM      3  C   UNL     1       2.795   8.096  17.981  0.00  0.00    +0.000 A 
ATOM      4  C   UNL     1       1.988   6.951  18.029  0.00  0.00    +0.000 A 
ATOM      5  C   UNL     1       2.741   5.836  17.656  0.00  0.00    +0.000 A 
ENDROOT
BRANCH   1  10
ATOM      6  C   UNL     1       6.371   5.388  17.304  0.00  0.00    +0.000 A 
ATOM      7  S   UNL     1       7.372   4.429  16.273  0.00  0.00    +0.000 S 
ATOM      8  C   UNL     1       6.222   4.431  15.025  0.00  0.00    +0.000 A 
ATOM      9  C   UNL     1       5.111   5.165  15.360  0.00  0.00    +0.000 A 
ATOM     10  C   UNL     1       5.125   5.613  16.719  0.00  0.00    +0.000 A 
BRANCH   6  11
ATOM     11  C   UNL     1       6.880   5.720  18.625  0.00  0.00    +0.000 C 
ATOM     12  O   UNL     1       6.392   5.368  19.692  0.00  0.00    +0.000 OA
BRANCH  11  14
ATOM     13  C   UNL     1       7.737   7.765  17.822  0.00  0.00    +0.000 C 
ATOM     14  O   UNL     1       7.967   6.540  18.518  0.00  0.00    +0.000 OA
ENDBRANCH  11  14
ENDBRANCH   6  11
ENDBRANCH   1  10
BRANCH   5  15
ATOM     15  C   UNL     1       2.201   4.478  17.728  0.00  0.00    +0.000 C 
ATOM     16  O   UNL     1       1.077   4.183  17.323  0.00  0.00    +0.000 OA
BRANCH  15  17
ATOM     17  C   UNL     1       2.966   3.362  18.439  0.00  0.00    +0.000 C 
ATOM     18  O   UNL     1       3.097   2.282  17.875  0.00  0.00    +0.000 OA
ATOM     19  N   UNL     1       3.457   3.642  19.713  0.00  0.00    +0.000 N 
ATOM     20  C   UNL     1       4.283   2.626  20.368  0.00  0.00    +0.000 C 
ATOM     21  C   UNL     1       3.436   1.730  21.279  0.00  0.00    +0.000 C 
ATOM     22  O   UNL     1       2.655   2.515  22.198  0.00  0.00    +0.000 OA
ATOM     23  C   UNL     1       1.802   3.438  21.496  0.00  0.00    +0.000 C 
ATOM     24  C   UNL     1       2.645   4.412  20.658  0.00  0.00    +0.000 C 
ENDBRANCH  15  17
ENDBRANCH   5  15
TORSDOF 5
ENDMDL
MODEL 2
REMARK VINA RESULT:      -6.5      0.659      1.078
REMARK  Name = 
REMARK  6 active torsions:
REMARK  status: ('A' for Active; 'I' for Inactive)
REMARK    1  A    between atoms: C_1  and  O_2
REMARK    2  A    between atoms: O_2  and  C_3
REMARK    3  A    between atoms: C_3  and  C_5
REMARK    4  A    between atoms: C_9  and  N_10
REMARK    5  A    between atoms: C_14  and  C_15
REMARK    6  A    between atoms: C_15  and  C_17
REMARK                            x       y       z     vdW  Elec       q    Type
REMARK                         _______ _______ _______ _____ _____    ______ ____
ROOT
ATOM      1  N   UNL     1       4.085   6.258  17.048  0.00  0.00    +0.000 N 
ATOM      2  C   UNL     1       4.137   7.620  17.299  0.00  0.00    +0.000 A 
ATOM      3  C   UNL     1       2.987   8.034  17.920  0.00  0.00    +0.000 A 
ATOM      4  C   UNL     1       2.192   6.890  18.075  0.00  0.00    +0.000 A 
ATOM      5  C   UNL     1       2.875   5.778  17.577  0.00  0.00    +0.000 A 
ENDROOT
BRANCH   1  10
ATOM      6  C   UNL     1       6.470   5.708  16.407  0.00  0.00    +0.000 A 
ATOM      7  S   UNL     1       7.299   4.615  15.356  0.00  0.00    +0.000 S 
ATOM      8  C   UNL     1       5.852   4.061  14.664  0.00  0.00    +0.000 A 
ATOM      9  C   UNL     1       4.759   4.706  15.189  0.00  0.00    +0.000 A 
ATOM     10  C   UNL     1       5.088   5.562  16.287  0.00  0.00    +0.000 A 
BRANCH   6  11
ATOM     11  C   UNL     1       7.270   6.512  17.317  0.00  0.00    +0.000 C 
ATOM     12  O   UNL     1       7.538   7.699  17.180  0.00  0.00    +0.000 OA
BRANCH  11  14
ATOM     13  C   UNL     1       6.820   5.529  19.413  0.00  0.00    +0.000 C 
ATOM     14  O   UNL     1       7.739   5.738  18.341  0.00  0.00    +0.000 OA
ENDBRANCH  11  14
ENDBRANCH   6  11
ENDBRANCH   1  10
BRANCH   5  15
ATOM     15  C   UNL     1       2.346   4.421  17.713  0.00  0.00    +0.000 C 
ATOM     16  O   UNL     1       1.220   4.101  17.335  0.00  0.00    +0.000 OA
BRANCH  15  17
ATOM     17  C   UNL     1       3.128   3.340  18.459  0.00  0.00    +0.000 C 
ATOM     18  O   UNL     1       3.348   2.274  17.898  0.00  0.00    +0.000 OA
ATOM     19  N   UNL     1       3.532   3.636  19.761  0.00  0.00    +0.000 N 
ATOM     20  C   UNL     1       4.373   2.659  20.455  0.00  0.00    +0.000 C 
ATOM     21  C   UNL     1       3.524   1.712  21.312  0.00  0.00    +0.000 C 
ATOM     22  O   UNL     1       2.653   2.448  22.191  0.00  0.00    +0.000 OA
ATOM     23  C   UNL     1       1.792   3.330  21.446  0.00  0.00    +0.000 C 
ATOM     24  C   UNL     1       2.628   4.354  20.663  0.00  0.00    +0.000 C 
ENDBRANCH  15  17
ENDBRANCH   5  15
TORSDOF 5
ENDMDL
MODEL 3
REMARK VINA RESULT:      -6.4      3.015      4.659
REMARK  Name = 
REMARK  6 active torsions:
REMARK  status: ('A' for Active; 'I' for Inactive)
REMARK    1  A    between atoms: C_1  and  O_2
REMARK    2  A    between atoms: O_2  and  C_3
REMARK    3  A    between atoms: C_3  and  C_5
REMARK    4  A    between atoms: C_9  and  N_10
REMARK    5  A    between atoms: C_14  and  C_15
REMARK    6  A    between atoms: C_15  and  C_17
REMARK                            x       y       z     vdW  Elec       q    Type
REMARK                         _______ _______ _______ _____ _____    ______ ____
ROOT
ATOM      1  N   UNL     1       3.926   4.894  17.882  0.00  0.00    +0.000 N 
ATOM      2  C   UNL     1       3.608   3.651  17.360  0.00  0.00    +0.000 A 
ATOM      3  C   UNL     1       2.248   3.479  17.334  0.00  0.00    +0.000 A 
ATOM      4  C   UNL     1       1.694   4.661  17.845  0.00  0.00    +0.000 A 
ATOM      5  C   UNL     1       2.718   5.561  18.150  0.00  0.00    +0.000 A 
ENDROOT
BRANCH   1  10
ATOM      6  C   UNL     1       6.189   5.827  17.241  0.00  0.00    +0.000 A 
ATOM      7  S   UNL     1       7.666   6.266  18.023  0.00  0.00    +0.000 S 
ATOM      8  C   UNL     1       7.149   5.651  19.517  0.00  0.00    +0.000 A 
ATOM      9  C   UNL     1       5.895   5.095  19.431  0.00  0.00    +0.000 A 
ATOM     10  C   UNL     1       5.276   5.306  18.158  0.00  0.00    +0.000 A 
BRANCH   6  11
ATOM     11  C   UNL     1       6.048   6.147  15.830  0.00  0.00    +0.000 C 
ATOM     12  O   UNL     1       5.132   6.786  15.326  0.00  0.00    +0.000 OA
BRANCH  11  14
ATOM     13  C   UNL     1       6.699   4.449  14.328  0.00  0.00    +0.000 C 
ATOM     14  O   UNL     1       7.066   5.582  15.115  0.00  0.00    +0.000 OA
ENDBRANCH  11  14
ENDBRANCH   6  11
ENDBRANCH   1  10
BRANCH   5  15
ATOM     15  C   UNL     1       2.441   6.929  18.587  0.00  0.00    +0.000 C 
ATOM     16  O   UNL     1       2.719   7.917  17.909  0.00  0.00    +0.000 OA
BRANCH  15  17
ATOM     17  C   UNL     1       1.898   7.215  19.987  0.00  0.00    +0.000 C 
ATOM     18  O   UNL     1       1.594   6.272  20.708  0.00  0.00    +0.000 OA
ATOM     19  N   UNL     1       1.762   8.553  20.353  0.00  0.00    +0.000 N 
ATOM     20  C   UNL     1       1.345   8.849  21.725  0.00  0.00    +0.000 C 
ATOM     21  C   UNL     1      -0.174   9.040  21.810  0.00  0.00    +0.000 C 
ATOM     22  O   UNL     1      -0.630  10.010  20.848  0.00  0.00    +0.000 OA
ATOM     23  C   UNL     1      -0.264   9.624  19.511  0.00  0.00    +0.000 C 
ATOM     24  C   UNL     1       1.264   9.531  19.382  0.00  0.00    +0.000 C 
ENDBRANCH  15  17
ENDBRANCH   5  15
TORSDOF 5
ENDMDL
MODEL 4
REMARK VINA RESULT:      -6.1      1.165      1.618
REMARK  Name = 
REMARK  6 active torsions:
REMARK  status: ('A' for Active; 'I' for Inactive)
REMARK    1  A    between atoms: C_1  and  O_2
REMARK    2  A    between atoms: O_2  and  C_3
REMARK    3  A    between atoms: C_3  and  C_5
REMARK    4  A    between atoms: C_9  and  N_10
REMARK    5  A    between atoms: C_14  and  C_15
REMARK    6  A    between atoms: C_15  and  C_17
REMARK                            x       y       z     vdW  Elec       q    Type
REMARK                         _______ _______ _______ _____ _____    ______ ____
ROOT
ATOM      1  N   UNL     1       3.870   6.344  17.389  0.00  0.00    +0.000 N 
ATOM      2  C   UNL     1       4.054   7.710  17.522  0.00  0.00    +0.000 A 
ATOM      3  C   UNL     1       2.890   8.309  17.931  0.00  0.00    +0.000 A 
ATOM      4  C   UNL     1       1.948   7.281  18.070  0.00  0.00    +0.000 A 
ATOM      5  C   UNL     1       2.551   6.055  17.778  0.00  0.00    +0.000 A 
ENDROOT
BRANCH   1  10
ATOM      6  C   UNL     1       6.253   5.574  17.026  0.00  0.00    +0.000 A 
ATOM      7  S   UNL     1       7.077   4.259  16.267  0.00  0.00    +0.000 S 
ATOM      8  C   UNL     1       5.642   3.640  15.604  0.00  0.00    +0.000 A 
ATOM      9  C   UNL     1       4.559   4.424  15.920  0.00  0.00    +0.000 A 
ATOM     10  C   UNL     1       4.873   5.467  16.847  0.00  0.00    +0.000 A 
BRANCH   6  11
ATOM     11  C   UNL     1       7.045   6.508  17.810  0.00  0.00    +0.000 C 
ATOM     12  O   UNL     1       7.404   6.347  18.970  0.00  0.00    +0.000 OA
BRANCH  11  14
ATOM     13  C   UNL     1       7.992   8.668  17.787  0.00  0.00    +0.000 C 
ATOM     14  O   UNL     1       7.296   7.638  17.084  0.00  0.00    +0.000 OA
ENDBRANCH  11  14
ENDBRANCH   6  11
ENDBRANCH   1  10
BRANCH   5  15
ATOM     15  C   UNL     1       1.847   4.785  17.956  0.00  0.00    +0.000 C 
ATOM     16  O   UNL     1       1.277   4.201  17.035  0.00  0.00    +0.000 OA
BRANCH  15  17
ATOM     17  C   UNL     1       1.670   4.169  19.344  0.00  0.00    +0.000 C 
ATOM     18  O   UNL     1       1.182   4.851  20.236  0.00  0.00    +0.000 OA
ATOM     19  N   UNL     1       2.103   2.855  19.513  0.00  0.00    +0.000 N 
ATOM     20  C   UNL     1       1.848   2.210  20.802  0.00  0.00    +0.000 C 
ATOM     21  C   UNL     1       3.054   2.353  21.738  0.00  0.00    +0.000 C 
ATOM     22  O   UNL     1       4.263   1.901  21.099  0.00  0.00    +0.000 OA
ATOM     23  C   UNL     1       4.506   2.627  19.880  0.00  0.00    +0.000 C 
ATOM     24  C   UNL     1       3.352   2.409  18.890  0.00  0.00    +0.000 C 
ENDBRANCH  15  17
ENDBRANCH   5  15
TORSDOF 5
ENDMDL
MODEL 5
REMARK VINA RESULT:      -6.1      1.826      2.784
REMARK  Name = 
REMARK  6 active torsions:
REMARK  status: ('A' for Active; 'I' for Inactive)
REMARK    1  A    between atoms: C_1  and  O_2
REMARK    2  A    between atoms: O_2  and  C_3
REMARK    3  A    between atoms: C_3  and  C_5
REMARK    4  A    between atoms: C_9  and  N_10
REMARK    5  A    between atoms: C_14  and  C_15
REMARK    6  A    between atoms: C_15  and  C_17
REMARK                            x       y       z     vdW  Elec       q    Type
REMARK                         _______ _______ _______ _____ _____    ______ ____
ROOT
ATOM      1  N   UNL     1       3.701   6.722  17.970  0.00  0.00    +0.000 N 
ATOM      2  C   UNL     1       3.646   8.101  17.852  0.00  0.00    +0.000 A 
ATOM      3  C   UNL     1       2.349   8.513  17.681  0.00  0.00    +0.000 A 
ATOM      4  C   UNL     1       1.564   7.352  17.704  0.00  0.00    +0.000 A 
ATOM      5  C   UNL     1       2.382   6.241  17.922  0.00  0.00    +0.000 A 
ENDROOT
BRANCH   1  10
ATOM      6  C   UNL     1       5.658   5.494  16.937  0.00  0.00    +0.000 A 
ATOM      7  S   UNL     1       7.129   4.751  17.457  0.00  0.00    +0.000 S 
ATOM      8  C   UNL     1       6.747   4.964  19.097  0.00  0.00    +0.000 A 
ATOM      9  C   UNL     1       5.519   5.558  19.259  0.00  0.00    +0.000 A 
ATOM     10  C   UNL     1       4.938   5.989  18.024  0.00  0.00    +0.000 A 
BRANCH   6  11
ATOM     11  C   UNL     1       5.426   5.609  15.506  0.00  0.00    +0.000 C 
ATOM     12  O   UNL     1       5.291   6.655  14.882  0.00  0.00    +0.000 OA
BRANCH  11  14
ATOM     13  C   UNL     1       6.255   4.096  13.898  0.00  0.00    +0.000 C 
ATOM     14  O   UNL     1       5.322   4.368  14.944  0.00  0.00    +0.000 OA
ENDBRANCH  11  14
ENDBRANCH   6  11
ENDBRANCH   1  10
BRANCH   5  15
ATOM     15  C   UNL     1       1.830   4.900  18.118  0.00  0.00    +0.000 C 
ATOM     16  O   UNL     1       1.457   4.188  17.187  0.00  0.00    +0.000 OA
BRANCH  15  17
ATOM     17  C   UNL     1       1.564   4.354  19.521  0.00  0.00    +0.000 C 
ATOM     18  O   UNL     1       1.158   5.119  20.387  0.00  0.00    +0.000 OA
ATOM     19  N   UNL     1       1.824   3.001  19.733  0.00  0.00    +0.000 N 
ATOM     20  C   UNL     1       1.477   2.433  21.038  0.00  0.00    +0.000 C 
ATOM     21  C   UNL     1       2.683   2.449  21.984  0.00  0.00    +0.000 C 
ATOM     22  O   UNL     1       3.829   1.828  21.374  0.00  0.00    +0.000 OA
ATOM     23  C   UNL     1       4.174   2.480  20.138  0.00  0.00    +0.000 C 
ATOM     24  C   UNL     1       3.011   2.381  19.139  0.00  0.00    +0.000 C 
ENDBRANCH  15  17
ENDBRANCH   5  15
TORSDOF 5
ENDMDL
MODEL 6
REMARK VINA RESULT:      -6.1      2.563      5.563
REMARK  Name = 
REMARK  6 active torsions:
REMARK  status: ('A' for Active; 'I' for Inactive)
REMARK    1  A    between atoms: C_1  and  O_2
REMARK    2  A    between atoms: O_2  and  C_3
REMARK    3  A    between atoms: C_3  and  C_5
REMARK    4  A    between atoms: C_9  and  N_10
REMARK    5  A    between atoms: C_14  and  C_15
REMARK    6  A    between atoms: C_15  and  C_17
REMARK                            x       y       z     vdW  Elec       q    Type
REMARK                         _______ _______ _______ _____ _____    ______ ____
ROOT
ATOM      1  N   UNL     1       2.454   4.452  18.547  0.00  0.00    +0.000 N 
ATOM      2  C   UNL     1       1.569   3.946  17.609  0.00  0.00    +0.000 A 
ATOM      3  C   UNL     1       2.185   2.994  16.838  0.00  0.00    +0.000 A 
ATOM      4  C   UNL     1       3.498   2.892  17.318  0.00  0.00    +0.000 A 
ATOM      5  C   UNL     1       3.667   3.758  18.400  0.00  0.00    +0.000 A 
ENDROOT
BRANCH   1  10
ATOM      6  C   UNL     1       2.317   6.912  19.123  0.00  0.00    +0.000 A 
ATOM      7  S   UNL     1       1.717   7.900  20.408  0.00  0.00    +0.000 S 
ATOM      8  C   UNL     1       1.348   6.555  21.374  0.00  0.00    +0.000 A 
ATOM      9  C   UNL     1       1.697   5.377  20.759  0.00  0.00    +0.000 A 
ATOM     10  C   UNL     1       2.134   5.559  19.408  0.00  0.00    +0.000 A 
BRANCH   6  11
ATOM     11  C   UNL     1       2.801   7.579  17.925  0.00  0.00    +0.000 C 
ATOM     12  O   UNL     1       3.896   7.410  17.403  0.00  0.00    +0.000 OA
BRANCH  11  14
ATOM     13  C   UNL     1       2.143   9.840  17.806  0.00  0.00    +0.000 C 
ATOM     14  O   UNL     1       1.873   8.477  17.478  0.00  0.00    +0.000 OA
ENDBRANCH  11  14
ENDBRANCH   6  11
ENDBRANCH   1  10
BRANCH   5  15
ATOM     15  C   UNL     1       4.900   3.782  19.187  0.00  0.00    +0.000 C 
ATOM     16  O   UNL     1       5.245   2.855  19.918  0.00  0.00    +0.000 OA
BRANCH  15  17
ATOM     17  C   UNL     1       5.776   5.034  19.243  0.00  0.00    +0.000 C 
ATOM     18  O   UNL     1       5.400   5.991  19.910  0.00  0.00    +0.000 OA
ATOM     19  N   UNL     1       6.956   5.014  18.501  0.00  0.00    +0.000 N 
ATOM     20  C   UNL     1       7.861   6.159  18.623  0.00  0.00    +0.000 C 
ATOM     21  C   UNL     1       7.601   7.188  17.516  0.00  0.00    +0.000 C 
ATOM     22  O   UNL     1       7.629   6.569  16.216  0.00  0.00    +0.000 OA
ATOM     23  C   UNL     1       6.661   5.506  16.128  0.00  0.00    +0.000 C 
ATOM     24  C   UNL     1       6.972   4.415  17.164  0.00  0.00    +0.000 C 
ENDBRANCH  15  17
ENDBRANCH   5  15
TORSDOF 5
ENDMDL
MODEL 7
REMARK VINA RESULT:      -6.1      1.570      2.381
REMARK  Name = 
REMARK  6 active torsions:
REMARK  status: ('A' for Active; 'I' for Inactive)
REMARK    1  A    between atoms: C_1  and  O_2
REMARK    2  A    between atoms: O_2  and  C_3
REMARK    3  A    between atoms: C_3  and  C_5
REMARK    4  A    between atoms: C_9  and  N_10
REMARK    5  A    between atoms: C_14  and  C_15
REMARK    6  A    between atoms: C_15  and  C_17
REMARK                            x       y       z     vdW  Elec       q    Type
REMARK                         _______ _______ _______ _____ _____    ______ ____
ROOT
ATOM      1  N   UNL     1       3.933   6.480  17.938  0.00  0.00    +0.000 N 
ATOM      2  C   UNL     1       3.770   7.854  18.018  0.00  0.00    +0.000 A 
ATOM      3  C   UNL     1       2.445   8.184  17.890  0.00  0.00    +0.000 A 
ATOM      4  C   UNL     1       1.753   6.974  17.738  0.00  0.00    +0.000 A 
ATOM      5  C   UNL     1       2.656   5.910  17.806  0.00  0.00    +0.000 A 
ENDROOT
BRANCH   1  10
ATOM      6  C   UNL     1       5.885   5.372  16.771  0.00  0.00    +0.000 A 
ATOM      7  S   UNL     1       7.448   4.759  17.180  0.00  0.00    +0.000 S 
ATOM      8  C   UNL     1       7.192   4.996  18.840  0.00  0.00    +0.000 A 
ATOM      9  C   UNL     1       5.939   5.500  19.093  0.00  0.00    +0.000 A 
ATOM     10  C   UNL     1       5.223   5.845  17.903  0.00  0.00    +0.000 A 
BRANCH   6  11
ATOM     11  C   UNL     1       5.524   5.422  15.363  0.00  0.00    +0.000 C 
ATOM     12  O   UNL     1       5.285   6.437  14.719  0.00  0.00    +0.000 OA
BRANCH  11  14
ATOM     13  C   UNL     1       6.214   3.917  13.683  0.00  0.00    +0.000 C 
ATOM     14  O   UNL     1       5.433   4.158  14.854  0.00  0.00    +0.000 OA
ENDBRANCH  11  14
ENDBRANCH   6  11
ENDBRANCH   1  10
BRANCH   5  15
ATOM     15  C   UNL     1       2.210   4.517  17.802  0.00  0.00    +0.000 C 
ATOM     16  O   UNL     1       1.180   4.145  17.241  0.00  0.00    +0.000 OA
BRANCH  15  17
ATOM     17  C   UNL     1       2.945   3.452  18.615  0.00  0.00    +0.000 C 
ATOM     18  O   UNL     1       3.312   2.426  18.054  0.00  0.00    +0.000 OA
ATOM     19  N   UNL     1       3.138   3.712  19.972  0.00  0.00    +0.000 N 
ATOM     20  C   UNL     1       3.931   2.755  20.746  0.00  0.00    +0.000 C 
ATOM     21  C   UNL     1       3.031   1.723  21.436  0.00  0.00    +0.000 C 
ATOM     22  O   UNL     1       1.996   2.367  22.203  0.00  0.00    +0.000 OA
ATOM     23  C   UNL     1       1.197   3.229  21.373  0.00  0.00    +0.000 C 
ATOM     24  C   UNL     1       2.069   4.334  20.757  0.00  0.00    +0.000 C 
ENDBRANCH  15  17
ENDBRANCH   5  15
TORSDOF 5
ENDMDL
MODEL 8
REMARK VINA RESULT:      -6.1      3.034      5.045
REMARK  Name = 
REMARK  6 active torsions:
REMARK  status: ('A' for Active; 'I' for Inactive)
REMARK    1  A    between atoms: C_1  and  O_2
REMARK    2  A    between atoms: O_2  and  C_3
REMARK    3  A    between atoms: C_3  and  C_5
REMARK    4  A    between atoms: C_9  and  N_10
REMARK    5  A    between atoms: C_14  and  C_15
REMARK    6  A    between atoms: C_15  and  C_17
REMARK                            x       y       z     vdW  Elec       q    Type
REMARK                         _______ _______ _______ _____ _____    ______ ____
ROOT
ATOM      1  N   UNL     1       3.813   4.966  17.982  0.00  0.00    +0.000 N 
ATOM      2  C   UNL     1       3.443   3.838  17.268  0.00  0.00    +0.000 A 
ATOM      3  C   UNL     1       2.098   3.607  17.409  0.00  0.00    +0.000 A 
ATOM      4  C   UNL     1       1.608   4.632  18.230  0.00  0.00    +0.000 A 
ATOM      5  C   UNL     1       2.650   5.503  18.558  0.00  0.00    +0.000 A 
ENDROOT
BRANCH   1  10
ATOM      6  C   UNL     1       6.005   5.908  17.138  0.00  0.00    +0.000 A 
ATOM      7  S   UNL     1       7.547   6.351  17.781  0.00  0.00    +0.000 S 
ATOM      8  C   UNL     1       7.171   5.732  19.316  0.00  0.00    +0.000 A 
ATOM      9  C   UNL     1       5.917   5.172  19.344  0.00  0.00    +0.000 A 
ATOM     10  C   UNL     1       5.182   5.382  18.134  0.00  0.00    +0.000 A 
BRANCH   6  11
ATOM     11  C   UNL     1       5.734   6.229  15.746  0.00  0.00    +0.000 C 
ATOM     12  O   UNL     1       4.865   6.992  15.342  0.00  0.00    +0.000 OA
BRANCH  11  14
ATOM     13  C   UNL     1       6.301   4.106  14.889  0.00  0.00    +0.000 C 
ATOM     14  O   UNL     1       6.558   5.510  14.928  0.00  0.00    +0.000 OA
ENDBRANCH  11  14
ENDBRANCH   6  11
ENDBRANCH   1  10
BRANCH   5  15
ATOM     15  C   UNL     1       2.417   6.739  19.305  0.00  0.00    +0.000 C 
ATOM     16  O   UNL     1       2.246   6.763  20.523  0.00  0.00    +0.000 OA
BRANCH  15  17
ATOM     17  C   UNL     1       2.246   8.076  18.583  0.00  0.00    +0.000 C 
ATOM     18  O   UNL     1       3.118   8.445  17.806  0.00  0.00    +0.000 OA
ATOM     19  N   UNL     1       1.098   8.811  18.876  0.00  0.00    +0.000 N 
ATOM     20  C   UNL     1       0.861  10.042  18.118  0.00  0.00    +0.000 C 
ATOM     21  C   UNL     1       1.405  11.263  18.868  0.00  0.00    +0.000 C 
ATOM     22  O   UNL     1       0.900  11.312  20.216  0.00  0.00    +0.000 OA
ATOM     23  C   UNL     1       1.236  10.112  20.937  0.00  0.00    +0.000 C 
ATOM     24  C   UNL     1       0.608   8.887  20.255  0.00  0.00    +0.000 C 
ENDBRANCH  15  17
ENDBRANCH   5  15
TORSDOF 5
ENDMDL
MODEL 9
REMARK VINA RESULT:      -6.0      3.132      5.912
REMARK  Name = 
REMARK  6 active torsions:
REMARK  status: ('A' for Active; 'I' for Inactive)
REMARK    1  A    between atoms: C_1  and  O_2
REMARK    2  A    between atoms: O_2  and  C_3
REMARK    3  A    between atoms: C_3  and  C_5
REMARK    4  A    between atoms: C_9  and  N_10
REMARK    5  A    between atoms: C_14  and  C_15
REMARK    6  A    between atoms: C_15  and  C_17
REMARK                            x       y       z     vdW  Elec       q    Type
REMARK                         _______ _______ _______ _____ _____    ______ ____
ROOT
ATOM      1  N   UNL     1       2.198   5.877  19.900  0.00  0.00    +0.000 N 
ATOM      2  C   UNL     1       1.184   5.327  20.667  0.00  0.00    +0.000 A 
ATOM      3  C   UNL     1       1.489   4.031  20.998  0.00  0.00    +0.000 A 
ATOM      4  C   UNL     1       2.741   3.766  20.430  0.00  0.00    +0.000 A 
ATOM      5  C   UNL     1       3.211   4.911  19.782  0.00  0.00    +0.000 A 
ENDROOT
BRANCH   1  10
ATOM      6  C   UNL     1       1.616   8.340  19.888  0.00  0.00    +0.000 A 
ATOM      7  S   UNL     1       1.762   9.690  18.820  0.00  0.00    +0.000 S 
ATOM      8  C   UNL     1       2.331   8.722  17.548  0.00  0.00    +0.000 A 
ATOM      9  C   UNL     1       2.385   7.396  17.905  0.00  0.00    +0.000 A 
ATOM     10  C   UNL     1       2.102   7.177  19.291  0.00  0.00    +0.000 A 
BRANCH   6  11
ATOM     11  C   UNL     1       1.142   8.593  21.240  0.00  0.00    +0.000 C 
ATOM     12  O   UNL     1       1.804   8.482  22.265  0.00  0.00    +0.000 OA
BRANCH  11  14
ATOM     13  C   UNL     1      -0.541  10.037  22.042  0.00  0.00    +0.000 C 
ATOM     14  O   UNL     1      -0.183   8.926  21.220  0.00  0.00    +0.000 OA
ENDBRANCH  11  14
ENDBRANCH   6  11
ENDBRANCH   1  10
BRANCH   5  15
ATOM     15  C   UNL     1       4.551   4.975  19.198  0.00  0.00    +0.000 C 
ATOM     16  O   UNL     1       5.504   5.502  19.769  0.00  0.00    +0.000 OA
BRANCH  15  17
ATOM     17  C   UNL     1       4.812   4.496  17.770  0.00  0.00    +0.000 C 
ATOM     18  O   UNL     1       4.771   3.295  17.531  0.00  0.00    +0.000 OA
ATOM     19  N   UNL     1       5.105   5.472  16.818  0.00  0.00    +0.000 N 
ATOM     20  C   UNL     1       5.255   5.047  15.425  0.00  0.00    +0.000 C 
ATOM     21  C   UNL     1       6.726   4.779  15.085  0.00  0.00    +0.000 C 
ATOM     22  O   UNL     1       7.552   5.905  15.434  0.00  0.00    +0.000 OA
ATOM     23  C   UNL     1       7.428   6.224  16.833  0.00  0.00    +0.000 C 
ATOM     24  C   UNL     1       5.976   6.598  17.168  0.00  0.00    +0.000 C 
ENDBRANCH  15  17
ENDBRANCH   5  15
TORSDOF 5
ENDMDL
