MODEL 1
REMARK VINA RESULT:      -8.5      0.000      0.000
REMARK  Name = 
REMARK  9 active torsions:
REMARK  status: ('A' for Active; 'I' for Inactive)
REMARK    1  A    between atoms: C_1  and  O_2
REMARK    2  A    between atoms: O_2  and  C_3
REMARK    3  A    between atoms: C_6  and  C_7
REMARK    4  A    between atoms: N_8  and  N_9
REMARK    5  A    between atoms: C_10  and  C_11
REMARK    6  A    between atoms: N_17  and  S_18
REMARK    7  A    between atoms: S_18  and  C_21
REMARK    8  A    between atoms: C_31  and  O_32
REMARK    9  A    between atoms: O_32  and  C_33
REMARK                            x       y       z     vdW  Elec       q    Type
REMARK                         _______ _______ _______ _____ _____    ______ ____
ROOT
ATOM      1  N   UNL     1       1.495   8.893  19.591  0.00  0.00    +0.000 N 
ATOM      2  C   UNL     1       1.106  10.200  19.228  0.00  0.00    +0.000 A 
ATOM      3  C   UNL     1       1.491  10.706  17.852  0.00  0.00    +0.000 C 
ATOM      4  N   UNL     1       0.444  11.028  20.002  0.00  0.00    +0.000 NA
ATOM      5  C   UNL     1       0.122  10.524  21.219  0.00  0.00    +0.000 A 
ATOM      6  C   UNL     1       0.385   9.250  21.655  0.00  0.00    +0.000 A 
ATOM      7  C   UNL     1      -0.166   9.144  22.935  0.00  0.00    +0.000 A 
ATOM      8  N   UNL     1      -0.765  10.271  23.315  0.00  0.00    +0.000 NA
ATOM      9  N   UNL     1      -0.553  11.136  22.267  0.00  0.00    +0.000 N 
ATOM     10  C   UNL     1       1.076   8.317  20.816  0.00  0.00    +0.000 A 
ATOM     11  O   UNL     1       1.213   7.149  21.162  0.00  0.00    +0.000 OA
ENDROOT
BRANCH   9  12
ATOM     12  S   UNL     1      -1.064  12.783  22.253  0.00  0.00    +0.000 S 
ATOM     13  O   UNL     1      -0.374  13.440  23.347  0.00  0.00    +0.000 OA
ATOM     14  O   UNL     1      -0.915  13.246  20.883  0.00  0.00    +0.000 OA
BRANCH  12  15
ATOM     15  C   UNL     1      -2.792  12.731  22.666  0.00  0.00    +0.000 A 
ATOM     16  C   UNL     1      -3.184  12.714  24.009  0.00  0.00    +0.000 A 
ATOM     17  C   UNL     1      -4.544  12.755  24.331  0.00  0.00    +0.000 A 
ATOM     18  C   UNL     1      -5.496  12.821  23.310  0.00  0.00    +0.000 A 
ATOM     19 CL   UNL     1      -7.170  12.876  23.707  0.00  0.00    +0.000 Cl
ATOM     20  C   UNL     1      -5.101  12.852  21.973  0.00  0.00    +0.000 A 
ATOM     21  C   UNL     1      -3.745  12.816  21.648  0.00  0.00    +0.000 A 
ENDBRANCH  12  15
ENDBRANCH   9  12
BRANCH   1  23
ATOM     22  C   UNL     1       3.071   7.319  18.974  0.00  0.00    +0.000 C 
ATOM     23  N   UNL     1       2.096   8.096  18.612  0.00  0.00    +0.000 NA
BRANCH  22  27
ATOM     24  C   UNL     1       4.986   4.441  16.459  0.00  0.00    +0.000 A 
ATOM     25  C   UNL     1       5.097   5.813  16.177  0.00  0.00    +0.000 A 
ATOM     26  C   UNL     1       4.472   6.765  16.982  0.00  0.00    +0.000 A 
ATOM     27  C   UNL     1       3.686   6.345  18.050  0.00  0.00    +0.000 A 
ATOM     28  C   UNL     1       3.470   4.980  18.263  0.00  0.00    +0.000 A 
ATOM     29  C   UNL     1       4.114   4.014  17.474  0.00  0.00    +0.000 A 
BRANCH  24  31
ATOM     30  C   UNL     1       6.288   4.025  14.536  0.00  0.00    +0.000 C 
ATOM     31  O   UNL     1       5.708   3.524  15.743  0.00  0.00    +0.000 OA
ENDBRANCH  24  31
BRANCH  29  32
ATOM     32  O   UNL     1       3.795   2.741  17.860  0.00  0.00    +0.000 OA
ATOM     33  C   UNL     1       2.455   2.290  17.738  0.00  0.00    +0.000 C 
ENDBRANCH  29  32
ENDBRANCH  22  27
ENDBRANCH   1  23
TORSDOF 6
ENDMDL
MODEL 2
REMARK VINA RESULT:      -8.4      4.734     10.869
REMARK  Name = 
REMARK  9 active torsions:
REMARK  status: ('A' for Active; 'I' for Inactive)
REMARK    1  A    between atoms: C_1  and  O_2
REMARK    2  A    between atoms: O_2  and  C_3
REMARK    3  A    between atoms: C_6  and  C_7
REMARK    4  A    between atoms: N_8  and  N_9
REMARK    5  A    between atoms: C_10  and  C_11
REMARK    6  A    between atoms: N_17  and  S_18
REMARK    7  A    between atoms: S_18  and  C_21
REMARK    8  A    between atoms: C_31  and  O_32
REMARK    9  A    between atoms: O_32  and  C_33
REMARK                            x       y       z     vdW  Elec       q    Type
REMARK                         _______ _______ _______ _____ _____    ______ ____
ROOT
ATOM      1  N   UNL     1       2.535   6.921  19.175  0.00  0.00    +0.000 N 
ATOM      2  C   UNL     1       3.412   7.533  18.252  0.00  0.00    +0.000 A 
ATOM      3  C   UNL     1       3.047   8.905  17.720  0.00  0.00    +0.000 C 
ATOM      4  N   UNL     1       4.521   6.996  17.802  0.00  0.00    +0.000 NA
ATOM      5  C   UNL     1       4.800   5.772  18.313  0.00  0.00    +0.000 A 
ATOM      6  C   UNL     1       4.063   5.110  19.262  0.00  0.00    +0.000 A 
ATOM      7  C   UNL     1       4.739   3.918  19.535  0.00  0.00    +0.000 A 
ATOM      8  N   UNL     1       5.857   3.804  18.821  0.00  0.00    +0.000 NA
ATOM      9  N   UNL     1       5.874   4.935  18.038  0.00  0.00    +0.000 N 
ATOM     10  C   UNL     1       2.866   5.691  19.795  0.00  0.00    +0.000 A 
ATOM     11  O   UNL     1       2.270   5.152  20.720  0.00  0.00    +0.000 OA
ENDROOT
BRANCH   9  12
ATOM     12  S   UNL     1       7.083   5.275  16.856  0.00  0.00    +0.000 S 
ATOM     13  O   UNL     1       7.198   6.718  16.783  0.00  0.00    +0.000 OA
ATOM     14  O   UNL     1       8.228   4.444  17.191  0.00  0.00    +0.000 OA
BRANCH  12  15
ATOM     15  C   UNL     1       6.390   4.716  15.317  0.00  0.00    +0.000 A 
ATOM     16  C   UNL     1       7.172   4.737  14.157  0.00  0.00    +0.000 A 
ATOM     17  C   UNL     1       6.652   4.222  12.965  0.00  0.00    +0.000 A 
ATOM     18  C   UNL     1       5.362   3.685  12.947  0.00  0.00    +0.000 A 
ATOM     19 CL   UNL     1       4.724   3.047  11.482  0.00  0.00    +0.000 Cl
ATOM     20  C   UNL     1       4.591   3.653  14.109  0.00  0.00    +0.000 A 
ATOM     21  C   UNL     1       5.109   4.162  15.301  0.00  0.00    +0.000 A 
ENDBRANCH  12  15
ENDBRANCH   9  12
BRANCH   1  23
ATOM     22  C   UNL     1       1.596   8.315  20.761  0.00  0.00    +0.000 C 
ATOM     23  N   UNL     1       1.453   7.673  19.642  0.00  0.00    +0.000 NA
BRANCH  22  27
ATOM     24  C   UNL     1      -1.242  11.151  22.238  0.00  0.00    +0.000 A 
ATOM     25  C   UNL     1      -0.776  10.118  23.067  0.00  0.00    +0.000 A 
ATOM     26  C   UNL     1       0.144   9.179  22.599  0.00  0.00    +0.000 A 
ATOM     27  C   UNL     1       0.566   9.240  21.276  0.00  0.00    +0.000 A 
ATOM     28  C   UNL     1       0.014  10.189  20.410  0.00  0.00    +0.000 A 
ATOM     29  C   UNL     1      -0.893  11.153  20.878  0.00  0.00    +0.000 A 
BRANCH  24  31
ATOM     30  C   UNL     1      -1.346  13.319  23.164  0.00  0.00    +0.000 C 
ATOM     31  O   UNL     1      -2.041  12.142  22.743  0.00  0.00    +0.000 OA
ENDBRANCH  24  31
BRANCH  29  32
ATOM     32  O   UNL     1      -1.292  12.005  19.884  0.00  0.00    +0.000 OA
ATOM     33  C   UNL     1      -1.896  11.478  18.713  0.00  0.00    +0.000 C 
ENDBRANCH  29  32
ENDBRANCH  22  27
ENDBRANCH   1  23
TORSDOF 6
ENDMDL
MODEL 3
REMARK VINA RESULT:      -8.4      0.858      1.029
REMARK  Name = 
REMARK  9 active torsions:
REMARK  status: ('A' for Active; 'I' for Inactive)
REMARK    1  A    between atoms: C_1  and  O_2
REMARK    2  A    between atoms: O_2  and  C_3
REMARK    3  A    between atoms: C_6  and  C_7
REMARK    4  A    between atoms: N_8  and  N_9
REMARK    5  A    between atoms: C_10  and  C_11
REMARK    6  A    between atoms: N_17  and  S_18
REMARK    7  A    between atoms: S_18  and  C_21
REMARK    8  A    between atoms: C_31  and  O_32
REMARK    9  A    between atoms: O_32  and  C_33
REMARK                            x       y       z     vdW  Elec       q    Type
REMARK                         _______ _______ _______ _____ _____    ______ ____
ROOT
ATOM      1  N   UNL     1       1.567   8.816  19.485  0.00  0.00    +0.000 N 
ATOM      2  C   UNL     1       1.144  10.107  19.099  0.00  0.00    +0.000 A 
ATOM      3  C   UNL     1       1.426  10.558  17.680  0.00  0.00    +0.000 C 
ATOM      4  N   UNL     1       0.535  10.963  19.886  0.00  0.00    +0.000 NA
ATOM      5  C   UNL     1       0.306  10.508  21.142  0.00  0.00    +0.000 A 
ATOM      6  C   UNL     1       0.609   9.254  21.609  0.00  0.00    +0.000 A 
ATOM      7  C   UNL     1       0.153   9.198  22.929  0.00  0.00    +0.000 A 
ATOM      8  N   UNL     1      -0.424  10.337  23.306  0.00  0.00    +0.000 NA
ATOM      9  N   UNL     1      -0.295  11.159  22.211  0.00  0.00    +0.000 N 
ATOM     10  C   UNL     1       1.243   8.290  20.760  0.00  0.00    +0.000 A 
ATOM     11  O   UNL     1       1.412   7.137  21.142  0.00  0.00    +0.000 OA
ENDROOT
BRANCH   9  12
ATOM     12  S   UNL     1      -0.816  12.803  22.169  0.00  0.00    +0.000 S 
ATOM     13  O   UNL     1      -0.744  13.296  23.530  0.00  0.00    +0.000 OA
ATOM     14  O   UNL     1      -0.069  13.441  21.097  0.00  0.00    +0.000 OA
BRANCH  12  15
ATOM     15  C   UNL     1      -2.533  12.729  21.717  0.00  0.00    +0.000 A 
ATOM     16  C   UNL     1      -3.516  12.876  22.702  0.00  0.00    +0.000 A 
ATOM     17  C   UNL     1      -4.864  12.898  22.334  0.00  0.00    +0.000 A 
ATOM     18  C   UNL     1      -5.216  12.781  20.987  0.00  0.00    +0.000 A 
ATOM     19 CL   UNL     1      -6.876  12.814  20.532  0.00  0.00    +0.000 Cl
ATOM     20  C   UNL     1      -4.233  12.650  20.006  0.00  0.00    +0.000 A 
ATOM     21  C   UNL     1      -2.887  12.632  20.370  0.00  0.00    +0.000 A 
ENDBRANCH  12  15
ENDBRANCH   9  12
BRANCH   1  23
ATOM     22  C   UNL     1       3.227   7.388  18.748  0.00  0.00    +0.000 C 
ATOM     23  N   UNL     1       2.101   7.983  18.498  0.00  0.00    +0.000 NA
BRANCH  22  27
ATOM     24  C   UNL     1       5.055   4.441  16.247  0.00  0.00    +0.000 A 
ATOM     25  C   UNL     1       5.153   5.805  15.923  0.00  0.00    +0.000 A 
ATOM     26  C   UNL     1       4.556   6.779  16.723  0.00  0.00    +0.000 A 
ATOM     27  C   UNL     1       3.811   6.388  17.830  0.00  0.00    +0.000 A 
ATOM     28  C   UNL     1       3.604   5.030  18.089  0.00  0.00    +0.000 A 
ATOM     29  C   UNL     1       4.221   4.043  17.304  0.00  0.00    +0.000 A 
BRANCH  24  31
ATOM     30  C   UNL     1       6.398   4.003  14.357  0.00  0.00    +0.000 C 
ATOM     31  O   UNL     1       5.751   3.504  15.531  0.00  0.00    +0.000 OA
ENDBRANCH  24  31
BRANCH  29  32
ATOM     32  O   UNL     1       3.918   2.780  17.737  0.00  0.00    +0.000 OA
ATOM     33  C   UNL     1       3.534   2.581  19.089  0.00  0.00    +0.000 C 
ENDBRANCH  29  32
ENDBRANCH  22  27
ENDBRANCH   1  23
TORSDOF 6
ENDMDL
MODEL 4
REMARK VINA RESULT:      -8.1      0.830      1.669
REMARK  Name = 
REMARK  9 active torsions:
REMARK  status: ('A' for Active; 'I' for Inactive)
REMARK    1  A    between atoms: C_1  and  O_2
REMARK    2  A    between atoms: O_2  and  C_3
REMARK    3  A    between atoms: C_6  and  C_7
REMARK    4  A    between atoms: N_8  and  N_9
REMARK    5  A    between atoms: C_10  and  C_11
REMARK    6  A    between atoms: N_17  and  S_18
REMARK    7  A    between atoms: S_18  and  C_21
REMARK    8  A    between atoms: C_31  and  O_32
REMARK    9  A    between atoms: O_32  and  C_33
REMARK                            x       y       z     vdW  Elec       q    Type
REMARK                         _______ _______ _______ _____ _____    ______ ____
ROOT
ATOM      1  N   UNL     1       1.610   8.683  19.673  0.00  0.00    +0.000 N 
ATOM      2  C   UNL     1       1.283   9.998  19.277  0.00  0.00    +0.000 A 
ATOM      3  C   UNL     1       1.809  10.496  17.946  0.00  0.00    +0.000 C 
ATOM      4  N   UNL     1       0.567  10.839  19.986  0.00  0.00    +0.000 NA
ATOM      5  C   UNL     1       0.120  10.341  21.165  0.00  0.00    +0.000 A 
ATOM      6  C   UNL     1       0.315   9.063  21.623  0.00  0.00    +0.000 A 
ATOM      7  C   UNL     1      -0.358   8.967  22.844  0.00  0.00    +0.000 A 
ATOM      8  N   UNL     1      -0.969  10.106  23.167  0.00  0.00    +0.000 NA
ATOM      9  N   UNL     1      -0.641  10.966  22.145  0.00  0.00    +0.000 N 
ATOM     10  C   UNL     1       1.065   8.116  20.851  0.00  0.00    +0.000 A 
ATOM     11  O   UNL     1       1.144   6.945  21.207  0.00  0.00    +0.000 OA
ENDROOT
BRANCH   9  12
ATOM     12  S   UNL     1      -1.115  12.623  22.086  0.00  0.00    +0.000 S 
ATOM     13  O   UNL     1      -0.331  13.315  23.091  0.00  0.00    +0.000 OA
ATOM     14  O   UNL     1      -1.060  13.015  20.687  0.00  0.00    +0.000 OA
BRANCH  12  15
ATOM     15  C   UNL     1      -2.808  12.636  22.627  0.00  0.00    +0.000 A 
ATOM     16  C   UNL     1      -3.098  12.601  23.996  0.00  0.00    +0.000 A 
ATOM     17  C   UNL     1      -4.427  12.692  24.422  0.00  0.00    +0.000 A 
ATOM     18  C   UNL     1      -5.449  12.825  23.478  0.00  0.00    +0.000 A 
ATOM     19 CL   UNL     1      -7.085  12.943  24.002  0.00  0.00    +0.000 Cl
ATOM     20  C   UNL     1      -5.154  12.874  22.116  0.00  0.00    +0.000 A 
ATOM     21  C   UNL     1      -3.829  12.788  21.688  0.00  0.00    +0.000 A 
ENDBRANCH  12  15
ENDBRANCH   9  12
BRANCH   1  23
ATOM     22  C   UNL     1       3.131   7.004  19.217  0.00  0.00    +0.000 C 
ATOM     23  N   UNL     1       2.286   7.875  18.755  0.00  0.00    +0.000 NA
BRANCH  22  27
ATOM     24  C   UNL     1       5.059   4.287  16.538  0.00  0.00    +0.000 A 
ATOM     25  C   UNL     1       3.767   4.013  17.017  0.00  0.00    +0.000 A 
ATOM     26  C   UNL     1       3.126   4.884  17.898  0.00  0.00    +0.000 A 
ATOM     27  C   UNL     1       3.799   6.015  18.346  0.00  0.00    +0.000 A 
ATOM     28  C   UNL     1       5.129   6.231  17.973  0.00  0.00    +0.000 A 
ATOM     29  C   UNL     1       5.773   5.373  17.068  0.00  0.00    +0.000 A 
BRANCH  24  31
ATOM     30  C   UNL     1       5.798   4.127  14.303  0.00  0.00    +0.000 C 
ATOM     31  O   UNL     1       5.626   3.496  15.575  0.00  0.00    +0.000 OA
ENDBRANCH  24  31
BRANCH  29  32
ATOM     32  O   UNL     1       7.057   5.773  16.809  0.00  0.00    +0.000 OA
ATOM     33  C   UNL     1       7.562   6.943  17.434  0.00  0.00    +0.000 C 
ENDBRANCH  29  32
ENDBRANCH  22  27
ENDBRANCH   1  23
TORSDOF 6
ENDMDL
MODEL 5
REMARK VINA RESULT:      -8.1      1.081      1.741
REMARK  Name = 
REMARK  9 active torsions:
REMARK  status: ('A' for Active; 'I' for Inactive)
REMARK    1  A    between atoms: C_1  and  O_2
REMARK    2  A    between atoms: O_2  and  C_3
REMARK    3  A    between atoms: C_6  and  C_7
REMARK    4  A    between atoms: N_8  and  N_9
REMARK    5  A    between atoms: C_10  and  C_11
REMARK    6  A    between atoms: N_17  and  S_18
REMARK    7  A    between atoms: S_18  and  C_21
REMARK    8  A    between atoms: C_31  and  O_32
REMARK    9  A    between atoms: O_32  and  C_33
REMARK                            x       y       z     vdW  Elec       q    Type
REMARK                         _______ _______ _______ _____ _____    ______ ____
ROOT
ATOM      1  N   UNL     1       1.541   8.593  19.785  0.00  0.00    +0.000 N 
ATOM      2  C   UNL     1       1.246   9.878  19.278  0.00  0.00    +0.000 A 
ATOM      3  C   UNL     1       1.722  10.223  17.882  0.00  0.00    +0.000 C 
ATOM      4  N   UNL     1       0.599  10.812  19.934  0.00  0.00    +0.000 NA
ATOM      5  C   UNL     1       0.193  10.449  21.176  0.00  0.00    +0.000 A 
ATOM      6  C   UNL     1       0.362   9.213  21.746  0.00  0.00    +0.000 A 
ATOM      7  C   UNL     1      -0.252   9.264  23.000  0.00  0.00    +0.000 A 
ATOM      8  N   UNL     1      -0.802  10.453  23.239  0.00  0.00    +0.000 NA
ATOM      9  N   UNL     1      -0.492  11.197  22.124  0.00  0.00    +0.000 N 
ATOM     10  C   UNL     1       1.034   8.165  21.037  0.00  0.00    +0.000 A 
ATOM     11  O   UNL     1       1.087   7.032  21.501  0.00  0.00    +0.000 OA
ENDROOT
BRANCH   9  12
ATOM     12  S   UNL     1      -0.905  12.860  21.926  0.00  0.00    +0.000 S 
ATOM     13  O   UNL     1      -0.069  13.607  22.845  0.00  0.00    +0.000 OA
ATOM     14  O   UNL     1      -0.872  13.122  20.496  0.00  0.00    +0.000 OA
BRANCH  12  15
ATOM     15  C   UNL     1      -2.581  12.989  22.503  0.00  0.00    +0.000 A 
ATOM     16  C   UNL     1      -3.639  12.800  21.606  0.00  0.00    +0.000 A 
ATOM     17  C   UNL     1      -4.955  12.822  22.078  0.00  0.00    +0.000 A 
ATOM     18  C   UNL     1      -5.200  13.023  23.439  0.00  0.00    +0.000 A 
ATOM     19 CL   UNL     1      -6.820  13.045  24.021  0.00  0.00    +0.000 Cl
ATOM     20  C   UNL     1      -4.142  13.196  24.332  0.00  0.00    +0.000 A 
ATOM     21  C   UNL     1      -2.828  13.170  23.865  0.00  0.00    +0.000 A 
ENDBRANCH  12  15
ENDBRANCH   9  12
BRANCH   1  23
ATOM     22  C   UNL     1       3.210   7.063  19.325  0.00  0.00    +0.000 C 
ATOM     23  N   UNL     1       2.139   7.673  18.919  0.00  0.00    +0.000 NA
BRANCH  22  27
ATOM     24  C   UNL     1       5.165   4.078  16.970  0.00  0.00    +0.000 A 
ATOM     25  C   UNL     1       3.796   4.337  16.791  0.00  0.00    +0.000 A 
ATOM     26  C   UNL     1       3.141   5.302  17.557  0.00  0.00    +0.000 A 
ATOM     27  C   UNL     1       3.844   5.980  18.545  0.00  0.00    +0.000 A 
ATOM     28  C   UNL     1       5.174   5.642  18.813  0.00  0.00    +0.000 A 
ATOM     29  C   UNL     1       5.849   4.690  18.033  0.00  0.00    +0.000 A 
BRANCH  24  31
ATOM     30  C   UNL     1       6.144   3.774  14.845  0.00  0.00    +0.000 C 
ATOM     31  O   UNL     1       5.827   3.226  16.127  0.00  0.00    +0.000 OA
ENDBRANCH  24  31
BRANCH  29  32
ATOM     32  O   UNL     1       7.146   4.525  18.435  0.00  0.00    +0.000 OA
ATOM     33  C   UNL     1       7.841   5.617  19.017  0.00  0.00    +0.000 C 
ENDBRANCH  29  32
ENDBRANCH  22  27
ENDBRANCH   1  23
TORSDOF 6
ENDMDL
MODEL 6
REMARK VINA RESULT:      -8.1      2.906      3.468
REMARK  Name = 
REMARK  9 active torsions:
REMARK  status: ('A' for Active; 'I' for Inactive)
REMARK    1  A    between atoms: C_1  and  O_2
REMARK    2  A    between atoms: O_2  and  C_3
REMARK    3  A    between atoms: C_6  and  C_7
REMARK    4  A    between atoms: N_8  and  N_9
REMARK    5  A    between atoms: C_10  and  C_11
REMARK    6  A    between atoms: N_17  and  S_18
REMARK    7  A    between atoms: S_18  and  C_21
REMARK    8  A    between atoms: C_31  and  O_32
REMARK    9  A    between atoms: O_32  and  C_33
REMARK                            x       y       z     vdW  Elec       q    Type
REMARK                         _______ _______ _______ _____ _____    ______ ____
ROOT
ATOM      1  N   UNL     1       1.357   8.577  19.589  0.00  0.00    +0.000 N 
ATOM      2  C   UNL     1       0.714   9.737  19.103  0.00  0.00    +0.000 A 
ATOM      3  C   UNL     1       0.744  10.000  17.611  0.00  0.00    +0.000 C 
ATOM      4  N   UNL     1       0.099  10.622  19.852  0.00  0.00    +0.000 NA
ATOM      5  C   UNL     1       0.100  10.336  21.177  0.00  0.00    +0.000 A 
ATOM      6  C   UNL     1       0.631   9.211  21.755  0.00  0.00    +0.000 A 
ATOM      7  C   UNL     1       0.361   9.298  23.123  0.00  0.00    +0.000 A 
ATOM      8  N   UNL     1      -0.314  10.405  23.428  0.00  0.00    +0.000 NA
ATOM      9  N   UNL     1      -0.442  11.064  22.228  0.00  0.00    +0.000 N 
ATOM     10  C   UNL     1       1.276   8.212  20.955  0.00  0.00    +0.000 A 
ATOM     11  O   UNL     1       1.650   7.158  21.457  0.00  0.00    +0.000 OA
ENDROOT
BRANCH   9  12
ATOM     12  S   UNL     1      -1.186  12.609  22.048  0.00  0.00    +0.000 S 
ATOM     13  O   UNL     1      -2.455  12.384  21.383  0.00  0.00    +0.000 OA
ATOM     14  O   UNL     1      -1.123  13.248  23.353  0.00  0.00    +0.000 OA
BRANCH  12  15
ATOM     15  C   UNL     1      -0.139  13.494  20.916  0.00  0.00    +0.000 A 
ATOM     16  C   UNL     1      -0.672  13.986  19.719  0.00  0.00    +0.000 A 
ATOM     17  C   UNL     1       0.132  14.750  18.869  0.00  0.00    +0.000 A 
ATOM     18  C   UNL     1       1.456  15.021  19.225  0.00  0.00    +0.000 A 
ATOM     19 CL   UNL     1       2.445  15.967  18.181  0.00  0.00    +0.000 Cl
ATOM     20  C   UNL     1       1.980  14.541  20.426  0.00  0.00    +0.000 A 
ATOM     21  C   UNL     1       1.178  13.782  21.279  0.00  0.00    +0.000 A 
ENDBRANCH  12  15
ENDBRANCH   9  12
BRANCH   1  23
ATOM     22  C   UNL     1       3.158   7.547  18.571  0.00  0.00    +0.000 C 
ATOM     23  N   UNL     1       1.868   7.675  18.651  0.00  0.00    +0.000 NA
BRANCH  22  27
ATOM     24  C   UNL     1       5.114   4.534  16.252  0.00  0.00    +0.000 A 
ATOM     25  C   UNL     1       5.371   5.894  16.009  0.00  0.00    +0.000 A 
ATOM     26  C   UNL     1       4.735   6.890  16.750  0.00  0.00    +0.000 A 
ATOM     27  C   UNL     1       3.796   6.530  17.710  0.00  0.00    +0.000 A 
ATOM     28  C   UNL     1       3.443   5.187  17.873  0.00  0.00    +0.000 A 
ATOM     29  C   UNL     1       4.094   4.176  17.149  0.00  0.00    +0.000 A 
BRANCH  24  31
ATOM     30  C   UNL     1       6.244   3.898  14.281  0.00  0.00    +0.000 C 
ATOM     31  O   UNL     1       5.837   3.564  15.611  0.00  0.00    +0.000 OA
ENDBRANCH  24  31
BRANCH  29  32
ATOM     32  O   UNL     1       3.627   2.931  17.473  0.00  0.00    +0.000 OA
ATOM     33  C   UNL     1       2.669   2.795  18.511  0.00  0.00    +0.000 C 
ENDBRANCH  29  32
ENDBRANCH  22  27
ENDBRANCH   1  23
TORSDOF 6
ENDMDL
MODEL 7
REMARK VINA RESULT:      -8.0      1.883      2.810
REMARK  Name = 
REMARK  9 active torsions:
REMARK  status: ('A' for Active; 'I' for Inactive)
REMARK    1  A    between atoms: C_1  and  O_2
REMARK    2  A    between atoms: O_2  and  C_3
REMARK    3  A    between atoms: C_6  and  C_7
REMARK    4  A    between atoms: N_8  and  N_9
REMARK    5  A    between atoms: C_10  and  C_11
REMARK    6  A    between atoms: N_17  and  S_18
REMARK    7  A    between atoms: S_18  and  C_21
REMARK    8  A    between atoms: C_31  and  O_32
REMARK    9  A    between atoms: O_32  and  C_33
REMARK                            x       y       z     vdW  Elec       q    Type
REMARK                         _______ _______ _______ _____ _____    ______ ____
ROOT
ATOM      1  N   UNL     1       0.772   9.414  20.590  0.00  0.00    +0.000 N 
ATOM      2  C   UNL     1       0.039  10.030  19.552  0.00  0.00    +0.000 A 
ATOM      3  C   UNL     1       0.349   9.633  18.123  0.00  0.00    +0.000 C 
ATOM      4  N   UNL     1      -0.888  10.942  19.729  0.00  0.00    +0.000 NA
ATOM      5  C   UNL     1      -1.127  11.257  21.025  0.00  0.00    +0.000 A 
ATOM      6  C   UNL     1      -0.529  10.678  22.116  0.00  0.00    +0.000 A 
ATOM      7  C   UNL     1      -1.109  11.260  23.247  0.00  0.00    +0.000 A 
ATOM      8  N   UNL     1      -2.039  12.157  22.924  0.00  0.00    +0.000 NA
ATOM      9  N   UNL     1      -2.022  12.181  21.549  0.00  0.00    +0.000 N 
ATOM     10  C   UNL     1       0.461   9.656  21.950  0.00  0.00    +0.000 A 
ATOM     11  O   UNL     1       0.914   9.062  22.923  0.00  0.00    +0.000 OA
ENDROOT
BRANCH   9  12
ATOM     12  S   UNL     1      -2.995  13.232  20.588  0.00  0.00    +0.000 S 
ATOM     13  O   UNL     1      -2.253  14.470  20.447  0.00  0.00    +0.000 OA
ATOM     14  O   UNL     1      -3.403  12.461  19.425  0.00  0.00    +0.000 OA
BRANCH  12  15
ATOM     15  C   UNL     1      -4.424  13.577  21.588  0.00  0.00    +0.000 A 
ATOM     16  C   UNL     1      -5.473  12.653  21.639  0.00  0.00    +0.000 A 
ATOM     17  C   UNL     1      -6.559  12.888  22.487  0.00  0.00    +0.000 A 
ATOM     18  C   UNL     1      -6.581  14.038  23.282  0.00  0.00    +0.000 A 
ATOM     19 CL   UNL     1      -7.915  14.325  24.331  0.00  0.00    +0.000 Cl
ATOM     20  C   UNL     1      -5.526  14.949  23.239  0.00  0.00    +0.000 A 
ATOM     21  C   UNL     1      -4.439  14.715  22.397  0.00  0.00    +0.000 A 
ENDBRANCH  12  15
ENDBRANCH   9  12
BRANCH   1  23
ATOM     22  C   UNL     1       1.409   7.197  20.725  0.00  0.00    +0.000 C 
ATOM     23  N   UNL     1       1.646   8.379  20.244  0.00  0.00    +0.000 NA
BRANCH  22  27
ATOM     24  C   UNL     1       3.567   3.766  19.363  0.00  0.00    +0.000 A 
ATOM     25  C   UNL     1       2.660   3.655  20.430  0.00  0.00    +0.000 A 
ATOM     26  C   UNL     1       1.954   4.765  20.892  0.00  0.00    +0.000 A 
ATOM     27  C   UNL     1       2.191   6.010  20.320  0.00  0.00    +0.000 A 
ATOM     28  C   UNL     1       3.181   6.153  19.343  0.00  0.00    +0.000 A 
ATOM     29  C   UNL     1       3.879   5.037  18.854  0.00  0.00    +0.000 A 
BRANCH  24  31
ATOM     30  C   UNL     1       3.324   1.895  17.947  0.00  0.00    +0.000 C 
ATOM     31  O   UNL     1       4.156   2.651  18.831  0.00  0.00    +0.000 OA
ENDBRANCH  24  31
BRANCH  29  32
ATOM     32  O   UNL     1       4.781   5.383  17.884  0.00  0.00    +0.000 OA
ATOM     33  C   UNL     1       4.504   6.487  17.036  0.00  0.00    +0.000 C 
ENDBRANCH  29  32
ENDBRANCH  22  27
ENDBRANCH   1  23
TORSDOF 6
ENDMDL
MODEL 8
REMARK VINA RESULT:      -8.0      1.903      3.243
REMARK  Name = 
REMARK  9 active torsions:
REMARK  status: ('A' for Active; 'I' for Inactive)
REMARK    1  A    between atoms: C_1  and  O_2
REMARK    2  A    between atoms: O_2  and  C_3
REMARK    3  A    between atoms: C_6  and  C_7
REMARK    4  A    between atoms: N_8  and  N_9
REMARK    5  A    between atoms: C_10  and  C_11
REMARK    6  A    between atoms: N_17  and  S_18
REMARK    7  A    between atoms: S_18  and  C_21
REMARK    8  A    between atoms: C_31  and  O_32
REMARK    9  A    between atoms: O_32  and  C_33
REMARK                            x       y       z     vdW  Elec       q    Type
REMARK                         _______ _______ _______ _____ _____    ______ ____
ROOT
ATOM      1  N   UNL     1       0.839   9.490  20.410  0.00  0.00    +0.000 N 
ATOM      2  C   UNL     1       0.603  10.180  21.619  0.00  0.00    +0.000 A 
ATOM      3  C   UNL     1       0.508   9.371  22.897  0.00  0.00    +0.000 C 
ATOM      4  N   UNL     1       0.442  11.478  21.723  0.00  0.00    +0.000 NA
ATOM      5  C   UNL     1       0.540  12.152  20.551  0.00  0.00    +0.000 A 
ATOM      6  C   UNL     1       0.832  11.601  19.330  0.00  0.00    +0.000 A 
ATOM      7  C   UNL     1       0.887  12.657  18.416  0.00  0.00    +0.000 A 
ATOM      8  N   UNL     1       0.658  13.833  18.999  0.00  0.00    +0.000 NA
ATOM      9  N   UNL     1       0.406  13.514  20.313  0.00  0.00    +0.000 N 
ATOM     10  C   UNL     1       1.047  10.190  19.196  0.00  0.00    +0.000 A 
ATOM     11  O   UNL     1       1.416   9.714  18.128  0.00  0.00    +0.000 OA
ENDROOT
BRANCH   9  12
ATOM     12  S   UNL     1      -0.025  14.666  21.522  0.00  0.00    +0.000 S 
ATOM     13  O   UNL     1       0.969  14.557  22.572  0.00  0.00    +0.000 OA
ATOM     14  O   UNL     1      -0.250  15.923  20.827  0.00  0.00    +0.000 OA
BRANCH  12  15
ATOM     15  C   UNL     1      -1.568  14.083  22.184  0.00  0.00    +0.000 A 
ATOM     16  C   UNL     1      -1.717  13.936  23.567  0.00  0.00    +0.000 A 
ATOM     17  C   UNL     1      -2.956  13.554  24.091  0.00  0.00    +0.000 A 
ATOM     18  C   UNL     1      -4.034  13.332  23.228  0.00  0.00    +0.000 A 
ATOM     19 CL   UNL     1      -5.561  12.867  23.873  0.00  0.00    +0.000 Cl
ATOM     20  C   UNL     1      -3.884  13.493  21.851  0.00  0.00    +0.000 A 
ATOM     21  C   UNL     1      -2.651  13.878  21.326  0.00  0.00    +0.000 A 
ENDBRANCH  12  15
ENDBRANCH   9  12
BRANCH   1  23
ATOM     22  C   UNL     1       2.081   7.650  19.771  0.00  0.00    +0.000 C 
ATOM     23  N   UNL     1       1.102   8.119  20.482  0.00  0.00    +0.000 NA
BRANCH  22  27
ATOM     24  C   UNL     1       3.351   3.568  19.852  0.00  0.00    +0.000 A 
ATOM     25  C   UNL     1       2.128   3.941  20.435  0.00  0.00    +0.000 A 
ATOM     26  C   UNL     1       1.703   5.270  20.425  0.00  0.00    +0.000 A 
ATOM     27  C   UNL     1       2.526   6.245  19.873  0.00  0.00    +0.000 A 
ATOM     28  C   UNL     1       3.797   5.901  19.403  0.00  0.00    +0.000 A 
ATOM     29  C   UNL     1       4.224   4.564  19.387  0.00  0.00    +0.000 A 
BRANCH  24  31
ATOM     30  C   UNL     1       3.331   1.622  18.519  0.00  0.00    +0.000 C 
ATOM     31  O   UNL     1       3.699   2.248  19.751  0.00  0.00    +0.000 OA
ENDBRANCH  24  31
BRANCH  29  32
ATOM     32  O   UNL     1       5.482   4.435  18.863  0.00  0.00    +0.000 OA
ATOM     33  C   UNL     1       5.650   4.400  17.453  0.00  0.00    +0.000 C 
ENDBRANCH  29  32
ENDBRANCH  22  27
ENDBRANCH   1  23
TORSDOF 6
ENDMDL
MODEL 9
REMARK VINA RESULT:      -8.0      1.857      3.266
REMARK  Name = 
REMARK  9 active torsions:
REMARK  status: ('A' for Active; 'I' for Inactive)
REMARK    1  A    between atoms: C_1  and  O_2
REMARK    2  A    between atoms: O_2  and  C_3
REMARK    3  A    between atoms: C_6  and  C_7
REMARK    4  A    between atoms: N_8  and  N_9
REMARK    5  A    between atoms: C_10  and  C_11
REMARK    6  A    between atoms: N_17  and  S_18
REMARK    7  A    between atoms: S_18  and  C_21
REMARK    8  A    between atoms: C_31  and  O_32
REMARK    9  A    between atoms: O_32  and  C_33
REMARK                            x       y       z     vdW  Elec       q    Type
REMARK                         _______ _______ _______ _____ _____    ______ ____
ROOT
ATOM      1  N   UNL     1       0.284   9.542  20.471  0.00  0.00    +0.000 N 
ATOM      2  C   UNL     1       0.232  10.203  21.718  0.00  0.00    +0.000 A 
ATOM      3  C   UNL     1       0.450   9.381  22.972  0.00  0.00    +0.000 C 
ATOM      4  N   UNL     1      -0.008  11.483  21.878  0.00  0.00    +0.000 NA
ATOM      5  C   UNL     1      -0.193  12.169  20.724  0.00  0.00    +0.000 A 
ATOM      6  C   UNL     1      -0.099  11.651  19.458  0.00  0.00    +0.000 A 
ATOM      7  C   UNL     1      -0.305  12.714  18.574  0.00  0.00    +0.000 A 
ATOM      8  N   UNL     1      -0.510  13.863  19.215  0.00  0.00    +0.000 NA
ATOM      9  N   UNL     1      -0.478  13.517  20.546  0.00  0.00    +0.000 N 
ATOM     10  C   UNL     1       0.198  10.264  19.255  0.00  0.00    +0.000 A 
ATOM     11  O   UNL     1       0.391   9.826  18.126  0.00  0.00    +0.000 OA
ENDROOT
BRANCH   9  12
ATOM     12  S   UNL     1      -0.757  14.623  21.839  0.00  0.00    +0.000 S 
ATOM     13  O   UNL     1       0.234  14.330  22.857  0.00  0.00    +0.000 OA
ATOM     14  O   UNL     1      -0.849  15.943  21.236  0.00  0.00    +0.000 OA
BRANCH  12  15
ATOM     15  C   UNL     1      -2.346  14.170  22.495  0.00  0.00    +0.000 A 
ATOM     16  C   UNL     1      -3.509  14.524  21.800  0.00  0.00    +0.000 A 
ATOM     17  C   UNL     1      -4.752  14.098  22.275  0.00  0.00    +0.000 A 
ATOM     18  C   UNL     1      -4.822  13.317  23.432  0.00  0.00    +0.000 A 
ATOM     19 CL   UNL     1      -6.353  12.787  24.014  0.00  0.00    +0.000 Cl
ATOM     20  C   UNL     1      -3.660  12.955  24.114  0.00  0.00    +0.000 A 
ATOM     21  C   UNL     1      -2.417  13.374  23.640  0.00  0.00    +0.000 A 
ENDBRANCH  12  15
ENDBRANCH   9  12
BRANCH   1  23
ATOM     22  C   UNL     1       1.785   7.886  19.886  0.00  0.00    +0.000 C 
ATOM     23  N   UNL     1       0.664   8.197  20.462  0.00  0.00    +0.000 NA
BRANCH  22  27
ATOM     24  C   UNL     1       3.325   3.897  19.824  0.00  0.00    +0.000 A 
ATOM     25  C   UNL     1       2.281   4.240  20.700  0.00  0.00    +0.000 A 
ATOM     26  C   UNL     1       1.772   5.539  20.739  0.00  0.00    +0.000 A 
ATOM     27  C   UNL     1       2.343   6.518  19.934  0.00  0.00    +0.000 A 
ATOM     28  C   UNL     1       3.461   6.215  19.151  0.00  0.00    +0.000 A 
ATOM     29  C   UNL     1       3.965   4.907  19.087  0.00  0.00    +0.000 A 
BRANCH  24  31
ATOM     30  C   UNL     1       3.071   1.859  18.663  0.00  0.00    +0.000 C 
ATOM     31  O   UNL     1       3.728   2.595  19.699  0.00  0.00    +0.000 OA
ENDBRANCH  24  31
BRANCH  29  32
ATOM     32  O   UNL     1       5.040   4.812  18.246  0.00  0.00    +0.000 OA
ATOM     33  C   UNL     1       4.823   4.640  16.854  0.00  0.00    +0.000 C 
ENDBRANCH  29  32
ENDBRANCH  22  27
ENDBRANCH   1  23
TORSDOF 6
ENDMDL
