MODEL 1
REMARK VINA RESULT:      -7.1      0.000      0.000
REMARK  Name = 
REMARK  11 active torsions:
REMARK  status: ('A' for Active; 'I' for Inactive)
REMARK    1  A    between atoms: C_1  and  C_2
REMARK    2  A    between atoms: C_2  and  O_3
REMARK    3  A    between atoms: O_3  and  P_4
REMARK    4  A    between atoms: P_4  and  O_6
REMARK    5  A    between atoms: P_4  and  C_9
REMARK    6  A    between atoms: O_6  and  C_7
REMARK    7  A    between atoms: C_7  and  C_8
REMARK    8  A    between atoms: C_11  and  C_12
REMARK    9  A    between atoms: C_12  and  N_13
REMARK   10  A    between atoms: C_19  and  C_21
REMARK   11  A    between atoms: N_30  and  C_31
REMARK                            x       y       z     vdW  Elec       q    Type
REMARK                         _______ _______ _______ _____ _____    ______ ____
ROOT
ATOM      1  N   UNL     1       1.436   8.496  19.945  0.00  0.00    +0.000 N 
ATOM      2  C   UNL     1       0.999   7.743  21.008  0.00  0.00    +0.000 A 
ATOM      3  C   UNL     1       0.214   8.267  21.944  0.00  0.00    +0.000 A 
ATOM      4  C   UNL     1      -0.046   9.721  21.936  0.00  0.00    +0.000 A 
ATOM      5  O   UNL     1      -0.548  10.183  22.960  0.00  0.00    +0.000 OA
ATOM      6  N   UNL     1       0.366  10.424  20.816  0.00  0.00    +0.000 N 
ATOM      7  C   UNL     1       0.120  11.798  20.806  0.00  0.00    +0.000 C 
ATOM      8  O   UNL     1      -0.891  12.317  21.283  0.00  0.00    +0.000 OA
ATOM      9  C   UNL     1       0.939   9.783  19.718  0.00  0.00    +0.000 A 
ATOM     10  O   UNL     1       1.009  10.267  18.588  0.00  0.00    +0.000 OA
ENDROOT
BRANCH   7  11
ATOM     11  C   UNL     1       1.021  12.704  20.021  0.00  0.00    +0.000 A 
ATOM     12  C   UNL     1       2.300  12.967  20.538  0.00  0.00    +0.000 A 
ATOM     13  C   UNL     1       3.123  13.920  19.937  0.00  0.00    +0.000 A 
ATOM     14  C   UNL     1       2.679  14.611  18.812  0.00  0.00    +0.000 A 
ATOM     15  C   UNL     1       1.442  14.304  18.247  0.00  0.00    +0.000 A 
ATOM     16  C   UNL     1       0.630  13.325  18.827  0.00  0.00    +0.000 A 
ENDBRANCH   7  11
BRANCH   1  17
ATOM     17  C   UNL     1       2.344   7.904  18.953  0.00  0.00    +0.000 C 
BRANCH  17  20
ATOM     18  C   UNL     1       4.447   4.997  18.368  0.00  0.00    +0.000 C 
ATOM     19  C   UNL     1       4.260   6.248  19.221  0.00  0.00    +0.000 C 
ATOM     20  C   UNL     1       2.765   6.462  19.321  0.00  0.00    +0.000 C 
ATOM     21  O   UNL     1       2.165   5.513  18.427  0.00  0.00    +0.000 OA
ATOM     22  N   UNL     1       3.214   4.989  17.551  0.00  0.00    +0.000 NA
ATOM     23  C   UNL     1       2.787   3.640  17.198  0.00  0.00    +0.000 C 
BRANCH  18  24
ATOM     24  P   UNL     1       5.939   4.891  17.313  0.00  0.00    +0.000 P 
ATOM     25  O   UNL     1       6.639   4.079  18.418  0.00  0.00    +0.000 OA
BRANCH  24  26
ATOM     26  O   UNL     1       7.349   4.792  16.317  0.00  0.00    +0.000 OA
BRANCH  26  28
ATOM     27  C   UNL     1       5.624   4.359  14.686  0.00  0.00    +0.000 C 
ATOM     28  C   UNL     1       7.053   4.798  14.918  0.00  0.00    +0.000 C 
ENDBRANCH  26  28
ENDBRANCH  24  26
BRANCH  24  29
ATOM     29  O   UNL     1       6.277   6.505  17.506  0.00  0.00    +0.000 OA
BRANCH  29  30
ATOM     30  C   UNL     1       7.559   6.927  17.938  0.00  0.00    +0.000 C 
ATOM     31  C   UNL     1       7.726   8.408  17.648  0.00  0.00    +0.000 C 
ENDBRANCH  29  30
ENDBRANCH  24  29
ENDBRANCH  18  24
ENDBRANCH  17  20
ENDBRANCH   1  17
TORSDOF 8
ENDMDL
MODEL 2
REMARK VINA RESULT:      -6.8      0.953      1.311
REMARK  Name = 
REMARK  11 active torsions:
REMARK  status: ('A' for Active; 'I' for Inactive)
REMARK    1  A    between atoms: C_1  and  C_2
REMARK    2  A    between atoms: C_2  and  O_3
REMARK    3  A    between atoms: O_3  and  P_4
REMARK    4  A    between atoms: P_4  and  O_6
REMARK    5  A    between atoms: P_4  and  C_9
REMARK    6  A    between atoms: O_6  and  C_7
REMARK    7  A    between atoms: C_7  and  C_8
REMARK    8  A    between atoms: C_11  and  C_12
REMARK    9  A    between atoms: C_12  and  N_13
REMARK   10  A    between atoms: C_19  and  C_21
REMARK   11  A    between atoms: N_30  and  C_31
REMARK                            x       y       z     vdW  Elec       q    Type
REMARK                         _______ _______ _______ _____ _____    ______ ____
ROOT
ATOM      1  N   UNL     1       1.104   9.016  20.131  0.00  0.00    +0.000 N 
ATOM      2  C   UNL     1       0.756   8.223  21.198  0.00  0.00    +0.000 A 
ATOM      3  C   UNL     1       0.122   8.731  22.252  0.00  0.00    +0.000 A 
ATOM      4  C   UNL     1      -0.051  10.194  22.353  0.00  0.00    +0.000 A 
ATOM      5  O   UNL     1      -0.397  10.619  23.455  0.00  0.00    +0.000 OA
ATOM      6  N   UNL     1       0.262  10.940  21.229  0.00  0.00    +0.000 N 
ATOM      7  C   UNL     1       0.098  12.323  21.322  0.00  0.00    +0.000 C 
ATOM      8  O   UNL     1      -0.816  12.865  21.948  0.00  0.00    +0.000 OA
ATOM      9  C   UNL     1       0.659  10.337  20.036  0.00  0.00    +0.000 A 
ATOM     10  O   UNL     1       0.620  10.884  18.933  0.00  0.00    +0.000 OA
ENDROOT
BRANCH   7  11
ATOM     11  C   UNL     1       0.948  13.227  20.480  0.00  0.00    +0.000 A 
ATOM     12  C   UNL     1       0.307  14.027  19.522  0.00  0.00    +0.000 A 
ATOM     13  C   UNL     1       1.053  14.770  18.607  0.00  0.00    +0.000 A 
ATOM     14  C   UNL     1       2.445  14.723  18.645  0.00  0.00    +0.000 A 
ATOM     15  C   UNL     1       3.092  13.990  19.640  0.00  0.00    +0.000 A 
ATOM     16  C   UNL     1       2.345  13.273  20.580  0.00  0.00    +0.000 A 
ENDBRANCH   7  11
BRANCH   1  17
ATOM     17  C   UNL     1       1.849   8.438  19.004  0.00  0.00    +0.000 C 
BRANCH  17  20
ATOM     18  C   UNL     1       3.904   5.594  18.050  0.00  0.00    +0.000 C 
ATOM     19  C   UNL     1       3.897   6.945  18.759  0.00  0.00    +0.000 C 
ATOM     20  C   UNL     1       2.518   7.090  19.363  0.00  0.00    +0.000 C 
ATOM     21  O   UNL     1       1.746   5.989  18.864  0.00  0.00    +0.000 OA
ATOM     22  N   UNL     1       2.471   5.399  17.738  0.00  0.00    +0.000 NA
ATOM     23  C   UNL     1       2.090   3.992  17.725  0.00  0.00    +0.000 C 
BRANCH  18  24
ATOM     24  P   UNL     1       4.937   5.416  16.551  0.00  0.00    +0.000 P 
ATOM     25  O   UNL     1       5.480   4.086  17.106  0.00  0.00    +0.000 OA
BRANCH  24  26
ATOM     26  O   UNL     1       5.914   5.247  15.133  0.00  0.00    +0.000 OA
BRANCH  26  28
ATOM     27  C   UNL     1       6.186   3.747  13.262  0.00  0.00    +0.000 C 
ATOM     28  C   UNL     1       6.150   3.885  14.769  0.00  0.00    +0.000 C 
ENDBRANCH  26  28
ENDBRANCH  24  26
BRANCH  24  29
ATOM     29  O   UNL     1       5.937   6.661  17.003  0.00  0.00    +0.000 OA
BRANCH  29  30
ATOM     30  C   UNL     1       7.335   6.459  17.119  0.00  0.00    +0.000 C 
ATOM     31  C   UNL     1       7.709   6.356  18.587  0.00  0.00    +0.000 C 
ENDBRANCH  29  30
ENDBRANCH  24  29
ENDBRANCH  18  24
ENDBRANCH  17  20
ENDBRANCH   1  17
TORSDOF 8
ENDMDL
MODEL 3
REMARK VINA RESULT:      -6.6      2.946      8.943
REMARK  Name = 
REMARK  11 active torsions:
REMARK  status: ('A' for Active; 'I' for Inactive)
REMARK    1  A    between atoms: C_1  and  C_2
REMARK    2  A    between atoms: C_2  and  O_3
REMARK    3  A    between atoms: O_3  and  P_4
REMARK    4  A    between atoms: P_4  and  O_6
REMARK    5  A    between atoms: P_4  and  C_9
REMARK    6  A    between atoms: O_6  and  C_7
REMARK    7  A    between atoms: C_7  and  C_8
REMARK    8  A    between atoms: C_11  and  C_12
REMARK    9  A    between atoms: C_12  and  N_13
REMARK   10  A    between atoms: C_19  and  C_21
REMARK   11  A    between atoms: N_30  and  C_31
REMARK                            x       y       z     vdW  Elec       q    Type
REMARK                         _______ _______ _______ _____ _____    ______ ____
ROOT
ATOM      1  N   UNL     1       2.313   6.661  19.052  0.00  0.00    +0.000 N 
ATOM      2  C   UNL     1       1.493   6.121  20.013  0.00  0.00    +0.000 A 
ATOM      3  C   UNL     1       1.814   4.986  20.629  0.00  0.00    +0.000 A 
ATOM      4  C   UNL     1       2.973   4.208  20.149  0.00  0.00    +0.000 A 
ATOM      5  O   UNL     1       3.059   3.057  20.574  0.00  0.00    +0.000 OA
ATOM      6  N   UNL     1       3.798   4.822  19.221  0.00  0.00    +0.000 N 
ATOM      7  C   UNL     1       4.895   4.088  18.767  0.00  0.00    +0.000 C 
ATOM      8  O   UNL     1       5.553   3.327  19.480  0.00  0.00    +0.000 OA
ATOM      9  C   UNL     1       3.584   6.136  18.807  0.00  0.00    +0.000 A 
ATOM     10  O   UNL     1       4.438   6.844  18.272  0.00  0.00    +0.000 OA
ENDROOT
BRANCH   7  11
ATOM     11  C   UNL     1       5.445   4.352  17.397  0.00  0.00    +0.000 A 
ATOM     12  C   UNL     1       4.620   4.077  16.295  0.00  0.00    +0.000 A 
ATOM     13  C   UNL     1       5.127   4.154  14.997  0.00  0.00    +0.000 A 
ATOM     14  C   UNL     1       6.457   4.512  14.790  0.00  0.00    +0.000 A 
ATOM     15  C   UNL     1       7.263   4.859  15.873  0.00  0.00    +0.000 A 
ATOM     16  C   UNL     1       6.748   4.816  17.173  0.00  0.00    +0.000 A 
ENDBRANCH   7  11
BRANCH   1  17
ATOM     17  C   UNL     1       1.907   7.888  18.351  0.00  0.00    +0.000 C 
BRANCH  17  20
ATOM     18  C   UNL     1       0.474  10.999  19.570  0.00  0.00    +0.000 C 
ATOM     19  C   UNL     1       0.676   9.517  19.872  0.00  0.00    +0.000 C 
ATOM     20  C   UNL     1       2.003   9.143  19.249  0.00  0.00    +0.000 C 
ATOM     21  O   UNL     1       2.421  10.284  18.487  0.00  0.00    +0.000 OA
ATOM     22  N   UNL     1       1.271  11.177  18.337  0.00  0.00    +0.000 NA
ATOM     23  C   UNL     1       1.831  12.518  18.224  0.00  0.00    +0.000 C 
BRANCH  18  24
ATOM     24  P   UNL     1      -1.238  11.604  19.344  0.00  0.00    +0.000 P 
ATOM     25  O   UNL     1      -1.451  11.512  20.866  0.00  0.00    +0.000 OA
BRANCH  24  26
ATOM     26  O   UNL     1      -2.856  12.176  19.130  0.00  0.00    +0.000 OA
BRANCH  26  28
ATOM     27  C   UNL     1      -4.899  12.660  20.320  0.00  0.00    +0.000 C 
ATOM     28  C   UNL     1      -3.392  12.802  20.298  0.00  0.00    +0.000 C 
ENDBRANCH  26  28
ENDBRANCH  24  26
BRANCH  24  29
ATOM     29  O   UNL     1      -1.720  10.188  18.624  0.00  0.00    +0.000 OA
BRANCH  29  30
ATOM     30  C   UNL     1      -2.874  10.153  17.801  0.00  0.00    +0.000 C 
ATOM     31  C   UNL     1      -2.461   9.872  16.367  0.00  0.00    +0.000 C 
ENDBRANCH  29  30
ENDBRANCH  24  29
ENDBRANCH  18  24
ENDBRANCH  17  20
ENDBRANCH   1  17
TORSDOF 8
ENDMDL
MODEL 4
REMARK VINA RESULT:      -6.6      2.633      8.696
REMARK  Name = 
REMARK  11 active torsions:
REMARK  status: ('A' for Active; 'I' for Inactive)
REMARK    1  A    between atoms: C_1  and  C_2
REMARK    2  A    between atoms: C_2  and  O_3
REMARK    3  A    between atoms: O_3  and  P_4
REMARK    4  A    between atoms: P_4  and  O_6
REMARK    5  A    between atoms: P_4  and  C_9
REMARK    6  A    between atoms: O_6  and  C_7
REMARK    7  A    between atoms: C_7  and  C_8
REMARK    8  A    between atoms: C_11  and  C_12
REMARK    9  A    between atoms: C_12  and  N_13
REMARK   10  A    between atoms: C_19  and  C_21
REMARK   11  A    between atoms: N_30  and  C_31
REMARK                            x       y       z     vdW  Elec       q    Type
REMARK                         _______ _______ _______ _____ _____    ______ ____
ROOT
ATOM      1  N   UNL     1       2.204   5.973  20.019  0.00  0.00    +0.000 N 
ATOM      2  C   UNL     1       1.080   5.323  20.469  0.00  0.00    +0.000 A 
ATOM      3  C   UNL     1       0.981   3.998  20.400  0.00  0.00    +0.000 A 
ATOM      4  C   UNL     1       2.014   3.235  19.671  0.00  0.00    +0.000 A 
ATOM      5  O   UNL     1       1.734   2.065  19.413  0.00  0.00    +0.000 OA
ATOM      6  N   UNL     1       3.151   3.927  19.289  0.00  0.00    +0.000 N 
ATOM      7  C   UNL     1       4.129   3.207  18.601  0.00  0.00    +0.000 C 
ATOM      8  O   UNL     1       4.410   2.031  18.841  0.00  0.00    +0.000 OA
ATOM      9  C   UNL     1       3.344   5.265  19.633  0.00  0.00    +0.000 A 
ATOM     10  O   UNL     1       4.438   5.832  19.635  0.00  0.00    +0.000 OA
ENDROOT
BRANCH   7  11
ATOM     11  C   UNL     1       5.031   3.920  17.639  0.00  0.00    +0.000 A 
ATOM     12  C   UNL     1       4.523   4.225  16.366  0.00  0.00    +0.000 A 
ATOM     13  C   UNL     1       5.359   4.745  15.377  0.00  0.00    +0.000 A 
ATOM     14  C   UNL     1       6.706   4.971  15.654  0.00  0.00    +0.000 A 
ATOM     15  C   UNL     1       7.202   4.742  16.937  0.00  0.00    +0.000 A 
ATOM     16  C   UNL     1       6.358   4.253  17.939  0.00  0.00    +0.000 A 
ENDBRANCH   7  11
BRANCH   1  17
ATOM     17  C   UNL     1       2.264   7.441  20.061  0.00  0.00    +0.000 C 
BRANCH  17  20
ATOM     18  C   UNL     1       0.261  10.377  20.829  0.00  0.00    +0.000 C 
ATOM     19  C   UNL     1       0.741   9.453  19.714  0.00  0.00    +0.000 C 
ATOM     20  C   UNL     1       0.885   8.084  20.342  0.00  0.00    +0.000 C 
ATOM     21  O   UNL     1       0.688   8.269  21.751  0.00  0.00    +0.000 OA
ATOM     22  N   UNL     1       0.779   9.702  22.038  0.00  0.00    +0.000 NA
ATOM     23  C   UNL     1      -0.068   9.919  23.205  0.00  0.00    +0.000 C 
BRANCH  18  24
ATOM     24  P   UNL     1       0.783  12.130  20.776  0.00  0.00    +0.000 P 
ATOM     25  O   UNL     1      -0.558  12.529  21.419  0.00  0.00    +0.000 OA
BRANCH  24  26
ATOM     26  O   UNL     1       1.276  13.787  20.726  0.00  0.00    +0.000 OA
BRANCH  26  28
ATOM     27  C   UNL     1       3.065  15.406  20.669  0.00  0.00    +0.000 C 
ATOM     28  C   UNL     1       2.679  13.952  20.503  0.00  0.00    +0.000 C 
ENDBRANCH  26  28
ENDBRANCH  24  26
BRANCH  24  29
ATOM     29  O   UNL     1       0.652  12.194  19.122  0.00  0.00    +0.000 OA
BRANCH  29  30
ATOM     30  C   UNL     1      -0.345  12.992  18.508  0.00  0.00    +0.000 C 
ATOM     31  C   UNL     1      -1.457  12.097  17.990  0.00  0.00    +0.000 C 
ENDBRANCH  29  30
ENDBRANCH  24  29
ENDBRANCH  18  24
ENDBRANCH  17  20
ENDBRANCH   1  17
TORSDOF 8
ENDMDL
MODEL 5
REMARK VINA RESULT:      -6.6      2.914      8.916
REMARK  Name = 
REMARK  11 active torsions:
REMARK  status: ('A' for Active; 'I' for Inactive)
REMARK    1  A    between atoms: C_1  and  C_2
REMARK    2  A    between atoms: C_2  and  O_3
REMARK    3  A    between atoms: O_3  and  P_4
REMARK    4  A    between atoms: P_4  and  O_6
REMARK    5  A    between atoms: P_4  and  C_9
REMARK    6  A    between atoms: O_6  and  C_7
REMARK    7  A    between atoms: C_7  and  C_8
REMARK    8  A    between atoms: C_11  and  C_12
REMARK    9  A    between atoms: C_12  and  N_13
REMARK   10  A    between atoms: C_19  and  C_21
REMARK   11  A    between atoms: N_30  and  C_31
REMARK                            x       y       z     vdW  Elec       q    Type
REMARK                         _______ _______ _______ _____ _____    ______ ____
ROOT
ATOM      1  N   UNL     1       3.201   7.121  17.969  0.00  0.00    +0.000 N 
ATOM      2  C   UNL     1       4.238   7.529  17.166  0.00  0.00    +0.000 A 
ATOM      3  C   UNL     1       4.992   6.646  16.517  0.00  0.00    +0.000 A 
ATOM      4  C   UNL     1       4.825   5.207  16.803  0.00  0.00    +0.000 A 
ATOM      5  O   UNL     1       5.715   4.470  16.382  0.00  0.00    +0.000 OA
ATOM      6  N   UNL     1       3.731   4.845  17.571  0.00  0.00    +0.000 N 
ATOM      7  C   UNL     1       3.571   3.485  17.842  0.00  0.00    +0.000 C 
ATOM      8  O   UNL     1       3.838   2.590  17.037  0.00  0.00    +0.000 OA
ATOM      9  C   UNL     1       2.794   5.784  18.001  0.00  0.00    +0.000 A 
ATOM     10  O   UNL     1       1.654   5.508  18.376  0.00  0.00    +0.000 OA
ENDROOT
BRANCH   7  11
ATOM     11  C   UNL     1       2.869   3.059  19.096  0.00  0.00    +0.000 A 
ATOM     12  C   UNL     1       1.541   2.615  18.987  0.00  0.00    +0.000 A 
ATOM     13  C   UNL     1       0.786   2.354  20.131  0.00  0.00    +0.000 A 
ATOM     14  C   UNL     1       1.353   2.528  21.391  0.00  0.00    +0.000 A 
ATOM     15  C   UNL     1       2.693   2.895  21.510  0.00  0.00    +0.000 A 
ATOM     16  C   UNL     1       3.462   3.124  20.364  0.00  0.00    +0.000 A 
ENDBRANCH   7  11
BRANCH   1  17
ATOM     17  C   UNL     1       2.417   8.116  18.714  0.00  0.00    +0.000 C 
BRANCH  17  20
ATOM     18  C   UNL     1       0.725  11.309  18.318  0.00  0.00    +0.000 C 
ATOM     19  C   UNL     1       2.080  10.608  18.312  0.00  0.00    +0.000 C 
ATOM     20  C   UNL     1       1.820   9.209  17.797  0.00  0.00    +0.000 C 
ATOM     21  O   UNL     1       0.395   9.075  17.705  0.00  0.00    +0.000 OA
ATOM     22  N   UNL     1      -0.213  10.174  18.456  0.00  0.00    +0.000 NA
ATOM     23  C   UNL     1      -1.494  10.427  17.807  0.00  0.00    +0.000 C 
BRANCH  18  24
ATOM     24  P   UNL     1       0.420  12.578  19.601  0.00  0.00    +0.000 P 
ATOM     25  O   UNL     1      -0.112  13.526  18.510  0.00  0.00    +0.000 OA
BRANCH  24  26
ATOM     26  O   UNL     1       0.133  13.778  20.813  0.00  0.00    +0.000 OA
BRANCH  26  28
ATOM     27  C   UNL     1      -0.571  11.745  21.905  0.00  0.00    +0.000 C 
ATOM     28  C   UNL     1      -0.319  13.230  22.053  0.00  0.00    +0.000 C 
ENDBRANCH  26  28
ENDBRANCH  24  26
BRANCH  24  29
ATOM     29  O   UNL     1       2.044  12.842  19.828  0.00  0.00    +0.000 OA
BRANCH  29  30
ATOM     30  C   UNL     1       2.603  14.127  19.615  0.00  0.00    +0.000 C 
ATOM     31  C   UNL     1       3.398  14.122  18.321  0.00  0.00    +0.000 C 
ENDBRANCH  29  30
ENDBRANCH  24  29
ENDBRANCH  18  24
ENDBRANCH  17  20
ENDBRANCH   1  17
TORSDOF 8
ENDMDL
MODEL 6
REMARK VINA RESULT:      -6.5      2.659      8.548
REMARK  Name = 
REMARK  11 active torsions:
REMARK  status: ('A' for Active; 'I' for Inactive)
REMARK    1  A    between atoms: C_1  and  C_2
REMARK    2  A    between atoms: C_2  and  O_3
REMARK    3  A    between atoms: O_3  and  P_4
REMARK    4  A    between atoms: P_4  and  O_6
REMARK    5  A    between atoms: P_4  and  C_9
REMARK    6  A    between atoms: O_6  and  C_7
REMARK    7  A    between atoms: C_7  and  C_8
REMARK    8  A    between atoms: C_11  and  C_12
REMARK    9  A    between atoms: C_12  and  N_13
REMARK   10  A    between atoms: C_19  and  C_21
REMARK   11  A    between atoms: N_30  and  C_31
REMARK                            x       y       z     vdW  Elec       q    Type
REMARK                         _______ _______ _______ _____ _____    ______ ____
ROOT
ATOM      1  N   UNL     1       2.245   5.918  20.045  0.00  0.00    +0.000 N 
ATOM      2  C   UNL     1       1.096   5.275  20.436  0.00  0.00    +0.000 A 
ATOM      3  C   UNL     1       0.956   3.962  20.275  0.00  0.00    +0.000 A 
ATOM      4  C   UNL     1       1.973   3.217  19.506  0.00  0.00    +0.000 A 
ATOM      5  O   UNL     1       1.660   2.077  19.166  0.00  0.00    +0.000 OA
ATOM      6  N   UNL     1       3.136   3.898  19.186  0.00  0.00    +0.000 N 
ATOM      7  C   UNL     1       4.100   3.194  18.461  0.00  0.00    +0.000 C 
ATOM      8  O   UNL     1       4.341   1.996  18.622  0.00  0.00    +0.000 OA
ATOM      9  C   UNL     1       3.368   5.201  19.624  0.00  0.00    +0.000 A 
ATOM     10  O   UNL     1       4.478   5.731  19.676  0.00  0.00    +0.000 OA
ENDROOT
BRANCH   7  11
ATOM     11  C   UNL     1       5.037   3.942  17.559  0.00  0.00    +0.000 A 
ATOM     12  C   UNL     1       4.559   4.339  16.301  0.00  0.00    +0.000 A 
ATOM     13  C   UNL     1       5.425   4.899  15.360  0.00  0.00    +0.000 A 
ATOM     14  C   UNL     1       6.772   5.071  15.672  0.00  0.00    +0.000 A 
ATOM     15  C   UNL     1       7.240   4.749  16.945  0.00  0.00    +0.000 A 
ATOM     16  C   UNL     1       6.367   4.220  17.901  0.00  0.00    +0.000 A 
ENDBRANCH   7  11
BRANCH   1  17
ATOM     17  C   UNL     1       2.351   7.377  20.188  0.00  0.00    +0.000 C 
BRANCH  17  20
ATOM     18  C   UNL     1       0.372  10.427  20.232  0.00  0.00    +0.000 C 
ATOM     19  C   UNL     1       0.979   9.348  19.340  0.00  0.00    +0.000 C 
ATOM     20  C   UNL     1       0.972   8.078  20.162  0.00  0.00    +0.000 C 
ATOM     21  O   UNL     1       0.570   8.460  21.485  0.00  0.00    +0.000 OA
ATOM     22  N   UNL     1       0.673   9.917  21.587  0.00  0.00    +0.000 NA
ATOM     23  C   UNL     1      -0.333  10.310  22.567  0.00  0.00    +0.000 C 
BRANCH  18  24
ATOM     24  P   UNL     1       0.964  12.146  20.026  0.00  0.00    +0.000 P 
ATOM     25  O   UNL     1       1.300  12.190  21.528  0.00  0.00    +0.000 OA
BRANCH  24  26
ATOM     26  O   UNL     1       1.525  13.771  19.831  0.00  0.00    +0.000 OA
BRANCH  26  28
ATOM     27  C   UNL     1       2.610  12.614  18.013  0.00  0.00    +0.000 C 
ATOM     28  C   UNL     1       2.351  13.948  18.679  0.00  0.00    +0.000 C 
ENDBRANCH  26  28
ENDBRANCH  24  26
BRANCH  24  29
ATOM     29  O   UNL     1      -0.572  12.722  19.778  0.00  0.00    +0.000 OA
BRANCH  29  30
ATOM     30  C   UNL     1      -1.331  12.297  18.659  0.00  0.00    +0.000 C 
ATOM     31  C   UNL     1      -2.764  12.037  19.090  0.00  0.00    +0.000 C 
ENDBRANCH  29  30
ENDBRANCH  24  29
ENDBRANCH  18  24
ENDBRANCH  17  20
ENDBRANCH   1  17
TORSDOF 8
ENDMDL
MODEL 7
REMARK VINA RESULT:      -6.5      2.931      9.056
REMARK  Name = 
REMARK  11 active torsions:
REMARK  status: ('A' for Active; 'I' for Inactive)
REMARK    1  A    between atoms: C_1  and  C_2
REMARK    2  A    between atoms: C_2  and  O_3
REMARK    3  A    between atoms: O_3  and  P_4
REMARK    4  A    between atoms: P_4  and  O_6
REMARK    5  A    between atoms: P_4  and  C_9
REMARK    6  A    between atoms: O_6  and  C_7
REMARK    7  A    between atoms: C_7  and  C_8
REMARK    8  A    between atoms: C_11  and  C_12
REMARK    9  A    between atoms: C_12  and  N_13
REMARK   10  A    between atoms: C_19  and  C_21
REMARK   11  A    between atoms: N_30  and  C_31
REMARK                            x       y       z     vdW  Elec       q    Type
REMARK                         _______ _______ _______ _____ _____    ______ ____
ROOT
ATOM      1  N   UNL     1       3.147   7.141  17.999  0.00  0.00    +0.000 N 
ATOM      2  C   UNL     1       4.178   7.563  17.195  0.00  0.00    +0.000 A 
ATOM      3  C   UNL     1       4.938   6.690  16.540  0.00  0.00    +0.000 A 
ATOM      4  C   UNL     1       4.785   5.248  16.820  0.00  0.00    +0.000 A 
ATOM      5  O   UNL     1       5.680   4.520  16.394  0.00  0.00    +0.000 OA
ATOM      6  N   UNL     1       3.697   4.873  17.590  0.00  0.00    +0.000 N 
ATOM      7  C   UNL     1       3.549   3.509  17.855  0.00  0.00    +0.000 C 
ATOM      8  O   UNL     1       3.821   2.620  17.045  0.00  0.00    +0.000 OA
ATOM      9  C   UNL     1       2.752   5.801  18.026  0.00  0.00    +0.000 A 
ATOM     10  O   UNL     1       1.616   5.513  18.404  0.00  0.00    +0.000 OA
ENDROOT
BRANCH   7  11
ATOM     11  C   UNL     1       2.854   3.072  19.109  0.00  0.00    +0.000 A 
ATOM     12  C   UNL     1       1.537   2.600  18.999  0.00  0.00    +0.000 A 
ATOM     13  C   UNL     1       0.786   2.326  20.144  0.00  0.00    +0.000 A 
ATOM     14  C   UNL     1       1.348   2.514  21.404  0.00  0.00    +0.000 A 
ATOM     15  C   UNL     1       2.680   2.910  21.523  0.00  0.00    +0.000 A 
ATOM     16  C   UNL     1       3.445   3.152  20.377  0.00  0.00    +0.000 A 
ENDBRANCH   7  11
BRANCH   1  17
ATOM     17  C   UNL     1       2.357   8.126  18.751  0.00  0.00    +0.000 C 
BRANCH  17  20
ATOM     18  C   UNL     1       0.489  11.224  18.381  0.00  0.00    +0.000 C 
ATOM     19  C   UNL     1       1.883  10.616  18.508  0.00  0.00    +0.000 C 
ATOM     20  C   UNL     1       1.805   9.257  17.850  0.00  0.00    +0.000 C 
ATOM     21  O   UNL     1       0.419   9.038  17.550  0.00  0.00    +0.000 OA
ATOM     22  N   UNL     1      -0.368  10.021  18.294  0.00  0.00    +0.000 NA
ATOM     23  C   UNL     1      -1.566  10.247  17.494  0.00  0.00    +0.000 C 
BRANCH  18  24
ATOM     24  P   UNL     1      -0.082  12.348  19.707  0.00  0.00    +0.000 P 
ATOM     25  O   UNL     1       1.386  12.621  20.082  0.00  0.00    +0.000 OA
BRANCH  24  26
ATOM     26  O   UNL     1      -0.622  13.412  20.960  0.00  0.00    +0.000 OA
BRANCH  26  28
ATOM     27  C   UNL     1      -0.734  15.465  19.697  0.00  0.00    +0.000 C 
ATOM     28  C   UNL     1      -1.505  14.433  20.491  0.00  0.00    +0.000 C 
ENDBRANCH  26  28
ENDBRANCH  24  26
BRANCH  24  29
ATOM     29  O   UNL     1      -0.670  11.092  20.619  0.00  0.00    +0.000 OA
BRANCH  29  30
ATOM     30  C   UNL     1      -0.080  10.768  21.866  0.00  0.00    +0.000 C 
ATOM     31  C   UNL     1       0.472   9.354  21.811  0.00  0.00    +0.000 C 
ENDBRANCH  29  30
ENDBRANCH  24  29
ENDBRANCH  18  24
ENDBRANCH  17  20
ENDBRANCH   1  17
TORSDOF 8
ENDMDL
MODEL 8
REMARK VINA RESULT:      -6.3      5.149      8.304
REMARK  Name = 
REMARK  11 active torsions:
REMARK  status: ('A' for Active; 'I' for Inactive)
REMARK    1  A    between atoms: C_1  and  C_2
REMARK    2  A    between atoms: C_2  and  O_3
REMARK    3  A    between atoms: O_3  and  P_4
REMARK    4  A    between atoms: P_4  and  O_6
REMARK    5  A    between atoms: P_4  and  C_9
REMARK    6  A    between atoms: O_6  and  C_7
REMARK    7  A    between atoms: C_7  and  C_8
REMARK    8  A    between atoms: C_11  and  C_12
REMARK    9  A    between atoms: C_12  and  N_13
REMARK   10  A    between atoms: C_19  and  C_21
REMARK   11  A    between atoms: N_30  and  C_31
REMARK                            x       y       z     vdW  Elec       q    Type
REMARK                         _______ _______ _______ _____ _____    ______ ____
ROOT
ATOM      1  N   UNL     1      -3.737  13.570  22.606  0.00  0.00    +0.000 N 
ATOM      2  C   UNL     1      -4.104  13.494  23.927  0.00  0.00    +0.000 A 
ATOM      3  C   UNL     1      -5.219  12.868  24.294  0.00  0.00    +0.000 A 
ATOM      4  C   UNL     1      -6.161  12.404  23.255  0.00  0.00    +0.000 A 
ATOM      5  O   UNL     1      -7.280  12.079  23.651  0.00  0.00    +0.000 OA
ATOM      6  N   UNL     1      -5.718  12.451  21.944  0.00  0.00    +0.000 N 
ATOM      7  C   UNL     1      -6.607  12.011  20.961  0.00  0.00    +0.000 C 
ATOM      8  O   UNL     1      -7.384  11.066  21.112  0.00  0.00    +0.000 OA
ATOM      9  C   UNL     1      -4.423  12.853  21.622  0.00  0.00    +0.000 A 
ATOM     10  O   UNL     1      -3.861  12.600  20.555  0.00  0.00    +0.000 OA
ENDROOT
BRANCH   7  11
ATOM     11  C   UNL     1      -6.511  12.574  19.574  0.00  0.00    +0.000 A 
ATOM     12  C   UNL     1      -6.769  13.943  19.403  0.00  0.00    +0.000 A 
ATOM     13  C   UNL     1      -6.849  14.492  18.122  0.00  0.00    +0.000 A 
ATOM     14  C   UNL     1      -6.665  13.681  17.005  0.00  0.00    +0.000 A 
ATOM     15  C   UNL     1      -6.334  12.336  17.167  0.00  0.00    +0.000 A 
ATOM     16  C   UNL     1      -6.220  11.790  18.450  0.00  0.00    +0.000 A 
ENDBRANCH   7  11
BRANCH   1  17
ATOM     17  C   UNL     1      -2.527  14.312  22.225  0.00  0.00    +0.000 C 
BRANCH  17  20
ATOM     18  C   UNL     1       0.133  11.899  21.660  0.00  0.00    +0.000 C 
ATOM     19  C   UNL     1      -0.253  13.372  21.568  0.00  0.00    +0.000 C 
ATOM     20  C   UNL     1      -1.229  13.616  22.698  0.00  0.00    +0.000 C 
ATOM     21  O   UNL     1      -1.518  12.328  23.261  0.00  0.00    +0.000 OA
ATOM     22  N   UNL     1      -1.049  11.307  22.323  0.00  0.00    +0.000 NA
ATOM     23  C   UNL     1      -0.708  10.152  23.144  0.00  0.00    +0.000 C 
BRANCH  18  24
ATOM     24  P   UNL     1       0.529  11.017  20.106  0.00  0.00    +0.000 P 
ATOM     25  O   UNL     1       1.071  12.333  19.519  0.00  0.00    +0.000 OA
BRANCH  24  26
ATOM     26  O   UNL     1       0.904  10.183  18.637  0.00  0.00    +0.000 OA
BRANCH  26  28
ATOM     27  C   UNL     1       2.407   8.553  17.688  0.00  0.00    +0.000 C 
ATOM     28  C   UNL     1       1.507   8.906  18.851  0.00  0.00    +0.000 C 
ENDBRANCH  26  28
ENDBRANCH  24  26
BRANCH  24  29
ATOM     29  O   UNL     1      -1.074  10.845  19.710  0.00  0.00    +0.000 OA
BRANCH  29  30
ATOM     30  C   UNL     1      -1.564  11.311  18.464  0.00  0.00    +0.000 C 
ATOM     31  C   UNL     1      -2.483  10.264  17.861  0.00  0.00    +0.000 C 
ENDBRANCH  29  30
ENDBRANCH  24  29
ENDBRANCH  18  24
ENDBRANCH  17  20
ENDBRANCH   1  17
TORSDOF 8
ENDMDL
MODEL 9
REMARK VINA RESULT:      -6.3      2.717      8.743
REMARK  Name = 
REMARK  11 active torsions:
REMARK  status: ('A' for Active; 'I' for Inactive)
REMARK    1  A    between atoms: C_1  and  C_2
REMARK    2  A    between atoms: C_2  and  O_3
REMARK    3  A    between atoms: O_3  and  P_4
REMARK    4  A    between atoms: P_4  and  O_6
REMARK    5  A    between atoms: P_4  and  C_9
REMARK    6  A    between atoms: O_6  and  C_7
REMARK    7  A    between atoms: C_7  and  C_8
REMARK    8  A    between atoms: C_11  and  C_12
REMARK    9  A    between atoms: C_12  and  N_13
REMARK   10  A    between atoms: C_19  and  C_21
REMARK   11  A    between atoms: N_30  and  C_31
REMARK                            x       y       z     vdW  Elec       q    Type
REMARK                         _______ _______ _______ _____ _____    ______ ____
ROOT
ATOM      1  N   UNL     1       2.217   6.048  19.984  0.00  0.00    +0.000 N 
ATOM      2  C   UNL     1       1.113   5.393  20.474  0.00  0.00    +0.000 A 
ATOM      3  C   UNL     1       1.042   4.065  20.461  0.00  0.00    +0.000 A 
ATOM      4  C   UNL     1       2.081   3.294  19.750  0.00  0.00    +0.000 A 
ATOM      5  O   UNL     1       1.824   2.109  19.545  0.00  0.00    +0.000 OA
ATOM      6  N   UNL     1       3.198   3.994  19.326  0.00  0.00    +0.000 N 
ATOM      7  C   UNL     1       4.184   3.266  18.656  0.00  0.00    +0.000 C 
ATOM      8  O   UNL     1       4.493   2.107  18.940  0.00  0.00    +0.000 OA
ATOM      9  C   UNL     1       3.368   5.348  19.612  0.00  0.00    +0.000 A 
ATOM     10  O   UNL     1       4.448   5.937  19.576  0.00  0.00    +0.000 OA
ENDROOT
BRANCH   7  11
ATOM     11  C   UNL     1       5.058   3.957  17.653  0.00  0.00    +0.000 A 
ATOM     12  C   UNL     1       6.388   4.223  18.015  0.00  0.00    +0.000 A 
ATOM     13  C   UNL     1       7.204   4.998  17.190  0.00  0.00    +0.000 A 
ATOM     14  C   UNL     1       6.701   5.508  15.996  0.00  0.00    +0.000 A 
ATOM     15  C   UNL     1       5.405   5.187  15.591  0.00  0.00    +0.000 A 
ATOM     16  C   UNL     1       4.597   4.382  16.400  0.00  0.00    +0.000 A 
ENDBRANCH   7  11
BRANCH   1  17
ATOM     17  C   UNL     1       2.246   7.517  19.964  0.00  0.00    +0.000 C 
BRANCH  17  20
ATOM     18  C   UNL     1       0.301  10.378  21.082  0.00  0.00    +0.000 C 
ATOM     19  C   UNL     1       0.745   9.572  19.865  0.00  0.00    +0.000 C 
ATOM     20  C   UNL     1       0.882   8.143  20.342  0.00  0.00    +0.000 C 
ATOM     21  O   UNL     1       0.716   8.180  21.766  0.00  0.00    +0.000 OA
ATOM     22  N   UNL     1       0.834   9.572  22.201  0.00  0.00    +0.000 NA
ATOM     23  C   UNL     1       0.014   9.675  23.402  0.00  0.00    +0.000 C 
BRANCH  18  24
ATOM     24  P   UNL     1       0.846  12.121  21.203  0.00  0.00    +0.000 P 
ATOM     25  O   UNL     1      -0.614  12.541  21.454  0.00  0.00    +0.000 OA
BRANCH  24  26
ATOM     26  O   UNL     1       1.362  13.768  21.319  0.00  0.00    +0.000 OA
BRANCH  26  28
ATOM     27  C   UNL     1       0.496  16.003  21.601  0.00  0.00    +0.000 C 
ATOM     28  C   UNL     1       0.491  14.578  22.111  0.00  0.00    +0.000 C 
ENDBRANCH  26  28
ENDBRANCH  24  26
BRANCH  24  29
ATOM     29  O   UNL     1       1.183  12.205  19.580  0.00  0.00    +0.000 OA
BRANCH  29  30
ATOM     30  C   UNL     1       0.814  13.346  18.824  0.00  0.00    +0.000 C 
ATOM     31  C   UNL     1      -0.528  13.097  18.159  0.00  0.00    +0.000 C 
ENDBRANCH  29  30
ENDBRANCH  24  29
ENDBRANCH  18  24
ENDBRANCH  17  20
ENDBRANCH   1  17
TORSDOF 8
ENDMDL
