MODEL 1
REMARK VINA RESULT:      -8.7      0.000      0.000
REMARK  Name = 
REMARK  12 active torsions:
REMARK  status: ('A' for Active; 'I' for Inactive)
REMARK    1  A    between atoms: C_1  and  C_2
REMARK    2  A    between atoms: C_2  and  O_4
REMARK    3  A    between atoms: O_4  and  C_5
REMARK    4  A    between atoms: C_6  and  C_7
REMARK    5  A    between atoms: C_10  and  N_11
REMARK    6  A    between atoms: C_12  and  C_14
REMARK    7  A    between atoms: C_14  and  C_15
REMARK    8  A    between atoms: C_14  and  C_16
REMARK    9  A    between atoms: C_19  and  C_20
REMARK   10  A    between atoms: C_23  and  C_24
REMARK   11  A    between atoms: N_28  and  C_29
REMARK   12  A    between atoms: C_32  and  C_33
REMARK                            x       y       z     vdW  Elec       q    Type
REMARK                         _______ _______ _______ _____ _____    ______ ____
ROOT
ATOM      1  C   UNL     1      -0.108  11.180  21.160  0.00  0.00    +0.000 A 
ATOM      2  C   UNL     1      -0.179  10.584  19.895  0.00  0.00    +0.000 A 
ATOM      3  C   UNL     1      -1.402  11.062  19.325  0.00  0.00    +0.000 A 
ATOM      4  N   UNL     1      -2.017  11.904  20.161  0.00  0.00    +0.000 NA
ATOM      5  N   UNL     1      -1.231  12.008  21.262  0.00  0.00    +0.000 N 
ENDROOT
BRANCH   3   6
ATOM      6  C   UNL     1      -2.033  10.757  18.028  0.00  0.00    +0.000 A 
ATOM      7  C   UNL     1      -1.573   9.722  17.206  0.00  0.00    +0.000 A 
ATOM      8  C   UNL     1      -2.135   9.497  15.945  0.00  0.00    +0.000 A 
ATOM      9  C   UNL     1      -3.212  10.268  15.502  0.00  0.00    +0.000 A 
ATOM     10  C   UNL     1      -3.842  10.010  14.166  0.00  0.00    +0.000 C 
ATOM     11  C   UNL     1      -3.715  11.271  16.337  0.00  0.00    +0.000 A 
ATOM     12  C   UNL     1      -3.128  11.516  17.583  0.00  0.00    +0.000 A 
ENDBRANCH   3   6
BRANCH   5  13
ATOM     13  C   UNL     1      -1.649  12.906  22.304  0.00  0.00    +0.000 A 
ATOM     14  C   UNL     1      -2.922  12.731  22.885  0.00  0.00    +0.000 A 
ATOM     15  C   UNL     1      -3.384  13.580  23.898  0.00  0.00    +0.000 A 
ATOM     16  C   UNL     1      -2.582  14.626  24.358  0.00  0.00    +0.000 A 
ATOM     17  C   UNL     1      -3.052  15.539  25.451  0.00  0.00    +0.000 C 
ATOM     18  C   UNL     1      -1.323  14.811  23.779  0.00  0.00    +0.000 A 
ATOM     19  C   UNL     1      -0.852  13.964  22.761  0.00  0.00    +0.000 A 
ENDBRANCH   5  13
BRANCH   2  20
ATOM     20  C   UNL     1       0.820   9.658  19.360  0.00  0.00    +0.000 A 
ATOM     21  C   UNL     1       1.478   9.927  18.161  0.00  0.00    +0.000 A 
ATOM     22  C   UNL     1       2.367   9.002  17.603  0.00  0.00    +0.000 A 
ATOM     23  C   UNL     1       2.702   7.823  18.269  0.00  0.00    +0.000 A 
ATOM     24  C   UNL     1       2.092   7.571  19.506  0.00  0.00    +0.000 A 
ATOM     25  C   UNL     1       1.137   8.464  20.028  0.00  0.00    +0.000 A 
BRANCH  23  26
ATOM     26  N   UNL     1       3.632   6.881  17.758  0.00  0.00    +0.000 N 
ATOM     27  C   UNL     1       3.375   5.541  17.511  0.00  0.00    +0.000 C 
ATOM     28  O   UNL     1       2.317   4.959  17.759  0.00  0.00    +0.000 OA
ATOM     29  H   UNL     1       4.563   7.219  17.587  0.00  0.00    +0.000 HD
BRANCH  27  30
ATOM     30  C   UNL     1       4.543   4.761  16.896  0.00  0.00    +0.000 C 
ATOM     31  C   UNL     1       5.237   5.619  15.830  0.00  0.00    +0.000 C 
ATOM     32  C   UNL     1       5.565   4.354  17.955  0.00  0.00    +0.000 C 
ENDBRANCH  27  30
ENDBRANCH  23  26
ENDBRANCH   2  20
BRANCH   1  33
ATOM     33  O   UNL     1       0.734  11.006  22.178  0.00  0.00    +0.000 OA
BRANCH  33  35
ATOM     34  C   UNL     1      -0.728   9.450  23.139  0.00  0.00    +0.000 C 
ATOM     35  C   UNL     1       0.701   9.825  22.851  0.00  0.00    +0.000 C 
ATOM     36  O   UNL     1       1.662   9.150  23.196  0.00  0.00    +0.000 OA
ENDBRANCH  33  35
ENDBRANCH   1  33
TORSDOF 7
ENDMDL
MODEL 2
REMARK VINA RESULT:      -8.5      0.442      1.349
REMARK  Name = 
REMARK  12 active torsions:
REMARK  status: ('A' for Active; 'I' for Inactive)
REMARK    1  A    between atoms: C_1  and  C_2
REMARK    2  A    between atoms: C_2  and  O_4
REMARK    3  A    between atoms: O_4  and  C_5
REMARK    4  A    between atoms: C_6  and  C_7
REMARK    5  A    between atoms: C_10  and  N_11
REMARK    6  A    between atoms: C_12  and  C_14
REMARK    7  A    between atoms: C_14  and  C_15
REMARK    8  A    between atoms: C_14  and  C_16
REMARK    9  A    between atoms: C_19  and  C_20
REMARK   10  A    between atoms: C_23  and  C_24
REMARK   11  A    between atoms: N_28  and  C_29
REMARK   12  A    between atoms: C_32  and  C_33
REMARK                            x       y       z     vdW  Elec       q    Type
REMARK                         _______ _______ _______ _____ _____    ______ ____
ROOT
ATOM      1  C   UNL     1      -0.135  10.958  21.152  0.00  0.00    +0.000 A 
ATOM      2  C   UNL     1      -0.178  10.425  19.859  0.00  0.00    +0.000 A 
ATOM      3  C   UNL     1      -1.390  10.928  19.287  0.00  0.00    +0.000 A 
ATOM      4  N   UNL     1      -2.025  11.728  20.150  0.00  0.00    +0.000 NA
ATOM      5  N   UNL     1      -1.262  11.779  21.271  0.00  0.00    +0.000 N 
ENDROOT
BRANCH   3   6
ATOM      6  C   UNL     1      -1.993  10.687  17.963  0.00  0.00    +0.000 A 
ATOM      7  C   UNL     1      -1.587   9.625  17.147  0.00  0.00    +0.000 A 
ATOM      8  C   UNL     1      -2.116   9.458  15.864  0.00  0.00    +0.000 A 
ATOM      9  C   UNL     1      -3.110  10.317  15.389  0.00  0.00    +0.000 A 
ATOM     10  C   UNL     1      -3.706  10.123  14.028  0.00  0.00    +0.000 C 
ATOM     11  C   UNL     1      -3.562  11.350  16.216  0.00  0.00    +0.000 A 
ATOM     12  C   UNL     1      -3.005  11.536  17.486  0.00  0.00    +0.000 A 
ENDBRANCH   3   6
BRANCH   5  13
ATOM     13  C   UNL     1      -1.704  12.623  22.346  0.00  0.00    +0.000 A 
ATOM     14  C   UNL     1      -0.891  13.706  22.741  0.00  0.00    +0.000 A 
ATOM     15  C   UNL     1      -1.267  14.557  23.787  0.00  0.00    +0.000 A 
ATOM     16  C   UNL     1      -2.469  14.348  24.465  0.00  0.00    +0.000 A 
ATOM     17  C   UNL     1      -2.898  15.256  25.580  0.00  0.00    +0.000 C 
ATOM     18  C   UNL     1      -3.275  13.270  24.086  0.00  0.00    +0.000 A 
ATOM     19  C   UNL     1      -2.904  12.411  23.037  0.00  0.00    +0.000 A 
ENDBRANCH   5  13
BRANCH   2  20
ATOM     20  C   UNL     1       0.834   9.528  19.300  0.00  0.00    +0.000 A 
ATOM     21  C   UNL     1       1.168   8.336  19.941  0.00  0.00    +0.000 A 
ATOM     22  C   UNL     1       2.196   7.520  19.457  0.00  0.00    +0.000 A 
ATOM     23  C   UNL     1       2.860   7.817  18.266  0.00  0.00    +0.000 A 
ATOM     24  C   UNL     1       2.489   8.982  17.580  0.00  0.00    +0.000 A 
ATOM     25  C   UNL     1       1.510   9.843  18.110  0.00  0.00    +0.000 A 
BRANCH  23  26
ATOM     26  N   UNL     1       3.877   6.992  17.718  0.00  0.00    +0.000 N 
ATOM     27  C   UNL     1       3.760   5.638  17.442  0.00  0.00    +0.000 C 
ATOM     28  O   UNL     1       2.775   4.941  17.692  0.00  0.00    +0.000 OA
ATOM     29  H   UNL     1       4.763   7.432  17.541  0.00  0.00    +0.000 HD
BRANCH  27  30
ATOM     30  C   UNL     1       4.994   5.002  16.792  0.00  0.00    +0.000 C 
ATOM     31  C   UNL     1       4.716   3.524  16.484  0.00  0.00    +0.000 C 
ATOM     32  C   UNL     1       5.380   5.719  15.500  0.00  0.00    +0.000 C 
ENDBRANCH  27  30
ENDBRANCH  23  26
ENDBRANCH   2  20
BRANCH   1  33
ATOM     33  O   UNL     1       0.686  10.735  22.178  0.00  0.00    +0.000 OA
BRANCH  33  35
ATOM     34  C   UNL     1      -0.742   8.907  22.495  0.00  0.00    +0.000 C 
ATOM     35  C   UNL     1       0.364   9.755  23.063  0.00  0.00    +0.000 C 
ATOM     36  O   UNL     1       0.866   9.566  24.164  0.00  0.00    +0.000 OA
ENDBRANCH  33  35
ENDBRANCH   1  33
TORSDOF 7
ENDMDL
MODEL 3
REMARK VINA RESULT:      -8.5      0.197      1.419
REMARK  Name = 
REMARK  12 active torsions:
REMARK  status: ('A' for Active; 'I' for Inactive)
REMARK    1  A    between atoms: C_1  and  C_2
REMARK    2  A    between atoms: C_2  and  O_4
REMARK    3  A    between atoms: O_4  and  C_5
REMARK    4  A    between atoms: C_6  and  C_7
REMARK    5  A    between atoms: C_10  and  N_11
REMARK    6  A    between atoms: C_12  and  C_14
REMARK    7  A    between atoms: C_14  and  C_15
REMARK    8  A    between atoms: C_14  and  C_16
REMARK    9  A    between atoms: C_19  and  C_20
REMARK   10  A    between atoms: C_23  and  C_24
REMARK   11  A    between atoms: N_28  and  C_29
REMARK   12  A    between atoms: C_32  and  C_33
REMARK                            x       y       z     vdW  Elec       q    Type
REMARK                         _______ _______ _______ _____ _____    ______ ____
ROOT
ATOM      1  C   UNL     1      -0.093  11.207  21.129  0.00  0.00    +0.000 A 
ATOM      2  C   UNL     1      -0.184  10.621  19.862  0.00  0.00    +0.000 A 
ATOM      3  C   UNL     1      -1.399  11.131  19.300  0.00  0.00    +0.000 A 
ATOM      4  N   UNL     1      -1.990  11.982  20.145  0.00  0.00    +0.000 NA
ATOM      5  N   UNL     1      -1.196  12.061  21.242  0.00  0.00    +0.000 N 
ENDROOT
BRANCH   3   6
ATOM      6  C   UNL     1      -2.042  10.849  18.004  0.00  0.00    +0.000 A 
ATOM      7  C   UNL     1      -3.120  11.608  17.533  0.00  0.00    +0.000 A 
ATOM      8  C   UNL     1      -3.767  11.278  16.338  0.00  0.00    +0.000 A 
ATOM      9  C   UNL     1      -3.311  10.215  15.555  0.00  0.00    +0.000 A 
ATOM     10  C   UNL     1      -3.977   9.877  14.256  0.00  0.00    +0.000 C 
ATOM     11  C   UNL     1      -2.201   9.483  15.989  0.00  0.00    +0.000 A 
ATOM     12  C   UNL     1      -1.578   9.794  17.203  0.00  0.00    +0.000 A 
ENDBRANCH   3   6
BRANCH   5  13
ATOM     13  C   UNL     1      -1.588  12.961  22.291  0.00  0.00    +0.000 A 
ATOM     14  C   UNL     1      -0.724  14.021  22.637  0.00  0.00    +0.000 A 
ATOM     15  C   UNL     1      -1.051  14.925  23.656  0.00  0.00    +0.000 A 
ATOM     16  C   UNL     1      -2.252  14.791  24.355  0.00  0.00    +0.000 A 
ATOM     17  C   UNL     1      -2.627  15.756  25.441  0.00  0.00    +0.000 C 
ATOM     18  C   UNL     1      -3.108  13.736  24.024  0.00  0.00    +0.000 A 
ATOM     19  C   UNL     1      -2.787  12.825  23.003  0.00  0.00    +0.000 A 
ENDBRANCH   5  13
BRANCH   2  20
ATOM     20  C   UNL     1       0.789   9.674  19.316  0.00  0.00    +0.000 A 
ATOM     21  C   UNL     1       1.022   8.447  19.935  0.00  0.00    +0.000 A 
ATOM     22  C   UNL     1       2.014   7.579  19.467  0.00  0.00    +0.000 A 
ATOM     23  C   UNL     1       2.741   7.863  18.311  0.00  0.00    +0.000 A 
ATOM     24  C   UNL     1       2.473   9.067  17.645  0.00  0.00    +0.000 A 
ATOM     25  C   UNL     1       1.531   9.976  18.162  0.00  0.00    +0.000 A 
BRANCH  23  26
ATOM     26  N   UNL     1       3.724   6.989  17.779  0.00  0.00    +0.000 N 
ATOM     27  C   UNL     1       3.541   5.646  17.485  0.00  0.00    +0.000 C 
ATOM     28  O   UNL     1       2.513   5.002  17.704  0.00  0.00    +0.000 OA
ATOM     29  H   UNL     1       4.638   7.380  17.628  0.00  0.00    +0.000 HD
BRANCH  27  30
ATOM     30  C   UNL     1       4.753   4.949  16.858  0.00  0.00    +0.000 C 
ATOM     31  C   UNL     1       5.276   5.779  15.677  0.00  0.00    +0.000 C 
ATOM     32  C   UNL     1       5.878   4.757  17.873  0.00  0.00    +0.000 C 
ENDBRANCH  27  30
ENDBRANCH  23  26
ENDBRANCH   2  20
BRANCH   1  33
ATOM     33  O   UNL     1       0.749  11.006  22.143  0.00  0.00    +0.000 OA
BRANCH  33  35
ATOM     34  C   UNL     1      -0.732   9.493  23.143  0.00  0.00    +0.000 C 
ATOM     35  C   UNL     1       0.698   9.818  22.802  0.00  0.00    +0.000 C 
ATOM     36  O   UNL     1       1.645   9.103  23.100  0.00  0.00    +0.000 OA
ENDBRANCH  33  35
ENDBRANCH   1  33
TORSDOF 7
ENDMDL
MODEL 4
REMARK VINA RESULT:      -8.5      0.490      1.012
REMARK  Name = 
REMARK  12 active torsions:
REMARK  status: ('A' for Active; 'I' for Inactive)
REMARK    1  A    between atoms: C_1  and  C_2
REMARK    2  A    between atoms: C_2  and  O_4
REMARK    3  A    between atoms: O_4  and  C_5
REMARK    4  A    between atoms: C_6  and  C_7
REMARK    5  A    between atoms: C_10  and  N_11
REMARK    6  A    between atoms: C_12  and  C_14
REMARK    7  A    between atoms: C_14  and  C_15
REMARK    8  A    between atoms: C_14  and  C_16
REMARK    9  A    between atoms: C_19  and  C_20
REMARK   10  A    between atoms: C_23  and  C_24
REMARK   11  A    between atoms: N_28  and  C_29
REMARK   12  A    between atoms: C_32  and  C_33
REMARK                            x       y       z     vdW  Elec       q    Type
REMARK                         _______ _______ _______ _____ _____    ______ ____
ROOT
ATOM      1  C   UNL     1      -0.248  11.145  21.090  0.00  0.00    +0.000 A 
ATOM      2  C   UNL     1      -0.309  10.551  19.824  0.00  0.00    +0.000 A 
ATOM      3  C   UNL     1      -1.513  11.052  19.233  0.00  0.00    +0.000 A 
ATOM      4  N   UNL     1      -2.126  11.905  20.060  0.00  0.00    +0.000 NA
ATOM      5  N   UNL     1      -1.357  11.994  21.174  0.00  0.00    +0.000 N 
ENDROOT
BRANCH   3   6
ATOM      6  C   UNL     1      -2.128  10.760  17.926  0.00  0.00    +0.000 A 
ATOM      7  C   UNL     1      -1.661   9.729  17.102  0.00  0.00    +0.000 A 
ATOM      8  C   UNL     1      -2.207   9.517  15.832  0.00  0.00    +0.000 A 
ATOM      9  C   UNL     1      -3.276  10.296  15.380  0.00  0.00    +0.000 A 
ATOM     10  C   UNL     1      -3.888  10.051  14.035  0.00  0.00    +0.000 C 
ATOM     11  C   UNL     1      -3.785  11.294  16.217  0.00  0.00    +0.000 A 
ATOM     12  C   UNL     1      -3.214  11.526  17.473  0.00  0.00    +0.000 A 
ENDBRANCH   3   6
BRANCH   5  13
ATOM     13  C   UNL     1      -1.775  12.898  22.209  0.00  0.00    +0.000 A 
ATOM     14  C   UNL     1      -2.921  12.584  22.968  0.00  0.00    +0.000 A 
ATOM     15  C   UNL     1      -3.378  13.432  23.984  0.00  0.00    +0.000 A 
ATOM     16  C   UNL     1      -2.698  14.617  24.269  0.00  0.00    +0.000 A 
ATOM     17  C   UNL     1      -3.163  15.534  25.362  0.00  0.00    +0.000 C 
ATOM     18  C   UNL     1      -1.567  14.940  23.513  0.00  0.00    +0.000 A 
ATOM     19  C   UNL     1      -1.102  14.095  22.491  0.00  0.00    +0.000 A 
ENDBRANCH   5  13
BRANCH   2  20
ATOM     20  C   UNL     1       0.681   9.606  19.305  0.00  0.00    +0.000 A 
ATOM     21  C   UNL     1       0.985   8.434  19.995  0.00  0.00    +0.000 A 
ATOM     22  C   UNL     1       1.993   7.573  19.547  0.00  0.00    +0.000 A 
ATOM     23  C   UNL     1       2.665   7.804  18.346  0.00  0.00    +0.000 A 
ATOM     24  C   UNL     1       2.324   8.948  17.612  0.00  0.00    +0.000 A 
ATOM     25  C   UNL     1       1.366   9.855  18.104  0.00  0.00    +0.000 A 
BRANCH  23  26
ATOM     26  N   UNL     1       3.661   6.933  17.836  0.00  0.00    +0.000 N 
ATOM     27  C   UNL     1       3.482   5.595  17.517  0.00  0.00    +0.000 C 
ATOM     28  O   UNL     1       2.444   4.954  17.690  0.00  0.00    +0.000 OA
ATOM     29  H   UNL     1       4.581   7.322  17.722  0.00  0.00    +0.000 HD
BRANCH  27  30
ATOM     30  C   UNL     1       4.711   4.901  16.921  0.00  0.00    +0.000 C 
ATOM     31  C   UNL     1       5.305   5.767  15.801  0.00  0.00    +0.000 C 
ATOM     32  C   UNL     1       5.782   4.648  17.980  0.00  0.00    +0.000 C 
ENDBRANCH  27  30
ENDBRANCH  23  26
ENDBRANCH   2  20
BRANCH   1  33
ATOM     33  O   UNL     1       0.574  10.954  22.122  0.00  0.00    +0.000 OA
BRANCH  33  35
ATOM     34  C   UNL     1       1.593   9.190  23.276  0.00  0.00    +0.000 C 
ATOM     35  C   UNL     1       0.315   9.926  22.974  0.00  0.00    +0.000 C 
ATOM     36  O   UNL     1      -0.774   9.611  23.435  0.00  0.00    +0.000 OA
ENDBRANCH  33  35
ENDBRANCH   1  33
TORSDOF 7
ENDMDL
MODEL 5
REMARK VINA RESULT:      -8.4      0.576      1.119
REMARK  Name = 
REMARK  12 active torsions:
REMARK  status: ('A' for Active; 'I' for Inactive)
REMARK    1  A    between atoms: C_1  and  C_2
REMARK    2  A    between atoms: C_2  and  O_4
REMARK    3  A    between atoms: O_4  and  C_5
REMARK    4  A    between atoms: C_6  and  C_7
REMARK    5  A    between atoms: C_10  and  N_11
REMARK    6  A    between atoms: C_12  and  C_14
REMARK    7  A    between atoms: C_14  and  C_15
REMARK    8  A    between atoms: C_14  and  C_16
REMARK    9  A    between atoms: C_19  and  C_20
REMARK   10  A    between atoms: C_23  and  C_24
REMARK   11  A    between atoms: N_28  and  C_29
REMARK   12  A    between atoms: C_32  and  C_33
REMARK                            x       y       z     vdW  Elec       q    Type
REMARK                         _______ _______ _______ _____ _____    ______ ____
ROOT
ATOM      1  C   UNL     1      -0.236  11.334  21.068  0.00  0.00    +0.000 A 
ATOM      2  C   UNL     1      -0.301  10.755  19.796  0.00  0.00    +0.000 A 
ATOM      3  C   UNL     1      -1.562  11.171  19.259  0.00  0.00    +0.000 A 
ATOM      4  N   UNL     1      -2.205  11.965  20.122  0.00  0.00    +0.000 NA
ATOM      5  N   UNL     1      -1.402  12.096  21.207  0.00  0.00    +0.000 N 
ENDROOT
BRANCH   3   6
ATOM      6  C   UNL     1      -2.203  10.851  17.971  0.00  0.00    +0.000 A 
ATOM      7  C   UNL     1      -1.700   9.861  17.119  0.00  0.00    +0.000 A 
ATOM      8  C   UNL     1      -2.276   9.624  15.867  0.00  0.00    +0.000 A 
ATOM      9  C   UNL     1      -3.408  10.335  15.462  0.00  0.00    +0.000 A 
ATOM     10  C   UNL     1      -4.051  10.063  14.136  0.00  0.00    +0.000 C 
ATOM     11  C   UNL     1      -3.952  11.290  16.327  0.00  0.00    +0.000 A 
ATOM     12  C   UNL     1      -3.352  11.548  17.565  0.00  0.00    +0.000 A 
ENDBRANCH   3   6
BRANCH   5  13
ATOM     13  C   UNL     1      -1.846  12.953  22.272  0.00  0.00    +0.000 A 
ATOM     14  C   UNL     1      -1.183  14.179  22.482  0.00  0.00    +0.000 A 
ATOM     15  C   UNL     1      -1.568  15.050  23.509  0.00  0.00    +0.000 A 
ATOM     16  C   UNL     1      -2.630  14.717  24.352  0.00  0.00    +0.000 A 
ATOM     17  C   UNL     1      -3.068  15.641  25.449  0.00  0.00    +0.000 C 
ATOM     18  C   UNL     1      -3.285  13.497  24.155  0.00  0.00    +0.000 A 
ATOM     19  C   UNL     1      -2.904  12.617  23.127  0.00  0.00    +0.000 A 
ENDBRANCH   5  13
BRANCH   2  20
ATOM     20  C   UNL     1       0.735   9.894  19.225  0.00  0.00    +0.000 A 
ATOM     21  C   UNL     1       1.536  10.336  18.173  0.00  0.00    +0.000 A 
ATOM     22  C   UNL     1       2.467   9.486  17.568  0.00  0.00    +0.000 A 
ATOM     23  C   UNL     1       2.697   8.198  18.052  0.00  0.00    +0.000 A 
ATOM     24  C   UNL     1       1.941   7.764  19.150  0.00  0.00    +0.000 A 
ATOM     25  C   UNL     1       0.948   8.592  19.707  0.00  0.00    +0.000 A 
BRANCH  23  26
ATOM     26  N   UNL     1       3.663   7.321  17.495  0.00  0.00    +0.000 N 
ATOM     27  C   UNL     1       4.132   6.154  18.080  0.00  0.00    +0.000 C 
ATOM     28  O   UNL     1       3.823   5.744  19.200  0.00  0.00    +0.000 OA
ATOM     29  H   UNL     1       4.054   7.590  16.609  0.00  0.00    +0.000 HD
BRANCH  27  30
ATOM     30  C   UNL     1       5.129   5.359  17.230  0.00  0.00    +0.000 C 
ATOM     31  C   UNL     1       4.613   3.928  17.025  0.00  0.00    +0.000 C 
ATOM     32  C   UNL     1       5.351   6.012  15.867  0.00  0.00    +0.000 C 
ENDBRANCH  27  30
ENDBRANCH  23  26
ENDBRANCH   2  20
BRANCH   1  33
ATOM     33  O   UNL     1       0.636  11.192  22.066  0.00  0.00    +0.000 OA
BRANCH  33  35
ATOM     34  C   UNL     1      -0.641   9.549  23.139  0.00  0.00    +0.000 C 
ATOM     35  C   UNL     1       0.725   9.983  22.681  0.00  0.00    +0.000 C 
ATOM     36  O   UNL     1       1.741   9.326  22.863  0.00  0.00    +0.000 OA
ENDBRANCH  33  35
ENDBRANCH   1  33
TORSDOF 7
ENDMDL
MODEL 6
REMARK VINA RESULT:      -8.4      1.106      1.520
REMARK  Name = 
REMARK  12 active torsions:
REMARK  status: ('A' for Active; 'I' for Inactive)
REMARK    1  A    between atoms: C_1  and  C_2
REMARK    2  A    between atoms: C_2  and  O_4
REMARK    3  A    between atoms: O_4  and  C_5
REMARK    4  A    between atoms: C_6  and  C_7
REMARK    5  A    between atoms: C_10  and  N_11
REMARK    6  A    between atoms: C_12  and  C_14
REMARK    7  A    between atoms: C_14  and  C_15
REMARK    8  A    between atoms: C_14  and  C_16
REMARK    9  A    between atoms: C_19  and  C_20
REMARK   10  A    between atoms: C_23  and  C_24
REMARK   11  A    between atoms: N_28  and  C_29
REMARK   12  A    between atoms: C_32  and  C_33
REMARK                            x       y       z     vdW  Elec       q    Type
REMARK                         _______ _______ _______ _____ _____    ______ ____
ROOT
ATOM      1  C   UNL     1      -1.024  11.573  20.907  0.00  0.00    +0.000 A 
ATOM      2  C   UNL     1      -0.957  10.898  19.684  0.00  0.00    +0.000 A 
ATOM      3  C   UNL     1      -2.118  11.319  18.960  0.00  0.00    +0.000 A 
ATOM      4  N   UNL     1      -2.825  12.203  19.672  0.00  0.00    +0.000 NA
ATOM      5  N   UNL     1      -2.159  12.389  20.840  0.00  0.00    +0.000 N 
ENDROOT
BRANCH   3   6
ATOM      6  C   UNL     1      -2.608  10.924  17.627  0.00  0.00    +0.000 A 
ATOM      7  C   UNL     1      -1.974   9.932  16.870  0.00  0.00    +0.000 A 
ATOM      8  C   UNL     1      -2.407   9.624  15.576  0.00  0.00    +0.000 A 
ATOM      9  C   UNL     1      -3.523  10.263  15.031  0.00  0.00    +0.000 A 
ATOM     10  C   UNL     1      -4.013   9.914  13.659  0.00  0.00    +0.000 C 
ATOM     11  C   UNL     1      -4.196  11.219  15.799  0.00  0.00    +0.000 A 
ATOM     12  C   UNL     1      -3.740  11.549  17.080  0.00  0.00    +0.000 A 
ENDBRANCH   3   6
BRANCH   5  13
ATOM     13  C   UNL     1      -2.691  13.343  21.773  0.00  0.00    +0.000 A 
ATOM     14  C   UNL     1      -3.972  13.121  22.319  0.00  0.00    +0.000 A 
ATOM     15  C   UNL     1      -4.544  14.022  23.227  0.00  0.00    +0.000 A 
ATOM     16  C   UNL     1      -3.846  15.167  23.613  0.00  0.00    +0.000 A 
ATOM     17  C   UNL     1      -4.434  16.138  24.595  0.00  0.00    +0.000 C 
ATOM     18  C   UNL     1      -2.580  15.399  23.067  0.00  0.00    +0.000 A 
ATOM     19  C   UNL     1      -1.999  14.500  22.155  0.00  0.00    +0.000 A 
ENDBRANCH   5  13
BRANCH   2  20
ATOM     20  C   UNL     1       0.100   9.956  19.315  0.00  0.00    +0.000 A 
ATOM     21  C   UNL     1       0.437   8.893  20.151  0.00  0.00    +0.000 A 
ATOM     22  C   UNL     1       1.505   8.043  19.845  0.00  0.00    +0.000 A 
ATOM     23  C   UNL     1       2.212   8.168  18.648  0.00  0.00    +0.000 A 
ATOM     24  C   UNL     1       1.842   9.196  17.771  0.00  0.00    +0.000 A 
ATOM     25  C   UNL     1       0.819  10.100  18.117  0.00  0.00    +0.000 A 
BRANCH  23  26
ATOM     26  N   UNL     1       3.272   7.299  18.280  0.00  0.00    +0.000 N 
ATOM     27  C   UNL     1       3.139   5.967  17.919  0.00  0.00    +0.000 C 
ATOM     28  O   UNL     1       2.086   5.327  17.927  0.00  0.00    +0.000 OA
ATOM     29  H   UNL     1       4.199   7.686  18.309  0.00  0.00    +0.000 HD
BRANCH  27  30
ATOM     30  C   UNL     1       4.443   5.276  17.503  0.00  0.00    +0.000 C 
ATOM     31  C   UNL     1       4.134   3.892  16.917  0.00  0.00    +0.000 C 
ATOM     32  C   UNL     1       5.210   6.099  16.470  0.00  0.00    +0.000 C 
ENDBRANCH  27  30
ENDBRANCH  23  26
ENDBRANCH   2  20
BRANCH   1  33
ATOM     33  O   UNL     1      -0.291  11.477  22.017  0.00  0.00    +0.000 OA
BRANCH  33  35
ATOM     34  C   UNL     1       0.305   9.590  23.269  0.00  0.00    +0.000 C 
ATOM     35  C   UNL     1      -0.725  10.656  23.010  0.00  0.00    +0.000 C 
ATOM     36  O   UNL     1      -1.787  10.734  23.615  0.00  0.00    +0.000 OA
ENDBRANCH  33  35
ENDBRANCH   1  33
TORSDOF 7
ENDMDL
MODEL 7
REMARK VINA RESULT:      -8.3      0.392      1.336
REMARK  Name = 
REMARK  12 active torsions:
REMARK  status: ('A' for Active; 'I' for Inactive)
REMARK    1  A    between atoms: C_1  and  C_2
REMARK    2  A    between atoms: C_2  and  O_4
REMARK    3  A    between atoms: O_4  and  C_5
REMARK    4  A    between atoms: C_6  and  C_7
REMARK    5  A    between atoms: C_10  and  N_11
REMARK    6  A    between atoms: C_12  and  C_14
REMARK    7  A    between atoms: C_14  and  C_15
REMARK    8  A    between atoms: C_14  and  C_16
REMARK    9  A    between atoms: C_19  and  C_20
REMARK   10  A    between atoms: C_23  and  C_24
REMARK   11  A    between atoms: N_28  and  C_29
REMARK   12  A    between atoms: C_32  and  C_33
REMARK                            x       y       z     vdW  Elec       q    Type
REMARK                         _______ _______ _______ _____ _____    ______ ____
ROOT
ATOM      1  C   UNL     1      -0.054  11.053  21.145  0.00  0.00    +0.000 A 
ATOM      2  C   UNL     1      -0.113  10.517  19.854  0.00  0.00    +0.000 A 
ATOM      3  C   UNL     1      -1.321  11.038  19.287  0.00  0.00    +0.000 A 
ATOM      4  N   UNL     1      -1.938  11.850  20.152  0.00  0.00    +0.000 NA
ATOM      5  N   UNL     1      -1.168  11.892  21.269  0.00  0.00    +0.000 N 
ENDROOT
BRANCH   3   6
ATOM      6  C   UNL     1      -1.935  10.802  17.968  0.00  0.00    +0.000 A 
ATOM      7  C   UNL     1      -2.937  11.635  17.459  0.00  0.00    +0.000 A 
ATOM      8  C   UNL     1      -3.561  11.351  16.240  0.00  0.00    +0.000 A 
ATOM      9  C   UNL     1      -3.154  10.257  15.473  0.00  0.00    +0.000 A 
ATOM     10  C   UNL     1      -3.794   9.967  14.149  0.00  0.00    +0.000 C 
ATOM     11  C   UNL     1      -2.116   9.448  15.947  0.00  0.00    +0.000 A 
ATOM     12  C   UNL     1      -1.518   9.715  17.183  0.00  0.00    +0.000 A 
ENDBRANCH   3   6
BRANCH   5  13
ATOM     13  C   UNL     1      -1.590  12.746  22.344  0.00  0.00    +0.000 A 
ATOM     14  C   UNL     1      -2.816  12.477  22.987  0.00  0.00    +0.000 A 
ATOM     15  C   UNL     1      -3.280  13.281  24.037  0.00  0.00    +0.000 A 
ATOM     16  C   UNL     1      -2.528  14.374  24.470  0.00  0.00    +0.000 A 
ATOM     17  C   UNL     1      -3.001  15.240  25.600  0.00  0.00    +0.000 C 
ATOM     18  C   UNL     1      -1.317  14.652  23.829  0.00  0.00    +0.000 A 
ATOM     19  C   UNL     1      -0.844  13.851  22.775  0.00  0.00    +0.000 A 
ENDBRANCH   5  13
BRANCH   2  20
ATOM     20  C   UNL     1       0.881   9.602  19.292  0.00  0.00    +0.000 A 
ATOM     21  C   UNL     1       1.171   8.389  19.913  0.00  0.00    +0.000 A 
ATOM     22  C   UNL     1       2.183   7.553  19.428  0.00  0.00    +0.000 A 
ATOM     23  C   UNL     1       2.874   7.855  18.254  0.00  0.00    +0.000 A 
ATOM     24  C   UNL     1       2.548   9.044  17.587  0.00  0.00    +0.000 A 
ATOM     25  C   UNL     1       1.586   9.923  18.120  0.00  0.00    +0.000 A 
BRANCH  23  26
ATOM     26  N   UNL     1       3.875   7.013  17.705  0.00  0.00    +0.000 N 
ATOM     27  C   UNL     1       3.736   5.660  17.433  0.00  0.00    +0.000 C 
ATOM     28  O   UNL     1       2.741   4.980  17.687  0.00  0.00    +0.000 OA
ATOM     29  H   UNL     1       4.768   7.438  17.524  0.00  0.00    +0.000 HD
BRANCH  27  30
ATOM     30  C   UNL     1       4.957   5.003  16.780  0.00  0.00    +0.000 C 
ATOM     31  C   UNL     1       4.689   3.507  16.565  0.00  0.00    +0.000 C 
ATOM     32  C   UNL     1       5.293   5.650  15.438  0.00  0.00    +0.000 C 
ENDBRANCH  27  30
ENDBRANCH  23  26
ENDBRANCH   2  20
BRANCH   1  33
ATOM     33  O   UNL     1       0.769  10.821  22.168  0.00  0.00    +0.000 OA
BRANCH  33  35
ATOM     34  C   UNL     1      -0.821   9.156  22.599  0.00  0.00    +0.000 C 
ATOM     35  C   UNL     1       0.465   9.811  23.027  0.00  0.00    +0.000 C 
ATOM     36  O   UNL     1       1.106   9.467  24.011  0.00  0.00    +0.000 OA
ENDBRANCH  33  35
ENDBRANCH   1  33
TORSDOF 7
ENDMDL
MODEL 8
REMARK VINA RESULT:      -8.2      1.041      1.606
REMARK  Name = 
REMARK  12 active torsions:
REMARK  status: ('A' for Active; 'I' for Inactive)
REMARK    1  A    between atoms: C_1  and  C_2
REMARK    2  A    between atoms: C_2  and  O_4
REMARK    3  A    between atoms: O_4  and  C_5
REMARK    4  A    between atoms: C_6  and  C_7
REMARK    5  A    between atoms: C_10  and  N_11
REMARK    6  A    between atoms: C_12  and  C_14
REMARK    7  A    between atoms: C_14  and  C_15
REMARK    8  A    between atoms: C_14  and  C_16
REMARK    9  A    between atoms: C_19  and  C_20
REMARK   10  A    between atoms: C_23  and  C_24
REMARK   11  A    between atoms: N_28  and  C_29
REMARK   12  A    between atoms: C_32  and  C_33
REMARK                            x       y       z     vdW  Elec       q    Type
REMARK                         _______ _______ _______ _____ _____    ______ ____
ROOT
ATOM      1  C   UNL     1      -0.990  11.547  20.925  0.00  0.00    +0.000 A 
ATOM      2  C   UNL     1      -0.925  10.889  19.692  0.00  0.00    +0.000 A 
ATOM      3  C   UNL     1      -2.099  11.302  18.984  0.00  0.00    +0.000 A 
ATOM      4  N   UNL     1      -2.811  12.167  19.714  0.00  0.00    +0.000 NA
ATOM      5  N   UNL     1      -2.138  12.347  20.877  0.00  0.00    +0.000 N 
ENDROOT
BRANCH   3   6
ATOM      6  C   UNL     1      -2.594  10.917  17.650  0.00  0.00    +0.000 A 
ATOM      7  C   UNL     1      -1.983   9.908  16.896  0.00  0.00    +0.000 A 
ATOM      8  C   UNL     1      -2.419   9.609  15.602  0.00  0.00    +0.000 A 
ATOM      9  C   UNL     1      -3.518  10.274  15.053  0.00  0.00    +0.000 A 
ATOM     10  C   UNL     1      -4.013   9.935  13.680  0.00  0.00    +0.000 C 
ATOM     11  C   UNL     1      -4.170  11.247  15.818  0.00  0.00    +0.000 A 
ATOM     12  C   UNL     1      -3.709  11.568  17.099  0.00  0.00    +0.000 A 
ENDBRANCH   3   6
BRANCH   5  13
ATOM     13  C   UNL     1      -2.675  13.282  21.827  0.00  0.00    +0.000 A 
ATOM     14  C   UNL     1      -1.922  14.427  22.156  0.00  0.00    +0.000 A 
ATOM     15  C   UNL     1      -2.393  15.369  23.081  0.00  0.00    +0.000 A 
ATOM     16  C   UNL     1      -3.632  15.188  23.698  0.00  0.00    +0.000 A 
ATOM     17  C   UNL     1      -4.161  16.190  24.681  0.00  0.00    +0.000 C 
ATOM     18  C   UNL     1      -4.379  14.048  23.383  0.00  0.00    +0.000 A 
ATOM     19  C   UNL     1      -3.913  13.099  22.457  0.00  0.00    +0.000 A 
ENDBRANCH   5  13
BRANCH   2  20
ATOM     20  C   UNL     1       0.143   9.966  19.302  0.00  0.00    +0.000 A 
ATOM     21  C   UNL     1       0.428   8.836  20.066  0.00  0.00    +0.000 A 
ATOM     22  C   UNL     1       1.504   8.001  19.746  0.00  0.00    +0.000 A 
ATOM     23  C   UNL     1       2.271   8.212  18.600  0.00  0.00    +0.000 A 
ATOM     24  C   UNL     1       1.954   9.312  17.791  0.00  0.00    +0.000 A 
ATOM     25  C   UNL     1       0.923  10.197  18.157  0.00  0.00    +0.000 A 
BRANCH  23  26
ATOM     26  N   UNL     1       3.342   7.364  18.217  0.00  0.00    +0.000 N 
ATOM     27  C   UNL     1       3.235   6.018  17.897  0.00  0.00    +0.000 C 
ATOM     28  O   UNL     1       2.201   5.350  17.961  0.00  0.00    +0.000 OA
ATOM     29  H   UNL     1       4.258   7.777  18.202  0.00  0.00    +0.000 HD
BRANCH  27  30
ATOM     30  C   UNL     1       4.542   5.353  17.453  0.00  0.00    +0.000 C 
ATOM     31  C   UNL     1       5.357   6.330  16.594  0.00  0.00    +0.000 C 
ATOM     32  C   UNL     1       5.384   4.915  18.649  0.00  0.00    +0.000 C 
ENDBRANCH  27  30
ENDBRANCH  23  26
ENDBRANCH   2  20
BRANCH   1  33
ATOM     33  O   UNL     1      -0.247  11.447  22.027  0.00  0.00    +0.000 OA
BRANCH  33  35
ATOM     34  C   UNL     1       0.402   9.549  23.234  0.00  0.00    +0.000 C 
ATOM     35  C   UNL     1      -0.653  10.598  23.007  0.00  0.00    +0.000 C 
ATOM     36  O   UNL     1      -1.710  10.641  23.624  0.00  0.00    +0.000 OA
ENDBRANCH  33  35
ENDBRANCH   1  33
TORSDOF 7
ENDMDL
MODEL 9
REMARK VINA RESULT:      -8.2      0.954      1.590
REMARK  Name = 
REMARK  12 active torsions:
REMARK  status: ('A' for Active; 'I' for Inactive)
REMARK    1  A    between atoms: C_1  and  C_2
REMARK    2  A    between atoms: C_2  and  O_4
REMARK    3  A    between atoms: O_4  and  C_5
REMARK    4  A    between atoms: C_6  and  C_7
REMARK    5  A    between atoms: C_10  and  N_11
REMARK    6  A    between atoms: C_12  and  C_14
REMARK    7  A    between atoms: C_14  and  C_15
REMARK    8  A    between atoms: C_14  and  C_16
REMARK    9  A    between atoms: C_19  and  C_20
REMARK   10  A    between atoms: C_23  and  C_24
REMARK   11  A    between atoms: N_28  and  C_29
REMARK   12  A    between atoms: C_32  and  C_33
REMARK                            x       y       z     vdW  Elec       q    Type
REMARK                         _______ _______ _______ _____ _____    ______ ____
ROOT
ATOM      1  C   UNL     1      -0.799  11.505  20.991  0.00  0.00    +0.000 A 
ATOM      2  C   UNL     1      -0.767  10.852  19.753  0.00  0.00    +0.000 A 
ATOM      3  C   UNL     1      -1.923  11.323  19.052  0.00  0.00    +0.000 A 
ATOM      4  N   UNL     1      -2.594  12.213  19.790  0.00  0.00    +0.000 NA
ATOM      5  N   UNL     1      -1.910  12.355  20.953  0.00  0.00    +0.000 N 
ENDROOT
BRANCH   3   6
ATOM      6  C   UNL     1      -2.439  10.969  17.717  0.00  0.00    +0.000 A 
ATOM      7  C   UNL     1      -3.558  11.602  17.164  0.00  0.00    +0.000 A 
ATOM      8  C   UNL     1      -4.079  11.200  15.930  0.00  0.00    +0.000 A 
ATOM      9  C   UNL     1      -3.454  10.192  15.192  0.00  0.00    +0.000 A 
ATOM     10  C   UNL     1      -3.986   9.779  13.853  0.00  0.00    +0.000 C 
ATOM     11  C   UNL     1      -2.304   9.588  15.710  0.00  0.00    +0.000 A 
ATOM     12  C   UNL     1      -1.806   9.969  16.961  0.00  0.00    +0.000 A 
ENDBRANCH   3   6
BRANCH   5  13
ATOM     13  C   UNL     1      -2.402  13.306  21.910  0.00  0.00    +0.000 A 
ATOM     14  C   UNL     1      -3.554  12.986  22.659  0.00  0.00    +0.000 A 
ATOM     15  C   UNL     1      -4.082  13.879  23.601  0.00  0.00    +0.000 A 
ATOM     16  C   UNL     1      -3.470  15.114  23.819  0.00  0.00    +0.000 A 
ATOM     17  C   UNL     1      -4.011  16.079  24.832  0.00  0.00    +0.000 C 
ATOM     18  C   UNL     1      -2.334  15.442  23.072  0.00  0.00    +0.000 A 
ATOM     19  C   UNL     1      -1.798  14.552  22.124  0.00  0.00    +0.000 A 
ENDBRANCH   5  13
BRANCH   2  20
ATOM     20  C   UNL     1       0.257   9.886  19.354  0.00  0.00    +0.000 A 
ATOM     21  C   UNL     1       0.515   8.754  20.126  0.00  0.00    +0.000 A 
ATOM     22  C   UNL     1       1.552   7.875  19.795  0.00  0.00    +0.000 A 
ATOM     23  C   UNL     1       2.304   8.045  18.631  0.00  0.00    +0.000 A 
ATOM     24  C   UNL     1       2.012   9.146  17.815  0.00  0.00    +0.000 A 
ATOM     25  C   UNL     1       1.022  10.074  18.191  0.00  0.00    +0.000 A 
BRANCH  23  26
ATOM     26  N   UNL     1       3.334   7.152  18.237  0.00  0.00    +0.000 N 
ATOM     27  C   UNL     1       3.159   5.829  17.861  0.00  0.00    +0.000 C 
ATOM     28  O   UNL     1       2.088   5.218  17.876  0.00  0.00    +0.000 OA
ATOM     29  H   UNL     1       4.271   7.512  18.259  0.00  0.00    +0.000 HD
BRANCH  27  30
ATOM     30  C   UNL     1       4.437   5.107  17.419  0.00  0.00    +0.000 C 
ATOM     31  C   UNL     1       5.519   5.260  18.497  0.00  0.00    +0.000 C 
ATOM     32  C   UNL     1       4.185   3.622  17.168  0.00  0.00    +0.000 C 
ENDBRANCH  27  30
ENDBRANCH  23  26
ENDBRANCH   2  20
BRANCH   1  33
ATOM     33  O   UNL     1      -0.058  11.364  22.089  0.00  0.00    +0.000 OA
BRANCH  33  35
ATOM     34  C   UNL     1       0.685   9.464  23.240  0.00  0.00    +0.000 C 
ATOM     35  C   UNL     1      -0.437  10.441  23.013  0.00  0.00    +0.000 C 
ATOM     36  O   UNL     1      -1.518  10.376  23.584  0.00  0.00    +0.000 OA
ENDBRANCH  33  35
ENDBRANCH   1  33
TORSDOF 7
ENDMDL
