MODEL 1
REMARK VINA RESULT:      -8.0      0.000      0.000
REMARK  Name = 
REMARK  3 active torsions:
REMARK  status: ('A' for Active; 'I' for Inactive)
REMARK    1  A    between atoms: C_2  and  C_3
REMARK    2  A    between atoms: N_11  and  S_12
REMARK    3  A    between atoms: S_12  and  C_15
REMARK                            x       y       z     vdW  Elec       q    Type
REMARK                         _______ _______ _______ _____ _____    ______ ____
ROOT
ATOM      1  O   UNL     1       7.344   6.275  16.541  0.00  0.00    +0.000 OA
ATOM      2  C   UNL     1       6.666   5.390  16.016  0.00  0.00    +0.000 C 
ATOM      3  N   UNL     1       5.687   4.709  16.754  0.00  0.00    +0.000 N 
ATOM      4  C   UNL     1       4.881   3.614  16.209  0.00  0.00    +0.000 C 
ATOM      5  C   UNL     1       4.522   2.582  17.269  0.00  0.00    +0.000 C 
ATOM      6  N   UNL     1       3.861   3.194  18.447  0.00  0.00    +0.000 NA
ATOM      7  C   UNL     1       4.776   4.220  19.054  0.00  0.00    +0.000 C 
ATOM      8  C   UNL     1       5.226   5.283  18.030  0.00  0.00    +0.000 C 
ENDROOT
BRANCH   2   9
ATOM      9  C   UNL     1       6.905   4.971  14.642  0.00  0.00    +0.000 A 
ATOM     10  C   UNL     1       6.309   3.979  13.887  0.00  0.00    +0.000 A 
ATOM     11  C   UNL     1       6.877   4.050  12.591  0.00  0.00    +0.000 A 
ATOM     12  C   UNL     1       7.828   5.040  12.644  0.00  0.00    +0.000 A 
ATOM     13  O   UNL     1       7.874   5.582  13.887  0.00  0.00    +0.000 OA
ENDBRANCH   2   9
BRANCH   6  14
ATOM     14  S   UNL     1       2.236   3.697  18.289  0.00  0.00    +0.000 S 
ATOM     15  O   UNL     1       1.928   3.839  16.888  0.00  0.00    +0.000 OA
ATOM     16  O   UNL     1       1.440   2.813  19.118  0.00  0.00    +0.000 OA
BRANCH  14  17
ATOM     17  C   UNL     1       2.188   5.297  19.044  0.00  0.00    +0.000 A 
ATOM     18  C   UNL     1       2.184   6.417  18.194  0.00  0.00    +0.000 A 
ATOM     19  C   UNL     1       2.053   7.694  18.730  0.00  0.00    +0.000 A 
ATOM     20 CL   UNL     1       2.022   9.062  17.691  0.00  0.00    +0.000 Cl
ATOM     21  C   UNL     1       1.926   7.867  20.105  0.00  0.00    +0.000 A 
ATOM     22  C   UNL     1       1.940   6.753  20.949  0.00  0.00    +0.000 A 
ATOM     23  C   UNL     1       2.078   5.460  20.426  0.00  0.00    +0.000 A 
ATOM     24 CL   UNL     1       2.043   4.156  21.553  0.00  0.00    +0.000 Cl
ENDBRANCH  14  17
ENDBRANCH   6  14
TORSDOF 3
ENDMDL
MODEL 2
REMARK VINA RESULT:      -8.0      3.448      7.137
REMARK  Name = 
REMARK  3 active torsions:
REMARK  status: ('A' for Active; 'I' for Inactive)
REMARK    1  A    between atoms: C_2  and  C_3
REMARK    2  A    between atoms: N_11  and  S_12
REMARK    3  A    between atoms: S_12  and  C_15
REMARK                            x       y       z     vdW  Elec       q    Type
REMARK                         _______ _______ _______ _____ _____    ______ ____
ROOT
ATOM      1  O   UNL     1       1.570   9.504  18.668  0.00  0.00    +0.000 OA
ATOM      2  C   UNL     1       1.593   8.630  19.534  0.00  0.00    +0.000 C 
ATOM      3  N   UNL     1       2.156   7.374  19.265  0.00  0.00    +0.000 N 
ATOM      4  C   UNL     1       2.172   6.272  20.231  0.00  0.00    +0.000 C 
ATOM      5  C   UNL     1       2.077   4.912  19.554  0.00  0.00    +0.000 C 
ATOM      6  N   UNL     1       3.122   4.727  18.517  0.00  0.00    +0.000 NA
ATOM      7  C   UNL     1       2.986   5.802  17.476  0.00  0.00    +0.000 C 
ATOM      8  C   UNL     1       3.028   7.219  18.088  0.00  0.00    +0.000 C 
ENDROOT
BRANCH   2   9
ATOM      9  C   UNL     1       0.975   8.840  20.836  0.00  0.00    +0.000 A 
ATOM     10  C   UNL     1      -0.343   8.728  21.236  0.00  0.00    +0.000 A 
ATOM     11  C   UNL     1      -0.373   8.978  22.630  0.00  0.00    +0.000 A 
ATOM     12  C   UNL     1       0.916   9.287  22.991  0.00  0.00    +0.000 A 
ATOM     13  O   UNL     1       1.733   9.236  21.909  0.00  0.00    +0.000 OA
ENDBRANCH   2   9
BRANCH   6  14
ATOM     14  S   UNL     1       4.724   4.434  19.031  0.00  0.00    +0.000 S 
ATOM     15  O   UNL     1       5.138   5.511  19.897  0.00  0.00    +0.000 OA
ATOM     16  O   UNL     1       4.769   3.066  19.509  0.00  0.00    +0.000 OA
BRANCH  14  17
ATOM     17  C   UNL     1       5.689   4.497  17.550  0.00  0.00    +0.000 A 
ATOM     18  C   UNL     1       5.070   4.097  16.353  0.00  0.00    +0.000 A 
ATOM     19  C   UNL     1       5.752   4.214  15.146  0.00  0.00    +0.000 A 
ATOM     20 CL   UNL     1       4.986   3.750  13.679  0.00  0.00    +0.000 Cl
ATOM     21  C   UNL     1       7.046   4.726  15.120  0.00  0.00    +0.000 A 
ATOM     22  C   UNL     1       7.663   5.114  16.312  0.00  0.00    +0.000 A 
ATOM     23  C   UNL     1       6.992   4.996  17.537  0.00  0.00    +0.000 A 
ATOM     24 CL   UNL     1       7.833   5.541  18.940  0.00  0.00    +0.000 Cl
ENDBRANCH  14  17
ENDBRANCH   6  14
TORSDOF 3
ENDMDL
MODEL 3
REMARK VINA RESULT:      -7.4      2.224      3.915
REMARK  Name = 
REMARK  3 active torsions:
REMARK  status: ('A' for Active; 'I' for Inactive)
REMARK    1  A    between atoms: C_2  and  C_3
REMARK    2  A    between atoms: N_11  and  S_12
REMARK    3  A    between atoms: S_12  and  C_15
REMARK                            x       y       z     vdW  Elec       q    Type
REMARK                         _______ _______ _______ _____ _____    ______ ____
ROOT
ATOM      1  O   UNL     1       7.647   4.198  12.337  0.00  0.00    +0.000 OA
ATOM      2  C   UNL     1       6.529   4.014  12.821  0.00  0.00    +0.000 C 
ATOM      3  N   UNL     1       6.290   4.263  14.180  0.00  0.00    +0.000 N 
ATOM      4  C   UNL     1       5.002   4.018  14.832  0.00  0.00    +0.000 C 
ATOM      5  C   UNL     1       5.162   3.603  16.288  0.00  0.00    +0.000 C 
ATOM      6  N   UNL     1       5.975   4.572  17.062  0.00  0.00    +0.000 NA
ATOM      7  C   UNL     1       7.335   4.695  16.434  0.00  0.00    +0.000 C 
ATOM      8  C   UNL     1       7.259   5.072  14.939  0.00  0.00    +0.000 C 
ENDROOT
BRANCH   2   9
ATOM      9  C   UNL     1       5.442   3.466  12.023  0.00  0.00    +0.000 A 
ATOM     10  C   UNL     1       4.286   4.056  11.549  0.00  0.00    +0.000 A 
ATOM     11  C   UNL     1       3.616   3.082  10.768  0.00  0.00    +0.000 A 
ATOM     12  C   UNL     1       4.368   1.936  10.858  0.00  0.00    +0.000 A 
ATOM     13  O   UNL     1       5.457   2.148  11.638  0.00  0.00    +0.000 OA
ENDBRANCH   2   9
BRANCH   6  14
ATOM     14  S   UNL     1       5.257   6.061  17.495  0.00  0.00    +0.000 S 
ATOM     15  O   UNL     1       6.233   6.862  18.193  0.00  0.00    +0.000 OA
ATOM     16  O   UNL     1       4.615   6.580  16.303  0.00  0.00    +0.000 OA
BRANCH  14  17
ATOM     17  C   UNL     1       3.970   5.624  18.628  0.00  0.00    +0.000 A 
ATOM     18  C   UNL     1       4.065   4.380  19.274  0.00  0.00    +0.000 A 
ATOM     19  C   UNL     1       3.131   4.027  20.242  0.00  0.00    +0.000 A 
ATOM     20 CL   UNL     1       3.263   2.517  21.052  0.00  0.00    +0.000 Cl
ATOM     21  C   UNL     1       2.100   4.901  20.572  0.00  0.00    +0.000 A 
ATOM     22  C   UNL     1       2.001   6.134  19.921  0.00  0.00    +0.000 A 
ATOM     23  C   UNL     1       2.930   6.503  18.939  0.00  0.00    +0.000 A 
ATOM     24 CL   UNL     1       2.735   8.061  18.229  0.00  0.00    +0.000 Cl
ENDBRANCH  14  17
ENDBRANCH   6  14
TORSDOF 3
ENDMDL
MODEL 4
REMARK VINA RESULT:      -7.2      3.251      7.071
REMARK  Name = 
REMARK  3 active torsions:
REMARK  status: ('A' for Active; 'I' for Inactive)
REMARK    1  A    between atoms: C_2  and  C_3
REMARK    2  A    between atoms: N_11  and  S_12
REMARK    3  A    between atoms: S_12  and  C_15
REMARK                            x       y       z     vdW  Elec       q    Type
REMARK                         _______ _______ _______ _____ _____    ______ ____
ROOT
ATOM      1  O   UNL     1       1.661   9.356  18.996  0.00  0.00    +0.000 OA
ATOM      2  C   UNL     1       1.546   8.479  19.854  0.00  0.00    +0.000 C 
ATOM      3  N   UNL     1       1.939   7.160  19.582  0.00  0.00    +0.000 N 
ATOM      4  C   UNL     1       1.785   6.059  20.536  0.00  0.00    +0.000 C 
ATOM      5  C   UNL     1       1.520   4.730  19.842  0.00  0.00    +0.000 C 
ATOM      6  N   UNL     1       2.551   4.413  18.824  0.00  0.00    +0.000 NA
ATOM      7  C   UNL     1       2.585   5.505  17.793  0.00  0.00    +0.000 C 
ATOM      8  C   UNL     1       2.806   6.898  18.421  0.00  0.00    +0.000 C 
ENDROOT
BRANCH   2   9
ATOM      9  C   UNL     1       0.936   8.761  21.145  0.00  0.00    +0.000 A 
ATOM     10  C   UNL     1       1.492   9.232  22.320  0.00  0.00    +0.000 A 
ATOM     11  C   UNL     1       0.429   9.389  23.244  0.00  0.00    +0.000 A 
ATOM     12  C   UNL     1      -0.703   8.948  22.603  0.00  0.00    +0.000 A 
ATOM     13  O   UNL     1      -0.403   8.539  21.345  0.00  0.00    +0.000 OA
ENDBRANCH   2   9
BRANCH   6  14
ATOM     14  S   UNL     1       4.088   3.901  19.366  0.00  0.00    +0.000 S 
ATOM     15  O   UNL     1       4.327   4.455  20.676  0.00  0.00    +0.000 OA
ATOM     16  O   UNL     1       4.147   2.466  19.167  0.00  0.00    +0.000 OA
BRANCH  14  17
ATOM     17  C   UNL     1       5.230   4.629  18.228  0.00  0.00    +0.000 A 
ATOM     18  C   UNL     1       6.116   5.600  18.725  0.00  0.00    +0.000 A 
ATOM     19  C   UNL     1       7.095   6.137  17.896  0.00  0.00    +0.000 A 
ATOM     20 CL   UNL     1       8.195   7.305  18.512  0.00  0.00    +0.000 Cl
ATOM     21  C   UNL     1       7.201   5.716  16.574  0.00  0.00    +0.000 A 
ATOM     22  C   UNL     1       6.313   4.757  16.078  0.00  0.00    +0.000 A 
ATOM     23  C   UNL     1       5.317   4.211  16.898  0.00  0.00    +0.000 A 
ATOM     24 CL   UNL     1       4.302   3.008  16.195  0.00  0.00    +0.000 Cl
ENDBRANCH  14  17
ENDBRANCH   6  14
TORSDOF 3
ENDMDL
MODEL 5
REMARK VINA RESULT:      -7.2      8.362      9.888
REMARK  Name = 
REMARK  3 active torsions:
REMARK  status: ('A' for Active; 'I' for Inactive)
REMARK    1  A    between atoms: C_2  and  C_3
REMARK    2  A    between atoms: N_11  and  S_12
REMARK    3  A    between atoms: S_12  and  C_15
REMARK                            x       y       z     vdW  Elec       q    Type
REMARK                         _______ _______ _______ _____ _____    ______ ____
ROOT
ATOM      1  O   UNL     1       3.249  17.148  17.930  0.00  0.00    +0.000 OA
ATOM      2  C   UNL     1       3.512  16.078  18.479  0.00  0.00    +0.000 C 
ATOM      3  N   UNL     1       2.507  15.339  19.120  0.00  0.00    +0.000 N 
ATOM      4  C   UNL     1       2.758  14.086  19.836  0.00  0.00    +0.000 C 
ATOM      5  C   UNL     1       1.820  13.903  21.021  0.00  0.00    +0.000 C 
ATOM      6  N   UNL     1       0.393  14.017  20.631  0.00  0.00    +0.000 NA
ATOM      7  C   UNL     1       0.152  15.369  20.019  0.00  0.00    +0.000 C 
ATOM      8  C   UNL     1       1.097  15.653  18.833  0.00  0.00    +0.000 C 
ENDROOT
BRANCH   2   9
ATOM      9  C   UNL     1       4.879  15.581  18.549  0.00  0.00    +0.000 A 
ATOM     10  C   UNL     1       5.558  14.697  17.732  0.00  0.00    +0.000 A 
ATOM     11  C   UNL     1       6.886  14.622  18.219  0.00  0.00    +0.000 A 
ATOM     12  C   UNL     1       6.927  15.416  19.339  0.00  0.00    +0.000 A 
ATOM     13  O   UNL     1       5.713  15.977  19.564  0.00  0.00    +0.000 OA
ENDBRANCH   2   9
BRANCH   6  14
ATOM     14  S   UNL     1      -0.316  12.716  19.782  0.00  0.00    +0.000 S 
ATOM     15  O   UNL     1      -1.676  13.065  19.450  0.00  0.00    +0.000 OA
ATOM     16  O   UNL     1       0.611  12.346  18.730  0.00  0.00    +0.000 OA
BRANCH  14  17
ATOM     17  C   UNL     1      -0.341  11.382  20.944  0.00  0.00    +0.000 A 
ATOM     18  C   UNL     1       0.354  10.209  20.602  0.00  0.00    +0.000 A 
ATOM     19  C   UNL     1       0.444   9.165  21.516  0.00  0.00    +0.000 A 
ATOM     20 CL   UNL     1       1.316   7.741  21.109  0.00  0.00    +0.000 Cl
ATOM     21  C   UNL     1      -0.151   9.278  22.769  0.00  0.00    +0.000 A 
ATOM     22  C   UNL     1      -0.850  10.441  23.103  0.00  0.00    +0.000 A 
ATOM     23  C   UNL     1      -0.956  11.500  22.191  0.00  0.00    +0.000 A 
ATOM     24 CL   UNL     1      -1.807  12.902  22.722  0.00  0.00    +0.000 Cl
ENDBRANCH  14  17
ENDBRANCH   6  14
TORSDOF 3
ENDMDL
MODEL 6
REMARK VINA RESULT:      -7.2      4.791      7.091
REMARK  Name = 
REMARK  3 active torsions:
REMARK  status: ('A' for Active; 'I' for Inactive)
REMARK    1  A    between atoms: C_2  and  C_3
REMARK    2  A    between atoms: N_11  and  S_12
REMARK    3  A    between atoms: S_12  and  C_15
REMARK                            x       y       z     vdW  Elec       q    Type
REMARK                         _______ _______ _______ _____ _____    ______ ____
ROOT
ATOM      1  O   UNL     1       2.875   4.817  17.690  0.00  0.00    +0.000 OA
ATOM      2  C   UNL     1       2.346   5.202  18.733  0.00  0.00    +0.000 C 
ATOM      3  N   UNL     1       2.079   6.564  18.937  0.00  0.00    +0.000 N 
ATOM      4  C   UNL     1       1.499   7.097  20.171  0.00  0.00    +0.000 C 
ATOM      5  C   UNL     1       2.004   8.498  20.487  0.00  0.00    +0.000 C 
ATOM      6  N   UNL     1       1.802   9.436  19.355  0.00  0.00    +0.000 NA
ATOM      7  C   UNL     1       2.524   8.916  18.144  0.00  0.00    +0.000 C 
ATOM      8  C   UNL     1       2.099   7.477  17.781  0.00  0.00    +0.000 C 
ENDROOT
BRANCH   2   9
ATOM      9  C   UNL     1       2.047   4.275  19.815  0.00  0.00    +0.000 A 
ATOM     10  C   UNL     1       0.886   3.588  20.117  0.00  0.00    +0.000 A 
ATOM     11  C   UNL     1       1.172   2.771  21.238  0.00  0.00    +0.000 A 
ATOM     12  C   UNL     1       2.470   3.048  21.593  0.00  0.00    +0.000 A 
ATOM     13  O   UNL     1       2.998   3.978  20.759  0.00  0.00    +0.000 OA
ENDBRANCH   2   9
BRANCH   6  14
ATOM     14  S   UNL     1       0.220  10.002  19.050  0.00  0.00    +0.000 S 
ATOM     15  O   UNL     1      -0.188   9.559  17.740  0.00  0.00    +0.000 OA
ATOM     16  O   UNL     1      -0.580   9.657  20.210  0.00  0.00    +0.000 OA
BRANCH  14  17
ATOM     17  C   UNL     1       0.370  11.764  19.031  0.00  0.00    +0.000 A 
ATOM     18  C   UNL     1       1.665  12.308  19.088  0.00  0.00    +0.000 A 
ATOM     19  C   UNL     1       1.846  13.683  18.982  0.00  0.00    +0.000 A 
ATOM     20 CL   UNL     1       3.431  14.345  19.025  0.00  0.00    +0.000 Cl
ATOM     21  C   UNL     1       0.749  14.523  18.821  0.00  0.00    +0.000 A 
ATOM     22  C   UNL     1      -0.539  13.982  18.774  0.00  0.00    +0.000 A 
ATOM     23  C   UNL     1      -0.739  12.599  18.886  0.00  0.00    +0.000 A 
ATOM     24 CL   UNL     1      -2.365  12.037  18.776  0.00  0.00    +0.000 Cl
ENDBRANCH  14  17
ENDBRANCH   6  14
TORSDOF 3
ENDMDL
MODEL 7
REMARK VINA RESULT:      -7.2     10.442     12.765
REMARK  Name = 
REMARK  3 active torsions:
REMARK  status: ('A' for Active; 'I' for Inactive)
REMARK    1  A    between atoms: C_2  and  C_3
REMARK    2  A    between atoms: N_11  and  S_12
REMARK    3  A    between atoms: S_12  and  C_15
REMARK                            x       y       z     vdW  Elec       q    Type
REMARK                         _______ _______ _______ _____ _____    ______ ____
ROOT
ATOM      1  O   UNL     1      -7.196  11.172  17.840  0.00  0.00    +0.000 OA
ATOM      2  C   UNL     1      -6.083  11.493  18.260  0.00  0.00    +0.000 C 
ATOM      3  N   UNL     1      -5.958  12.355  19.360  0.00  0.00    +0.000 N 
ATOM      4  C   UNL     1      -4.669  12.818  19.880  0.00  0.00    +0.000 C 
ATOM      5  C   UNL     1      -4.753  14.224  20.458  0.00  0.00    +0.000 C 
ATOM      6  N   UNL     1      -5.817  14.346  21.485  0.00  0.00    +0.000 NA
ATOM      7  C   UNL     1      -7.142  13.988  20.873  0.00  0.00    +0.000 C 
ATOM      8  C   UNL     1      -7.129  12.588  20.222  0.00  0.00    +0.000 C 
ENDROOT
BRANCH   2   9
ATOM      9  C   UNL     1      -4.868  11.052  17.592  0.00  0.00    +0.000 A 
ATOM     10  C   UNL     1      -4.007  10.011  17.884  0.00  0.00    +0.000 A 
ATOM     11  C   UNL     1      -3.022   9.992  16.866  0.00  0.00    +0.000 A 
ATOM     12  C   UNL     1      -3.302  11.057  16.044  0.00  0.00    +0.000 A 
ATOM     13  O   UNL     1      -4.396  11.722  16.491  0.00  0.00    +0.000 OA
ENDBRANCH   2   9
BRANCH   6  14
ATOM     14  S   UNL     1      -5.536  13.657  23.023  0.00  0.00    +0.000 S 
ATOM     15  O   UNL     1      -6.041  14.554  24.033  0.00  0.00    +0.000 OA
ATOM     16  O   UNL     1      -6.017  12.290  22.964  0.00  0.00    +0.000 OA
BRANCH  14  17
ATOM     17  C   UNL     1      -3.774  13.580  23.164  0.00  0.00    +0.000 A 
ATOM     18  C   UNL     1      -3.177  12.307  23.163  0.00  0.00    +0.000 A 
ATOM     19  C   UNL     1      -1.791  12.192  23.179  0.00  0.00    +0.000 A 
ATOM     20 CL   UNL     1      -1.059  10.637  23.150  0.00  0.00    +0.000 Cl
ATOM     21  C   UNL     1      -0.993  13.331  23.197  0.00  0.00    +0.000 A 
ATOM     22  C   UNL     1      -1.589  14.595  23.208  0.00  0.00    +0.000 A 
ATOM     23  C   UNL     1      -2.984  14.730  23.199  0.00  0.00    +0.000 A 
ATOM     24 CL   UNL     1      -3.612  16.335  23.174  0.00  0.00    +0.000 Cl
ENDBRANCH  14  17
ENDBRANCH   6  14
TORSDOF 3
ENDMDL
MODEL 8
REMARK VINA RESULT:      -7.1      2.454      3.616
REMARK  Name = 
REMARK  3 active torsions:
REMARK  status: ('A' for Active; 'I' for Inactive)
REMARK    1  A    between atoms: C_2  and  C_3
REMARK    2  A    between atoms: N_11  and  S_12
REMARK    3  A    between atoms: S_12  and  C_15
REMARK                            x       y       z     vdW  Elec       q    Type
REMARK                         _______ _______ _______ _____ _____    ______ ____
ROOT
ATOM      1  O   UNL     1       7.833   5.397  13.855  0.00  0.00    +0.000 OA
ATOM      2  C   UNL     1       6.854   4.684  14.080  0.00  0.00    +0.000 C 
ATOM      3  N   UNL     1       6.335   4.575  15.379  0.00  0.00    +0.000 N 
ATOM      4  C   UNL     1       5.207   3.708  15.727  0.00  0.00    +0.000 C 
ATOM      5  C   UNL     1       5.321   3.155  17.141  0.00  0.00    +0.000 C 
ATOM      6  N   UNL     1       5.501   4.226  18.151  0.00  0.00    +0.000 NA
ATOM      7  C   UNL     1       6.743   5.009  17.829  0.00  0.00    +0.000 C 
ATOM      8  C   UNL     1       6.727   5.570  16.391  0.00  0.00    +0.000 C 
ENDROOT
BRANCH   2   9
ATOM      9  C   UNL     1       6.249   3.879  13.030  0.00  0.00    +0.000 A 
ATOM     10  C   UNL     1       6.798   2.916  12.203  0.00  0.00    +0.000 A 
ATOM     11  C   UNL     1       5.741   2.402  11.412  0.00  0.00    +0.000 A 
ATOM     12  C   UNL     1       4.622   3.119  11.756  0.00  0.00    +0.000 A 
ATOM     13  O   UNL     1       4.923   4.035  12.710  0.00  0.00    +0.000 OA
ENDBRANCH   2   9
BRANCH   6  14
ATOM     14  S   UNL     1       4.147   5.182  18.561  0.00  0.00    +0.000 S 
ATOM     15  O   UNL     1       4.479   5.991  19.708  0.00  0.00    +0.000 OA
ATOM     16  O   UNL     1       3.694   5.816  17.338  0.00  0.00    +0.000 OA
BRANCH  14  17
ATOM     17  C   UNL     1       2.901   4.017  19.032  0.00  0.00    +0.000 A 
ATOM     18  C   UNL     1       2.762   3.731  20.402  0.00  0.00    +0.000 A 
ATOM     19  C   UNL     1       1.740   2.894  20.835  0.00  0.00    +0.000 A 
ATOM     20 CL   UNL     1       1.553   2.565  22.511  0.00  0.00    +0.000 Cl
ATOM     21  C   UNL     1       0.853   2.337  19.918  0.00  0.00    +0.000 A 
ATOM     22  C   UNL     1       0.999   2.615  18.556  0.00  0.00    +0.000 A 
ATOM     23  C   UNL     1       2.028   3.452  18.101  0.00  0.00    +0.000 A 
ATOM     24 CL   UNL     1       2.091   3.757  16.406  0.00  0.00    +0.000 Cl
ENDBRANCH  14  17
ENDBRANCH   6  14
TORSDOF 3
ENDMDL
MODEL 9
REMARK VINA RESULT:      -7.0      5.845      8.069
REMARK  Name = 
REMARK  3 active torsions:
REMARK  status: ('A' for Active; 'I' for Inactive)
REMARK    1  A    between atoms: C_2  and  C_3
REMARK    2  A    between atoms: N_11  and  S_12
REMARK    3  A    between atoms: S_12  and  C_15
REMARK                            x       y       z     vdW  Elec       q    Type
REMARK                         _______ _______ _______ _____ _____    ______ ____
ROOT
ATOM      1  O   UNL     1       3.399   7.854  17.570  0.00  0.00    +0.000 OA
ATOM      2  C   UNL     1       2.515   7.756  18.422  0.00  0.00    +0.000 C 
ATOM      3  N   UNL     1       1.776   8.882  18.814  0.00  0.00    +0.000 N 
ATOM      4  C   UNL     1       0.747   8.849  19.856  0.00  0.00    +0.000 C 
ATOM      5  C   UNL     1       0.666  10.160  20.626  0.00  0.00    +0.000 C 
ATOM      6  N   UNL     1       0.479  11.327  19.730  0.00  0.00    +0.000 NA
ATOM      7  C   UNL     1       1.626  11.398  18.761  0.00  0.00    +0.000 C 
ATOM      8  C   UNL     1       1.805  10.087  17.968  0.00  0.00    +0.000 C 
ENDROOT
BRANCH   2   9
ATOM      9  C   UNL     1       2.257   6.495  19.101  0.00  0.00    +0.000 A 
ATOM     10  C   UNL     1       2.206   6.192  20.449  0.00  0.00    +0.000 A 
ATOM     11  C   UNL     1       1.848   4.825  20.551  0.00  0.00    +0.000 A 
ATOM     12  C   UNL     1       1.759   4.357  19.262  0.00  0.00    +0.000 A 
ATOM     13  O   UNL     1       2.034   5.349  18.380  0.00  0.00    +0.000 OA
ENDBRANCH   2   9
BRANCH   6  14
ATOM     14  S   UNL     1      -1.059  11.566  19.028  0.00  0.00    +0.000 S 
ATOM     15  O   UNL     1      -0.928  12.484  17.923  0.00  0.00    +0.000 OA
ATOM     16  O   UNL     1      -1.630  10.251  18.811  0.00  0.00    +0.000 OA
BRANCH  14  17
ATOM     17  C   UNL     1      -2.016  12.342  20.297  0.00  0.00    +0.000 A 
ATOM     18  C   UNL     1      -1.329  12.836  21.420  0.00  0.00    +0.000 A 
ATOM     19  C   UNL     1      -2.020  13.537  22.403  0.00  0.00    +0.000 A 
ATOM     20 CL   UNL     1      -1.176  14.164  23.763  0.00  0.00    +0.000 Cl
ATOM     21  C   UNL     1      -3.389  13.750  22.281  0.00  0.00    +0.000 A 
ATOM     22  C   UNL     1      -4.072  13.249  21.169  0.00  0.00    +0.000 A 
ATOM     23  C   UNL     1      -3.393  12.536  20.172  0.00  0.00    +0.000 A 
ATOM     24 CL   UNL     1      -4.326  11.998  18.826  0.00  0.00    +0.000 Cl
ENDBRANCH  14  17
ENDBRANCH   6  14
TORSDOF 3
ENDMDL
