MODEL 1
REMARK VINA RESULT:      -8.3      0.000      0.000
REMARK  Name = 
REMARK  10 active torsions:
REMARK  status: ('A' for Active; 'I' for Inactive)
REMARK    1  A    between atoms: C_1  and  O_2
REMARK    2  A    between atoms: O_2  and  C_3
REMARK    3  A    between atoms: C_6  and  C_7
REMARK    4  A    between atoms: C_7  and  N_8
REMARK    5  A    between atoms: N_8  and  S_9
REMARK    6  A    between atoms: S_9  and  C_12
REMARK    7  A    between atoms: C_14  and  C_15
REMARK    8  A    between atoms: C_15  and  N_16
REMARK    9  A    between atoms: C_29  and  O_30
REMARK   10  A    between atoms: O_30  and  C_31
REMARK                            x       y       z     vdW  Elec       q    Type
REMARK                         _______ _______ _______ _____ _____    ______ ____
ROOT
ATOM      1  C   UNL     1       1.331   8.496  20.070  0.00  0.00    +0.000 A 
ATOM      2  C   UNL     1       2.054   7.281  20.186  0.00  0.00    +0.000 A 
ATOM      3  C   UNL     1       2.882   6.821  19.142  0.00  0.00    +0.000 A 
ATOM      4  C   UNL     1       2.876   7.526  17.944  0.00  0.00    +0.000 A 
ATOM      5  C   UNL     1       2.189   8.730  17.835  0.00  0.00    +0.000 A 
ATOM      6  C   UNL     1       1.473   9.275  18.907  0.00  0.00    +0.000 A 
ENDROOT
BRANCH   1   7
ATOM      7  S   UNL     1       0.498   9.068  21.543  0.00  0.00    +0.000 S 
ATOM      8  O   UNL     1       1.463   9.341  22.583  0.00  0.00    +0.000 OA
ATOM      9  O   UNL     1      -0.602   8.156  21.808  0.00  0.00    +0.000 OA
BRANCH   7  10
ATOM     10  N   UNL     1      -0.184  10.563  21.145  0.00  0.00    +0.000 NA
ATOM     11  H   UNL     1       0.409  11.030  20.443  0.00  0.00    +0.000 HD
BRANCH  10  12
ATOM     12  C   UNL     1      -0.561  11.412  22.287  0.00  0.00    +0.000 C 
BRANCH  12  16
ATOM     13  C   UNL     1      -4.523  13.099  21.924  0.00  0.00    +0.000 A 
ATOM     14  C   UNL     1      -3.706  12.979  20.800  0.00  0.00    +0.000 A 
ATOM     15  C   UNL     1      -2.417  12.445  20.909  0.00  0.00    +0.000 A 
ATOM     16  C   UNL     1      -1.923  12.047  22.158  0.00  0.00    +0.000 A 
ATOM     17  C   UNL     1      -2.744  12.184  23.283  0.00  0.00    +0.000 A 
ATOM     18  C   UNL     1      -4.038  12.707  23.170  0.00  0.00    +0.000 A 
BRANCH  13  20
ATOM     19  C   UNL     1      -6.729  13.385  22.713  0.00  0.00    +0.000 C 
ATOM     20  O   UNL     1      -5.760  13.640  21.700  0.00  0.00    +0.000 OA
ENDBRANCH  13  20
ENDBRANCH  12  16
ENDBRANCH  10  12
ENDBRANCH   7  10
ENDBRANCH   1   7
BRANCH   6  21
ATOM     21  O   UNL     1       0.932  10.532  18.806  0.00  0.00    +0.000 OA
ATOM     22  C   UNL     1       1.860  11.586  18.506  0.00  0.00    +0.000 C 
ENDBRANCH   6  21
BRANCH   3  23
ATOM     23  C   UNL     1       3.833   5.659  19.306  0.00  0.00    +0.000 C 
BRANCH  23  24
ATOM     24  N   UNL     1       4.560   5.334  18.100  0.00  0.00    +0.000 N 
ATOM     25  C   UNL     1       4.098   4.487  17.134  0.00  0.00    +0.000 C 
ATOM     26  O   UNL     1       3.058   3.861  17.096  0.00  0.00    +0.000 OA
ATOM     27  C   UNL     1       5.107   4.461  16.084  0.00  0.00    +0.000 A 
ATOM     28  C   UNL     1       5.134   3.856  14.847  0.00  0.00    +0.000 A 
ATOM     29  C   UNL     1       6.239   4.136  14.039  0.00  0.00    +0.000 A 
ATOM     30  C   UNL     1       7.244   4.986  14.521  0.00  0.00    +0.000 A 
ATOM     31  N   UNL     1       7.236   5.561  15.749  0.00  0.00    +0.000 NA
ATOM     32  C   UNL     1       6.148   5.264  16.483  0.00  0.00    +0.000 A 
ATOM     33  C   UNL     1       5.822   5.794  17.816  0.00  0.00    +0.000 C 
ATOM     34  O   UNL     1       6.544   6.479  18.515  0.00  0.00    +0.000 OA
ENDBRANCH  23  24
ENDBRANCH   3  23
TORSDOF 8
ENDMDL
MODEL 2
REMARK VINA RESULT:      -8.0      2.439      3.596
REMARK  Name = 
REMARK  10 active torsions:
REMARK  status: ('A' for Active; 'I' for Inactive)
REMARK    1  A    between atoms: C_1  and  O_2
REMARK    2  A    between atoms: O_2  and  C_3
REMARK    3  A    between atoms: C_6  and  C_7
REMARK    4  A    between atoms: C_7  and  N_8
REMARK    5  A    between atoms: N_8  and  S_9
REMARK    6  A    between atoms: S_9  and  C_12
REMARK    7  A    between atoms: C_14  and  C_15
REMARK    8  A    between atoms: C_15  and  N_16
REMARK    9  A    between atoms: C_29  and  O_30
REMARK   10  A    between atoms: O_30  and  C_31
REMARK                            x       y       z     vdW  Elec       q    Type
REMARK                         _______ _______ _______ _____ _____    ______ ____
ROOT
ATOM      1  C   UNL     1       1.250   9.039  20.168  0.00  0.00    +0.000 A 
ATOM      2  C   UNL     1       1.703   7.721  20.433  0.00  0.00    +0.000 A 
ATOM      3  C   UNL     1       2.364   6.964  19.444  0.00  0.00    +0.000 A 
ATOM      4  C   UNL     1       2.450   7.496  18.162  0.00  0.00    +0.000 A 
ATOM      5  C   UNL     1       2.031   8.795  17.906  0.00  0.00    +0.000 A 
ATOM      6  C   UNL     1       1.499   9.615  18.908  0.00  0.00    +0.000 A 
ENDROOT
BRANCH   1   7
ATOM      7  S   UNL     1       0.628   9.961  21.566  0.00  0.00    +0.000 S 
ATOM      8  O   UNL     1       1.213   9.459  22.789  0.00  0.00    +0.000 OA
ATOM      9  O   UNL     1      -0.818  10.031  21.439  0.00  0.00    +0.000 OA
BRANCH   7  10
ATOM     10  N   UNL     1       1.217  11.536  21.388  0.00  0.00    +0.000 NA
ATOM     11  H   UNL     1       1.999  11.682  22.043  0.00  0.00    +0.000 HD
BRANCH  10  12
ATOM     12  C   UNL     1       0.199  12.600  21.407  0.00  0.00    +0.000 C 
BRANCH  12  16
ATOM     13  C   UNL     1       1.189  15.918  18.822  0.00  0.00    +0.000 A 
ATOM     14  C   UNL     1       2.115  15.458  19.758  0.00  0.00    +0.000 A 
ATOM     15  C   UNL     1       1.799  14.391  20.608  0.00  0.00    +0.000 A 
ATOM     16  C   UNL     1       0.536  13.789  20.543  0.00  0.00    +0.000 A 
ATOM     17  C   UNL     1      -0.391  14.266  19.610  0.00  0.00    +0.000 A 
ATOM     18  C   UNL     1      -0.070  15.325  18.753  0.00  0.00    +0.000 A 
BRANCH  13  20
ATOM     19  C   UNL     1       2.890  16.819  17.456  0.00  0.00    +0.000 C 
ATOM     20  O   UNL     1       1.603  16.968  18.048  0.00  0.00    +0.000 OA
ENDBRANCH  13  20
ENDBRANCH  12  16
ENDBRANCH  10  12
ENDBRANCH   7  10
ENDBRANCH   1   7
BRANCH   6  21
ATOM     21  O   UNL     1       1.233  10.936  18.649  0.00  0.00    +0.000 OA
ATOM     22  C   UNL     1       2.302  11.677  18.040  0.00  0.00    +0.000 C 
ENDBRANCH   6  21
BRANCH   3  23
ATOM     23  C   UNL     1       3.053   5.653  19.745  0.00  0.00    +0.000 C 
BRANCH  23  24
ATOM     24  N   UNL     1       3.947   5.218  18.697  0.00  0.00    +0.000 N 
ATOM     25  C   UNL     1       3.539   4.577  17.563  0.00  0.00    +0.000 C 
ATOM     26  O   UNL     1       2.419   4.247  17.228  0.00  0.00    +0.000 OA
ATOM     27  C   UNL     1       4.733   4.346  16.761  0.00  0.00    +0.000 A 
ATOM     28  C   UNL     1       4.908   3.826  15.498  0.00  0.00    +0.000 A 
ATOM     29  C   UNL     1       6.208   3.852  14.987  0.00  0.00    +0.000 A 
ATOM     30  C   UNL     1       7.244   4.383  15.770  0.00  0.00    +0.000 A 
ATOM     31  N   UNL     1       7.081   4.870  17.024  0.00  0.00    +0.000 NA
ATOM     32  C   UNL     1       5.811   4.827  17.466  0.00  0.00    +0.000 A 
ATOM     33  C   UNL     1       5.313   5.348  18.748  0.00  0.00    +0.000 C 
ATOM     34  O   UNL     1       5.990   5.781  19.662  0.00  0.00    +0.000 OA
ENDBRANCH  23  24
ENDBRANCH   3  23
TORSDOF 8
ENDMDL
MODEL 3
REMARK VINA RESULT:      -8.0      2.897      9.754
REMARK  Name = 
REMARK  10 active torsions:
REMARK  status: ('A' for Active; 'I' for Inactive)
REMARK    1  A    between atoms: C_1  and  O_2
REMARK    2  A    between atoms: O_2  and  C_3
REMARK    3  A    between atoms: C_6  and  C_7
REMARK    4  A    between atoms: C_7  and  N_8
REMARK    5  A    between atoms: N_8  and  S_9
REMARK    6  A    between atoms: S_9  and  C_12
REMARK    7  A    between atoms: C_14  and  C_15
REMARK    8  A    between atoms: C_15  and  N_16
REMARK    9  A    between atoms: C_29  and  O_30
REMARK   10  A    between atoms: O_30  and  C_31
REMARK                            x       y       z     vdW  Elec       q    Type
REMARK                         _______ _______ _______ _____ _____    ______ ____
ROOT
ATOM      1  C   UNL     1       2.414   4.494  18.773  0.00  0.00    +0.000 A 
ATOM      2  C   UNL     1       2.526   5.873  18.460  0.00  0.00    +0.000 A 
ATOM      3  C   UNL     1       2.176   6.865  19.398  0.00  0.00    +0.000 A 
ATOM      4  C   UNL     1       1.599   6.459  20.596  0.00  0.00    +0.000 A 
ATOM      5  C   UNL     1       1.511   5.109  20.916  0.00  0.00    +0.000 A 
ATOM      6  C   UNL     1       1.982   4.110  20.056  0.00  0.00    +0.000 A 
ENDROOT
BRANCH   1   7
ATOM      7  S   UNL     1       3.095   3.351  17.580  0.00  0.00    +0.000 S 
ATOM      8  O   UNL     1       2.028   2.719  16.837  0.00  0.00    +0.000 OA
ATOM      9  O   UNL     1       4.074   2.528  18.269  0.00  0.00    +0.000 OA
BRANCH   7  10
ATOM     10  N   UNL     1       3.940   4.293  16.459  0.00  0.00    +0.000 NA
ATOM     11  H   UNL     1       3.438   4.282  15.559  0.00  0.00    +0.000 HD
BRANCH  10  12
ATOM     12  C   UNL     1       5.382   4.013  16.355  0.00  0.00    +0.000 C 
BRANCH  12  16
ATOM     13  C   UNL     1       7.815   7.033  18.261  0.00  0.00    +0.000 A 
ATOM     14  C   UNL     1       6.882   7.395  17.289  0.00  0.00    +0.000 A 
ATOM     15  C   UNL     1       6.097   6.422  16.658  0.00  0.00    +0.000 A 
ATOM     16  C   UNL     1       6.260   5.069  16.979  0.00  0.00    +0.000 A 
ATOM     17  C   UNL     1       7.208   4.714  17.945  0.00  0.00    +0.000 A 
ATOM     18  C   UNL     1       7.983   5.688  18.584  0.00  0.00    +0.000 A 
BRANCH  13  20
ATOM     19  C   UNL     1       8.426   9.309  18.119  0.00  0.00    +0.000 C 
ATOM     20  O   UNL     1       8.529   8.065  18.807  0.00  0.00    +0.000 OA
ENDBRANCH  13  20
ENDBRANCH  12  16
ENDBRANCH  10  12
ENDBRANCH   7  10
ENDBRANCH   1   7
BRANCH   6  21
ATOM     21  O   UNL     1       2.010   2.802  20.470  0.00  0.00    +0.000 OA
ATOM     22  C   UNL     1       1.500   2.557  21.789  0.00  0.00    +0.000 C 
ENDBRANCH   6  21
BRANCH   3  23
ATOM     23  C   UNL     1       2.485   8.330  19.191  0.00  0.00    +0.000 C 
BRANCH  23  24
ATOM     24  N   UNL     1       1.328   9.186  19.314  0.00  0.00    +0.000 N 
ATOM     25  C   UNL     1       0.914   9.745  20.489  0.00  0.00    +0.000 C 
ATOM     26  O   UNL     1       1.390   9.636  21.601  0.00  0.00    +0.000 OA
ATOM     27  C   UNL     1      -0.255  10.556  20.176  0.00  0.00    +0.000 A 
ATOM     28  C   UNL     1      -1.021  11.404  20.946  0.00  0.00    +0.000 A 
ATOM     29  C   UNL     1      -2.022  12.117  20.281  0.00  0.00    +0.000 A 
ATOM     30  C   UNL     1      -2.200  11.929  18.903  0.00  0.00    +0.000 A 
ATOM     31  N   UNL     1      -1.468  11.074  18.147  0.00  0.00    +0.000 NA
ATOM     32  C   UNL     1      -0.514  10.418  18.834  0.00  0.00    +0.000 A 
ATOM     33  C   UNL     1       0.480   9.488  18.278  0.00  0.00    +0.000 C 
ATOM     34  O   UNL     1       0.514   9.068  17.136  0.00  0.00    +0.000 OA
ENDBRANCH  23  24
ENDBRANCH   3  23
TORSDOF 8
ENDMDL
MODEL 4
REMARK VINA RESULT:      -7.9      2.470     11.466
REMARK  Name = 
REMARK  10 active torsions:
REMARK  status: ('A' for Active; 'I' for Inactive)
REMARK    1  A    between atoms: C_1  and  O_2
REMARK    2  A    between atoms: O_2  and  C_3
REMARK    3  A    between atoms: C_6  and  C_7
REMARK    4  A    between atoms: C_7  and  N_8
REMARK    5  A    between atoms: N_8  and  S_9
REMARK    6  A    between atoms: S_9  and  C_12
REMARK    7  A    between atoms: C_14  and  C_15
REMARK    8  A    between atoms: C_15  and  N_16
REMARK    9  A    between atoms: C_29  and  O_30
REMARK   10  A    between atoms: O_30  and  C_31
REMARK                            x       y       z     vdW  Elec       q    Type
REMARK                         _______ _______ _______ _____ _____    ______ ____
ROOT
ATOM      1  C   UNL     1      -0.482  10.821  21.724  0.00  0.00    +0.000 A 
ATOM      2  C   UNL     1      -0.770  11.820  22.688  0.00  0.00    +0.000 A 
ATOM      3  C   UNL     1      -1.451  13.002  22.332  0.00  0.00    +0.000 A 
ATOM      4  C   UNL     1      -1.723  13.221  20.986  0.00  0.00    +0.000 A 
ATOM      5  C   UNL     1      -1.465  12.234  20.043  0.00  0.00    +0.000 A 
ATOM      6  C   UNL     1      -0.916  10.995  20.396  0.00  0.00    +0.000 A 
ENDROOT
BRANCH   1   7
ATOM      7  S   UNL     1       0.186   9.285  22.347  0.00  0.00    +0.000 S 
ATOM      8  O   UNL     1      -0.827   8.255  22.313  0.00  0.00    +0.000 OA
ATOM      9  O   UNL     1       0.869   9.578  23.595  0.00  0.00    +0.000 OA
BRANCH   7  10
ATOM     10  N   UNL     1       1.368   8.804  21.237  0.00  0.00    +0.000 NA
ATOM     11  H   UNL     1       1.438   9.509  20.489  0.00  0.00    +0.000 HD
BRANCH  10  12
ATOM     12  C   UNL     1       1.259   7.416  20.758  0.00  0.00    +0.000 C 
BRANCH  12  16
ATOM     13  C   UNL     1       4.063   6.311  17.660  0.00  0.00    +0.000 A 
ATOM     14  C   UNL     1       3.924   5.514  18.797  0.00  0.00    +0.000 A 
ATOM     15  C   UNL     1       3.027   5.871  19.812  0.00  0.00    +0.000 A 
ATOM     16  C   UNL     1       2.275   7.048  19.705  0.00  0.00    +0.000 A 
ATOM     17  C   UNL     1       2.431   7.847  18.567  0.00  0.00    +0.000 A 
ATOM     18  C   UNL     1       3.319   7.484  17.549  0.00  0.00    +0.000 A 
BRANCH  13  20
ATOM     19  C   UNL     1       4.837   4.504  16.353  0.00  0.00    +0.000 C 
ATOM     20  O   UNL     1       4.972   5.869  16.737  0.00  0.00    +0.000 OA
ENDBRANCH  13  20
ENDBRANCH  12  16
ENDBRANCH  10  12
ENDBRANCH   7  10
ENDBRANCH   1   7
BRANCH   6  21
ATOM     21  O   UNL     1      -0.812   9.997  19.462  0.00  0.00    +0.000 OA
ATOM     22  C   UNL     1      -0.412  10.415  18.147  0.00  0.00    +0.000 C 
ENDBRANCH   6  21
BRANCH   3  23
ATOM     23  C   UNL     1      -1.971  13.984  23.356  0.00  0.00    +0.000 C 
BRANCH  23  24
ATOM     24  N   UNL     1      -3.413  14.054  23.408  0.00  0.00    +0.000 N 
ATOM     25  C   UNL     1      -4.210  13.046  23.867  0.00  0.00    +0.000 C 
ATOM     26  O   UNL     1      -3.897  11.949  24.285  0.00  0.00    +0.000 OA
ATOM     27  C   UNL     1      -5.583  13.527  23.783  0.00  0.00    +0.000 A 
ATOM     28  C   UNL     1      -6.779  12.976  24.187  0.00  0.00    +0.000 A 
ATOM     29  C   UNL     1      -7.914  13.778  24.046  0.00  0.00    +0.000 A 
ATOM     30  C   UNL     1      -7.784  15.064  23.504  0.00  0.00    +0.000 A 
ATOM     31  N   UNL     1      -6.614  15.600  23.079  0.00  0.00    +0.000 NA
ATOM     32  C   UNL     1      -5.552  14.790  23.243  0.00  0.00    +0.000 A 
ATOM     33  C   UNL     1      -4.149  15.119  22.948  0.00  0.00    +0.000 C 
ATOM     34  O   UNL     1      -3.745  16.122  22.391  0.00  0.00    +0.000 OA
ENDBRANCH  23  24
ENDBRANCH   3  23
TORSDOF 8
ENDMDL
MODEL 5
REMARK VINA RESULT:      -7.9      2.074      2.679
REMARK  Name = 
REMARK  10 active torsions:
REMARK  status: ('A' for Active; 'I' for Inactive)
REMARK    1  A    between atoms: C_1  and  O_2
REMARK    2  A    between atoms: O_2  and  C_3
REMARK    3  A    between atoms: C_6  and  C_7
REMARK    4  A    between atoms: C_7  and  N_8
REMARK    5  A    between atoms: N_8  and  S_9
REMARK    6  A    between atoms: S_9  and  C_12
REMARK    7  A    between atoms: C_14  and  C_15
REMARK    8  A    between atoms: C_15  and  N_16
REMARK    9  A    between atoms: C_29  and  O_30
REMARK   10  A    between atoms: O_30  and  C_31
REMARK                            x       y       z     vdW  Elec       q    Type
REMARK                         _______ _______ _______ _____ _____    ______ ____
ROOT
ATOM      1  C   UNL     1       1.325   8.530  19.975  0.00  0.00    +0.000 A 
ATOM      2  C   UNL     1       2.023   7.301  20.102  0.00  0.00    +0.000 A 
ATOM      3  C   UNL     1       2.883   6.842  19.083  0.00  0.00    +0.000 A 
ATOM      4  C   UNL     1       2.935   7.564  17.896  0.00  0.00    +0.000 A 
ATOM      5  C   UNL     1       2.273   8.780  17.779  0.00  0.00    +0.000 A 
ATOM      6  C   UNL     1       1.525   9.323  18.830  0.00  0.00    +0.000 A 
ENDROOT
BRANCH   1   7
ATOM      7  S   UNL     1       0.445   9.095  21.424  0.00  0.00    +0.000 S 
ATOM      8  O   UNL     1       1.377   9.624  22.394  0.00  0.00    +0.000 OA
ATOM      9  O   UNL     1      -0.477   8.044  21.816  0.00  0.00    +0.000 OA
BRANCH   7  10
ATOM     10  N   UNL     1      -0.489  10.411  20.919  0.00  0.00    +0.000 NA
ATOM     11  H   UNL     1      -0.273  10.623  19.934  0.00  0.00    +0.000 HD
BRANCH  10  12
ATOM     12  C   UNL     1      -0.470  11.582  21.812  0.00  0.00    +0.000 C 
BRANCH  12  16
ATOM     13  C   UNL     1       0.348  15.385  19.930  0.00  0.00    +0.000 A 
ATOM     14  C   UNL     1      -0.868  14.739  19.707  0.00  0.00    +0.000 A 
ATOM     15  C   UNL     1      -1.137  13.501  20.303  0.00  0.00    +0.000 A 
ATOM     16  C   UNL     1      -0.175  12.885  21.112  0.00  0.00    +0.000 A 
ATOM     17  C   UNL     1       1.048  13.534  21.320  0.00  0.00    +0.000 A 
ATOM     18  C   UNL     1       1.311  14.777  20.732  0.00  0.00    +0.000 A 
BRANCH  13  20
ATOM     19  C   UNL     1      -0.505  16.906  18.339  0.00  0.00    +0.000 C 
ATOM     20  O   UNL     1       0.504  16.586  19.292  0.00  0.00    +0.000 OA
ENDBRANCH  13  20
ENDBRANCH  12  16
ENDBRANCH  10  12
ENDBRANCH   7  10
ENDBRANCH   1   7
BRANCH   6  21
ATOM     21  O   UNL     1       1.009  10.590  18.726  0.00  0.00    +0.000 OA
ATOM     22  C   UNL     1       1.947  11.615  18.363  0.00  0.00    +0.000 C 
ENDBRANCH   6  21
BRANCH   3  23
ATOM     23  C   UNL     1       3.808   5.661  19.266  0.00  0.00    +0.000 C 
BRANCH  23  24
ATOM     24  N   UNL     1       4.551   5.321  18.075  0.00  0.00    +0.000 N 
ATOM     25  C   UNL     1       4.099   4.467  17.111  0.00  0.00    +0.000 C 
ATOM     26  O   UNL     1       3.055   3.847  17.062  0.00  0.00    +0.000 OA
ATOM     27  C   UNL     1       5.124   4.425  16.077  0.00  0.00    +0.000 A 
ATOM     28  C   UNL     1       5.165   3.808  14.846  0.00  0.00    +0.000 A 
ATOM     29  C   UNL     1       6.284   4.073  14.052  0.00  0.00    +0.000 A 
ATOM     30  C   UNL     1       7.288   4.922  14.541  0.00  0.00    +0.000 A 
ATOM     31  N   UNL     1       7.264   5.509  15.763  0.00  0.00    +0.000 NA
ATOM     32  C   UNL     1       6.164   5.226  16.484  0.00  0.00    +0.000 A 
ATOM     33  C   UNL     1       5.820   5.770  17.806  0.00  0.00    +0.000 C 
ATOM     34  O   UNL     1       6.536   6.458  18.510  0.00  0.00    +0.000 OA
ENDBRANCH  23  24
ENDBRANCH   3  23
TORSDOF 8
ENDMDL
MODEL 6
REMARK VINA RESULT:      -7.8      2.131      2.565
REMARK  Name = 
REMARK  10 active torsions:
REMARK  status: ('A' for Active; 'I' for Inactive)
REMARK    1  A    between atoms: C_1  and  O_2
REMARK    2  A    between atoms: O_2  and  C_3
REMARK    3  A    between atoms: C_6  and  C_7
REMARK    4  A    between atoms: C_7  and  N_8
REMARK    5  A    between atoms: N_8  and  S_9
REMARK    6  A    between atoms: S_9  and  C_12
REMARK    7  A    between atoms: C_14  and  C_15
REMARK    8  A    between atoms: C_15  and  N_16
REMARK    9  A    between atoms: C_29  and  O_30
REMARK   10  A    between atoms: O_30  and  C_31
REMARK                            x       y       z     vdW  Elec       q    Type
REMARK                         _______ _______ _______ _____ _____    ______ ____
ROOT
ATOM      1  C   UNL     1       1.308   8.537  20.528  0.00  0.00    +0.000 A 
ATOM      2  C   UNL     1       1.866   7.241  20.677  0.00  0.00    +0.000 A 
ATOM      3  C   UNL     1       2.485   6.585  19.593  0.00  0.00    +0.000 A 
ATOM      4  C   UNL     1       2.426   7.188  18.342  0.00  0.00    +0.000 A 
ATOM      5  C   UNL     1       1.903   8.468  18.198  0.00  0.00    +0.000 A 
ATOM      6  C   UNL     1       1.408   9.195  19.288  0.00  0.00    +0.000 A 
ENDROOT
BRANCH   1   7
ATOM      7  S   UNL     1       0.752   9.338  22.025  0.00  0.00    +0.000 S 
ATOM      8  O   UNL     1       1.790   9.284  23.030  0.00  0.00    +0.000 OA
ATOM      9  O   UNL     1      -0.571   8.823  22.334  0.00  0.00    +0.000 OA
BRANCH   7  10
ATOM     10  N   UNL     1       0.570  10.974  21.640  0.00  0.00    +0.000 NA
ATOM     11  H   UNL     1       1.386  11.498  21.988  0.00  0.00    +0.000 HD
BRANCH  10  12
ATOM     12  C   UNL     1      -0.731  11.568  21.994  0.00  0.00    +0.000 C 
BRANCH  12  16
ATOM     13  C   UNL     1      -0.388  15.679  23.281  0.00  0.00    +0.000 A 
ATOM     14  C   UNL     1      -1.319  14.831  23.881  0.00  0.00    +0.000 A 
ATOM     15  C   UNL     1      -1.446  13.501  23.463  0.00  0.00    +0.000 A 
ATOM     16  C   UNL     1      -0.653  13.014  22.417  0.00  0.00    +0.000 A 
ATOM     17  C   UNL     1       0.269  13.875  21.811  0.00  0.00    +0.000 A 
ATOM     18  C   UNL     1       0.403  15.201  22.238  0.00  0.00    +0.000 A 
BRANCH  13  20
ATOM     19  C   UNL     1      -0.558  17.084  25.170  0.00  0.00    +0.000 C 
ATOM     20  O   UNL     1      -0.356  16.958  23.766  0.00  0.00    +0.000 OA
ENDBRANCH  13  20
ENDBRANCH  12  16
ENDBRANCH  10  12
ENDBRANCH   7  10
ENDBRANCH   1   7
BRANCH   6  21
ATOM     21  O   UNL     1       1.037  10.505  19.130  0.00  0.00    +0.000 OA
ATOM     22  C   UNL     1      -0.146  10.726  18.346  0.00  0.00    +0.000 C 
ENDBRANCH   6  21
BRANCH   3  23
ATOM     23  C   UNL     1       3.281   5.311  19.758  0.00  0.00    +0.000 C 
BRANCH  23  24
ATOM     24  N   UNL     1       4.171   5.040  18.652  0.00  0.00    +0.000 N 
ATOM     25  C   UNL     1       3.780   4.452  17.484  0.00  0.00    +0.000 C 
ATOM     26  O   UNL     1       2.682   4.047  17.158  0.00  0.00    +0.000 OA
ATOM     27  C   UNL     1       4.959   4.393  16.631  0.00  0.00    +0.000 A 
ATOM     28  C   UNL     1       5.133   3.988  15.326  0.00  0.00    +0.000 A 
ATOM     29  C   UNL     1       6.406   4.171  14.780  0.00  0.00    +0.000 A 
ATOM     30  C   UNL     1       7.419   4.733  15.571  0.00  0.00    +0.000 A 
ATOM     31  N   UNL     1       7.260   5.106  16.865  0.00  0.00    +0.000 NA
ATOM     32  C   UNL     1       6.015   4.915  17.339  0.00  0.00    +0.000 A 
ATOM     33  C   UNL     1       5.521   5.289  18.672  0.00  0.00    +0.000 C 
ATOM     34  O   UNL     1       6.190   5.712  19.597  0.00  0.00    +0.000 OA
ENDBRANCH  23  24
ENDBRANCH   3  23
TORSDOF 8
ENDMDL
MODEL 7
REMARK VINA RESULT:      -7.8      1.861      2.361
REMARK  Name = 
REMARK  10 active torsions:
REMARK  status: ('A' for Active; 'I' for Inactive)
REMARK    1  A    between atoms: C_1  and  O_2
REMARK    2  A    between atoms: O_2  and  C_3
REMARK    3  A    between atoms: C_6  and  C_7
REMARK    4  A    between atoms: C_7  and  N_8
REMARK    5  A    between atoms: N_8  and  S_9
REMARK    6  A    between atoms: S_9  and  C_12
REMARK    7  A    between atoms: C_14  and  C_15
REMARK    8  A    between atoms: C_15  and  N_16
REMARK    9  A    between atoms: C_29  and  O_30
REMARK   10  A    between atoms: O_30  and  C_31
REMARK                            x       y       z     vdW  Elec       q    Type
REMARK                         _______ _______ _______ _____ _____    ______ ____
ROOT
ATOM      1  C   UNL     1       1.282   9.281  20.098  0.00  0.00    +0.000 A 
ATOM      2  C   UNL     1       1.698   7.964  20.423  0.00  0.00    +0.000 A 
ATOM      3  C   UNL     1       2.278   7.122  19.452  0.00  0.00    +0.000 A 
ATOM      4  C   UNL     1       2.318   7.570  18.136  0.00  0.00    +0.000 A 
ATOM      5  C   UNL     1       1.935   8.868  17.820  0.00  0.00    +0.000 A 
ATOM      6  C   UNL     1       1.486   9.768  18.793  0.00  0.00    +0.000 A 
ENDROOT
BRANCH   1   7
ATOM      7  S   UNL     1       0.768  10.311  21.465  0.00  0.00    +0.000 S 
ATOM      8  O   UNL     1       1.448  11.585  21.407  0.00  0.00    +0.000 OA
ATOM      9  O   UNL     1       0.850   9.509  22.674  0.00  0.00    +0.000 OA
BRANCH   7  10
ATOM     10  N   UNL     1      -0.868  10.651  21.205  0.00  0.00    +0.000 NA
ATOM     11  H   UNL     1      -1.329   9.819  20.810  0.00  0.00    +0.000 HD
BRANCH  10  12
ATOM     12  C   UNL     1      -1.148  11.903  20.484  0.00  0.00    +0.000 C 
BRANCH  12  16
ATOM     13  C   UNL     1      -4.605  11.852  17.891  0.00  0.00    +0.000 A 
ATOM     14  C   UNL     1      -4.706  12.365  19.184  0.00  0.00    +0.000 A 
ATOM     15  C   UNL     1      -3.594  12.375  20.036  0.00  0.00    +0.000 A 
ATOM     16  C   UNL     1      -2.372  11.845  19.604  0.00  0.00    +0.000 A 
ATOM     17  C   UNL     1      -2.284  11.320  18.309  0.00  0.00    +0.000 A 
ATOM     18  C   UNL     1      -3.393  11.322  17.455  0.00  0.00    +0.000 A 
BRANCH  13  20
ATOM     19  C   UNL     1      -6.457  13.127  17.172  0.00  0.00    +0.000 C 
ATOM     20  O   UNL     1      -5.755  11.887  17.150  0.00  0.00    +0.000 OA
ENDBRANCH  13  20
ENDBRANCH  12  16
ENDBRANCH  10  12
ENDBRANCH   7  10
ENDBRANCH   1   7
BRANCH   6  21
ATOM     21  O   UNL     1       1.257  11.080  18.465  0.00  0.00    +0.000 OA
ATOM     22  C   UNL     1       2.402  11.815  18.007  0.00  0.00    +0.000 C 
ENDBRANCH   6  21
BRANCH   3  23
ATOM     23  C   UNL     1       2.932   5.805  19.800  0.00  0.00    +0.000 C 
BRANCH  23  24
ATOM     24  N   UNL     1       3.829   5.318  18.777  0.00  0.00    +0.000 N 
ATOM     25  C   UNL     1       3.420   4.664  17.651  0.00  0.00    +0.000 C 
ATOM     26  O   UNL     1       2.295   4.362  17.304  0.00  0.00    +0.000 OA
ATOM     27  C   UNL     1       4.618   4.379  16.875  0.00  0.00    +0.000 A 
ATOM     28  C   UNL     1       4.797   3.824  15.627  0.00  0.00    +0.000 A 
ATOM     29  C   UNL     1       6.106   3.799  15.137  0.00  0.00    +0.000 A 
ATOM     30  C   UNL     1       7.145   4.314  15.925  0.00  0.00    +0.000 A 
ATOM     31  N   UNL     1       6.977   4.834  17.166  0.00  0.00    +0.000 NA
ATOM     32  C   UNL     1       5.699   4.841  17.587  0.00  0.00    +0.000 A 
ATOM     33  C   UNL     1       5.197   5.407  18.848  0.00  0.00    +0.000 C 
ATOM     34  O   UNL     1       5.872   5.839  19.763  0.00  0.00    +0.000 OA
ENDBRANCH  23  24
ENDBRANCH   3  23
TORSDOF 8
ENDMDL
MODEL 8
REMARK VINA RESULT:      -7.8      2.463      3.401
REMARK  Name = 
REMARK  10 active torsions:
REMARK  status: ('A' for Active; 'I' for Inactive)
REMARK    1  A    between atoms: C_1  and  O_2
REMARK    2  A    between atoms: O_2  and  C_3
REMARK    3  A    between atoms: C_6  and  C_7
REMARK    4  A    between atoms: C_7  and  N_8
REMARK    5  A    between atoms: N_8  and  S_9
REMARK    6  A    between atoms: S_9  and  C_12
REMARK    7  A    between atoms: C_14  and  C_15
REMARK    8  A    between atoms: C_15  and  N_16
REMARK    9  A    between atoms: C_29  and  O_30
REMARK   10  A    between atoms: O_30  and  C_31
REMARK                            x       y       z     vdW  Elec       q    Type
REMARK                         _______ _______ _______ _____ _____    ______ ____
ROOT
ATOM      1  C   UNL     1       2.085   7.852  19.301  0.00  0.00    +0.000 A 
ATOM      2  C   UNL     1       2.805   6.668  18.997  0.00  0.00    +0.000 A 
ATOM      3  C   UNL     1       2.745   5.541  19.842  0.00  0.00    +0.000 A 
ATOM      4  C   UNL     1       2.062   5.662  21.047  0.00  0.00    +0.000 A 
ATOM      5  C   UNL     1       1.336   6.810  21.336  0.00  0.00    +0.000 A 
ATOM      6  C   UNL     1       1.268   7.889  20.446  0.00  0.00    +0.000 A 
ENDROOT
BRANCH   1   7
ATOM      7  S   UNL     1       2.074   9.119  18.042  0.00  0.00    +0.000 S 
ATOM      8  O   UNL     1       2.683   8.619  16.830  0.00  0.00    +0.000 OA
ATOM      9  O   UNL     1       2.577  10.342  18.644  0.00  0.00    +0.000 OA
BRANCH   7  10
ATOM     10  N   UNL     1       0.448   9.387  17.662  0.00  0.00    +0.000 NA
ATOM     11  H   UNL     1       0.314   9.277  16.646  0.00  0.00    +0.000 HD
BRANCH  10  12
ATOM     12  C   UNL     1      -0.141  10.613  18.224  0.00  0.00    +0.000 C 
BRANCH  12  16
ATOM     13  C   UNL     1      -4.379  11.054  17.500  0.00  0.00    +0.000 A 
ATOM     14  C   UNL     1      -3.775  11.727  18.562  0.00  0.00    +0.000 A 
ATOM     15  C   UNL     1      -2.405  11.581  18.811  0.00  0.00    +0.000 A 
ATOM     16  C   UNL     1      -1.630  10.735  18.009  0.00  0.00    +0.000 A 
ATOM     17  C   UNL     1      -2.246  10.053  16.954  0.00  0.00    +0.000 A 
ATOM     18  C   UNL     1      -3.613  10.209  16.699  0.00  0.00    +0.000 A 
BRANCH  13  20
ATOM     19  C   UNL     1      -6.526  10.879  18.465  0.00  0.00    +0.000 C 
ATOM     20  O   UNL     1      -5.723  11.266  17.353  0.00  0.00    +0.000 OA
ENDBRANCH  13  20
ENDBRANCH  12  16
ENDBRANCH  10  12
ENDBRANCH   7  10
ENDBRANCH   1   7
BRANCH   6  21
ATOM     21  O   UNL     1       0.425   8.941  20.702  0.00  0.00    +0.000 OA
ATOM     22  C   UNL     1       0.521   9.508  22.017  0.00  0.00    +0.000 C 
ENDBRANCH   6  21
BRANCH   3  23
ATOM     23  C   UNL     1       3.312   4.196  19.449  0.00  0.00    +0.000 C 
BRANCH  23  24
ATOM     24  N   UNL     1       4.215   4.258  18.323  0.00  0.00    +0.000 N 
ATOM     25  C   UNL     1       3.859   3.953  17.041  0.00  0.00    +0.000 C 
ATOM     26  O   UNL     1       2.787   3.577  16.610  0.00  0.00    +0.000 OA
ATOM     27  C   UNL     1       5.038   4.174  16.216  0.00  0.00    +0.000 A 
ATOM     28  C   UNL     1       5.235   4.113  14.854  0.00  0.00    +0.000 A 
ATOM     29  C   UNL     1       6.494   4.499  14.387  0.00  0.00    +0.000 A 
ATOM     30  C   UNL     1       7.472   4.908  15.305  0.00  0.00    +0.000 A 
ATOM     31  N   UNL     1       7.292   4.942  16.648  0.00  0.00    +0.000 NA
ATOM     32  C   UNL     1       6.062   4.567  17.044  0.00  0.00    +0.000 A 
ATOM     33  C   UNL     1       5.548   4.573  18.422  0.00  0.00    +0.000 C 
ATOM     34  O   UNL     1       6.191   4.794  19.431  0.00  0.00    +0.000 OA
ENDBRANCH  23  24
ENDBRANCH   3  23
TORSDOF 8
ENDMDL
MODEL 9
REMARK VINA RESULT:      -7.8      2.305     10.785
REMARK  Name = 
REMARK  10 active torsions:
REMARK  status: ('A' for Active; 'I' for Inactive)
REMARK    1  A    between atoms: C_1  and  O_2
REMARK    2  A    between atoms: O_2  and  C_3
REMARK    3  A    between atoms: C_6  and  C_7
REMARK    4  A    between atoms: C_7  and  N_8
REMARK    5  A    between atoms: N_8  and  S_9
REMARK    6  A    between atoms: S_9  and  C_12
REMARK    7  A    between atoms: C_14  and  C_15
REMARK    8  A    between atoms: C_15  and  N_16
REMARK    9  A    between atoms: C_29  and  O_30
REMARK   10  A    between atoms: O_30  and  C_31
REMARK                            x       y       z     vdW  Elec       q    Type
REMARK                         _______ _______ _______ _____ _____    ______ ____
ROOT
ATOM      1  C   UNL     1       2.177   7.231  19.184  0.00  0.00    +0.000 A 
ATOM      2  C   UNL     1       1.887   8.557  18.776  0.00  0.00    +0.000 A 
ATOM      3  C   UNL     1       1.195   9.447  19.623  0.00  0.00    +0.000 A 
ATOM      4  C   UNL     1       0.693   8.952  20.822  0.00  0.00    +0.000 A 
ATOM      5  C   UNL     1       0.997   7.661  21.236  0.00  0.00    +0.000 A 
ATOM      6  C   UNL     1       1.801   6.806  20.473  0.00  0.00    +0.000 A 
ENDROOT
BRANCH   1   7
ATOM      7  S   UNL     1       3.245   6.285  18.109  0.00  0.00    +0.000 S 
ATOM      8  O   UNL     1       3.901   7.162  17.167  0.00  0.00    +0.000 OA
ATOM      9  O   UNL     1       2.482   5.150  17.619  0.00  0.00    +0.000 OA
BRANCH   7  10
ATOM     10  N   UNL     1       4.473   5.668  19.094  0.00  0.00    +0.000 NA
ATOM     11  H   UNL     1       5.159   6.412  19.288  0.00  0.00    +0.000 HD
BRANCH  10  12
ATOM     12  C   UNL     1       5.066   4.396  18.647  0.00  0.00    +0.000 C 
BRANCH  12  16
ATOM     13  C   UNL     1       6.762   4.690  14.683  0.00  0.00    +0.000 A 
ATOM     14  C   UNL     1       5.646   3.885  14.910  0.00  0.00    +0.000 A 
ATOM     15  C   UNL     1       5.096   3.774  16.193  0.00  0.00    +0.000 A 
ATOM     16  C   UNL     1       5.680   4.453  17.270  0.00  0.00    +0.000 A 
ATOM     17  C   UNL     1       6.808   5.248  17.035  0.00  0.00    +0.000 A 
ATOM     18  C   UNL     1       7.349   5.367  15.750  0.00  0.00    +0.000 A 
BRANCH  13  20
ATOM     19  C   UNL     1       6.635   3.755  12.519  0.00  0.00    +0.000 C 
ATOM     20  O   UNL     1       7.217   4.718  13.392  0.00  0.00    +0.000 OA
ENDBRANCH  13  20
ENDBRANCH  12  16
ENDBRANCH  10  12
ENDBRANCH   7  10
ENDBRANCH   1   7
BRANCH   6  21
ATOM     21  O   UNL     1       2.198   5.596  20.982  0.00  0.00    +0.000 OA
ATOM     22  C   UNL     1       1.309   4.496  20.733  0.00  0.00    +0.000 C 
ENDBRANCH   6  21
BRANCH   3  23
ATOM     23  C   UNL     1       1.059  10.921  19.322  0.00  0.00    +0.000 C 
BRANCH  23  24
ATOM     24  N   UNL     1      -0.188  11.490  19.779  0.00  0.00    +0.000 N 
ATOM     25  C   UNL     1      -0.326  12.195  20.940  0.00  0.00    +0.000 C 
ATOM     26  O   UNL     1       0.510  12.461  21.781  0.00  0.00    +0.000 OA
ATOM     27  C   UNL     1      -1.718  12.617  21.010  0.00  0.00    +0.000 A 
ATOM     28  C   UNL     1      -2.393  13.420  21.903  0.00  0.00    +0.000 A 
ATOM     29  C   UNL     1      -3.727  13.706  21.600  0.00  0.00    +0.000 A 
ATOM     30  C   UNL     1      -4.298  13.167  20.438  0.00  0.00    +0.000 A 
ATOM     31  N   UNL     1      -3.646  12.354  19.572  0.00  0.00    +0.000 NA
ATOM     32  C   UNL     1      -2.365  12.115  19.907  0.00  0.00    +0.000 A 
ATOM     33  C   UNL     1      -1.388  11.338  19.129  0.00  0.00    +0.000 C 
ATOM     34  O   UNL     1      -1.619  10.683  18.129  0.00  0.00    +0.000 OA
ENDBRANCH  23  24
ENDBRANCH   3  23
TORSDOF 8
ENDMDL
