MODEL 1
REMARK VINA RESULT:      -8.0      0.000      0.000
REMARK  Name = 
REMARK  3 active torsions:
REMARK  status: ('A' for Active; 'I' for Inactive)
REMARK    1  A    between atoms: C_1  and  C_2
REMARK    2  A    between atoms: C_9  and  C_11
REMARK    3  A    between atoms: C_11  and  N_12
REMARK                            x       y       z     vdW  Elec       q    Type
REMARK                         _______ _______ _______ _____ _____    ______ ____
ROOT
ATOM      1  C   UNL     1       5.503   5.500  18.052  0.00  0.00    +0.000 C 
ENDROOT
BRANCH   1  10
ATOM      2  C   UNL     1       2.530   6.172  17.882  0.00  0.00    +0.000 C 
ATOM      3  C   UNL     1       2.411   4.920  18.736  0.00  0.00    +0.000 C 
ATOM      4  C   UNL     1       1.410   3.930  18.070  0.00  0.00    +0.000 C 
ATOM      5  O   UNL     1       0.594   4.261  17.209  0.00  0.00    +0.000 OA
ATOM      6  N   UNL     1       1.302   2.683  18.640  0.00  0.00    +0.000 N 
ATOM      7  C   UNL     1       2.447   2.056  19.270  0.00  0.00    +0.000 C 
ATOM      8  C   UNL     1       3.287   3.052  20.068  0.00  0.00    +0.000 C 
ATOM      9  N   UNL     1       3.626   4.217  19.230  0.00  0.00    +0.000 N 
ATOM     10  C   UNL     1       4.973   4.385  18.947  0.00  0.00    +0.000 C 
ATOM     11  O   UNL     1       5.817   3.618  19.440  0.00  0.00    +0.000 OA
ATOM     12  H   UNL     1       0.625   2.090  18.175  0.00  0.00    +0.000 HD
ENDBRANCH   1  10
BRANCH   1  13
ATOM     13  N   UNL     1       5.947   5.080  16.738  0.00  0.00    +0.000 N 
ATOM     14  C   UNL     1       6.902   5.718  16.005  0.00  0.00    +0.000 C 
ATOM     15  O   UNL     1       7.654   6.625  16.308  0.00  0.00    +0.000 OA
ATOM     16  C   UNL     1       6.900   5.104  14.684  0.00  0.00    +0.000 A 
ATOM     17  C   UNL     1       7.746   5.305  13.614  0.00  0.00    +0.000 A 
ATOM     18  C   UNL     1       7.491   4.573  12.454  0.00  0.00    +0.000 A 
ATOM     19  C   UNL     1       6.399   3.681  12.391  0.00  0.00    +0.000 A 
ATOM     20  C   UNL     1       5.554   3.496  13.491  0.00  0.00    +0.000 A 
ATOM     21  C   UNL     1       5.841   4.215  14.636  0.00  0.00    +0.000 A 
ATOM     22  C   UNL     1       5.198   4.240  15.948  0.00  0.00    +0.000 C 
ATOM     23  O   UNL     1       4.176   3.641  16.227  0.00  0.00    +0.000 OA
ENDBRANCH   1  13
TORSDOF 2
ENDMDL
MODEL 2
REMARK VINA RESULT:      -8.0      0.648      1.969
REMARK  Name = 
REMARK  3 active torsions:
REMARK  status: ('A' for Active; 'I' for Inactive)
REMARK    1  A    between atoms: C_1  and  C_2
REMARK    2  A    between atoms: C_9  and  C_11
REMARK    3  A    between atoms: C_11  and  N_12
REMARK                            x       y       z     vdW  Elec       q    Type
REMARK                         _______ _______ _______ _____ _____    ______ ____
ROOT
ATOM      1  C   UNL     1       5.282   5.725  17.773  0.00  0.00    +0.000 C 
ENDROOT
BRANCH   1  10
ATOM      2  C   UNL     1       2.260   5.586  18.181  0.00  0.00    +0.000 C 
ATOM      3  C   UNL     1       2.637   4.360  18.999  0.00  0.00    +0.000 C 
ATOM      4  C   UNL     1       1.823   3.131  18.496  0.00  0.00    +0.000 C 
ATOM      5  O   UNL     1       0.802   3.221  17.814  0.00  0.00    +0.000 OA
ATOM      6  N   UNL     1       2.156   1.909  19.034  0.00  0.00    +0.000 N 
ATOM      7  C   UNL     1       3.522   1.617  19.418  0.00  0.00    +0.000 C 
ATOM      8  C   UNL     1       4.206   2.813  20.081  0.00  0.00    +0.000 C 
ATOM      9  N   UNL     1       4.064   4.012  19.234  0.00  0.00    +0.000 N 
ATOM     10  C   UNL     1       5.242   4.525  18.712  0.00  0.00    +0.000 C 
ATOM     11  O   UNL     1       6.334   4.017  19.013  0.00  0.00    +0.000 OA
ATOM     12  H   UNL     1       1.583   1.151  18.683  0.00  0.00    +0.000 HD
ENDBRANCH   1  10
BRANCH   1  13
ATOM     13  N   UNL     1       5.606   5.421  16.394  0.00  0.00    +0.000 N 
ATOM     14  C   UNL     1       5.024   4.428  15.664  0.00  0.00    +0.000 C 
ATOM     15  O   UNL     1       4.071   3.716  15.921  0.00  0.00    +0.000 OA
ATOM     16  C   UNL     1       5.768   4.329  14.416  0.00  0.00    +0.000 A 
ATOM     17  C   UNL     1       5.519   3.564  13.296  0.00  0.00    +0.000 A 
ATOM     18  C   UNL     1       6.425   3.668  12.240  0.00  0.00    +0.000 A 
ATOM     19  C   UNL     1       7.552   4.512  12.338  0.00  0.00    +0.000 A 
ATOM     20  C   UNL     1       7.783   5.277  13.488  0.00  0.00    +0.000 A 
ATOM     21  C   UNL     1       6.859   5.175  14.510  0.00  0.00    +0.000 A 
ATOM     22  C   UNL     1       6.778   5.840  15.809  0.00  0.00    +0.000 C 
ATOM     23  O   UNL     1       7.628   6.586  16.256  0.00  0.00    +0.000 OA
ENDBRANCH   1  13
TORSDOF 2
ENDMDL
MODEL 3
REMARK VINA RESULT:      -7.8      1.552      2.293
REMARK  Name = 
REMARK  3 active torsions:
REMARK  status: ('A' for Active; 'I' for Inactive)
REMARK    1  A    between atoms: C_1  and  C_2
REMARK    2  A    between atoms: C_9  and  C_11
REMARK    3  A    between atoms: C_11  and  N_12
REMARK                            x       y       z     vdW  Elec       q    Type
REMARK                         _______ _______ _______ _____ _____    ______ ____
ROOT
ATOM      1  C   UNL     1       5.779   4.717  18.188  0.00  0.00    +0.000 C 
ENDROOT
BRANCH   1  10
ATOM      2  C   UNL     1       4.377   2.318  19.452  0.00  0.00    +0.000 C 
ATOM      3  C   UNL     1       3.223   3.304  19.541  0.00  0.00    +0.000 C 
ATOM      4  C   UNL     1       2.708   3.369  21.010  0.00  0.00    +0.000 C 
ATOM      5  O   UNL     1       2.950   2.508  21.856  0.00  0.00    +0.000 OA
ATOM      6  N   UNL     1       1.761   4.326  21.291  0.00  0.00    +0.000 N 
ATOM      7  C   UNL     1       1.763   5.596  20.592  0.00  0.00    +0.000 C 
ATOM      8  C   UNL     1       2.092   5.440  19.108  0.00  0.00    +0.000 C 
ATOM      9  N   UNL     1       3.333   4.661  18.941  0.00  0.00    +0.000 N 
ATOM     10  C   UNL     1       4.404   5.344  18.384  0.00  0.00    +0.000 C 
ATOM     11  O   UNL     1       4.268   6.518  18.002  0.00  0.00    +0.000 OA
ATOM     12  H   UNL     1       1.452   4.309  22.255  0.00  0.00    +0.000 HD
ENDBRANCH   1  10
BRANCH   1  13
ATOM     13  N   UNL     1       6.192   4.549  16.808  0.00  0.00    +0.000 N 
ATOM     14  C   UNL     1       7.014   5.406  16.138  0.00  0.00    +0.000 C 
ATOM     15  O   UNL     1       7.663   6.352  16.541  0.00  0.00    +0.000 OA
ATOM     16  C   UNL     1       7.009   4.990  14.743  0.00  0.00    +0.000 A 
ATOM     17  C   UNL     1       7.756   5.451  13.680  0.00  0.00    +0.000 A 
ATOM     18  C   UNL     1       7.524   4.863  12.435  0.00  0.00    +0.000 A 
ATOM     19  C   UNL     1       6.551   3.852  12.287  0.00  0.00    +0.000 A 
ATOM     20  C   UNL     1       5.804   3.403  13.382  0.00  0.00    +0.000 A 
ATOM     21  C   UNL     1       6.068   3.984  14.608  0.00  0.00    +0.000 A 
ATOM     22  C   UNL     1       5.507   3.738  15.935  0.00  0.00    +0.000 C 
ATOM     23  O   UNL     1       4.588   2.976  16.165  0.00  0.00    +0.000 OA
ENDBRANCH   1  13
TORSDOF 2
ENDMDL
MODEL 4
REMARK VINA RESULT:      -7.8      1.660      2.475
REMARK  Name = 
REMARK  3 active torsions:
REMARK  status: ('A' for Active; 'I' for Inactive)
REMARK    1  A    between atoms: C_1  and  C_2
REMARK    2  A    between atoms: C_9  and  C_11
REMARK    3  A    between atoms: C_11  and  N_12
REMARK                            x       y       z     vdW  Elec       q    Type
REMARK                         _______ _______ _______ _____ _____    ______ ____
ROOT
ATOM      1  C   UNL     1       5.666   5.130  17.872  0.00  0.00    +0.000 C 
ENDROOT
BRANCH   1  10
ATOM      2  C   UNL     1       3.619   3.362  19.288  0.00  0.00    +0.000 C 
ATOM      3  C   UNL     1       2.805   4.647  19.269  0.00  0.00    +0.000 C 
ATOM      4  C   UNL     1       2.331   4.982  20.714  0.00  0.00    +0.000 C 
ATOM      5  O   UNL     1       2.309   4.162  21.632  0.00  0.00    +0.000 OA
ATOM      6  N   UNL     1       1.708   6.195  20.893  0.00  0.00    +0.000 N 
ATOM      7  C   UNL     1       2.084   7.345  20.095  0.00  0.00    +0.000 C 
ATOM      8  C   UNL     1       2.353   6.976  18.637  0.00  0.00    +0.000 C 
ATOM      9  N   UNL     1       3.311   5.857  18.565  0.00  0.00    +0.000 N 
ATOM     10  C   UNL     1       4.535   6.146  17.982  0.00  0.00    +0.000 C 
ATOM     11  O   UNL     1       4.751   7.273  17.505  0.00  0.00    +0.000 OA
ATOM     12  H   UNL     1       1.406   6.351  21.848  0.00  0.00    +0.000 HD
ENDBRANCH   1  10
BRANCH   1  13
ATOM     13  N   UNL     1       6.064   4.792  16.520  0.00  0.00    +0.000 N 
ATOM     14  C   UNL     1       7.000   5.470  15.798  0.00  0.00    +0.000 C 
ATOM     15  O   UNL     1       7.768   6.352  16.134  0.00  0.00    +0.000 OA
ATOM     16  C   UNL     1       6.951   4.942  14.442  0.00  0.00    +0.000 A 
ATOM     17  C   UNL     1       7.764   5.206  13.360  0.00  0.00    +0.000 A 
ATOM     18  C   UNL     1       7.466   4.551  12.164  0.00  0.00    +0.000 A 
ATOM     19  C   UNL     1       6.366   3.671  12.081  0.00  0.00    +0.000 A 
ATOM     20  C   UNL     1       5.555   3.421  13.194  0.00  0.00    +0.000 A 
ATOM     21  C   UNL     1       5.885   4.064  14.372  0.00  0.00    +0.000 A 
ATOM     22  C   UNL     1       5.284   4.009  15.703  0.00  0.00    +0.000 C 
ATOM     23  O   UNL     1       4.267   3.399  15.977  0.00  0.00    +0.000 OA
ENDBRANCH   1  13
TORSDOF 2
ENDMDL
MODEL 5
REMARK VINA RESULT:      -7.5      2.567      4.195
REMARK  Name = 
REMARK  3 active torsions:
REMARK  status: ('A' for Active; 'I' for Inactive)
REMARK    1  A    between atoms: C_1  and  C_2
REMARK    2  A    between atoms: C_9  and  C_11
REMARK    3  A    between atoms: C_11  and  N_12
REMARK                            x       y       z     vdW  Elec       q    Type
REMARK                         _______ _______ _______ _____ _____    ______ ____
ROOT
ATOM      1  C   UNL     1       3.849   4.120  17.069  0.00  0.00    +0.000 C 
ENDROOT
BRANCH   1  10
ATOM      2  C   UNL     1       3.982   1.617  18.813  0.00  0.00    +0.000 C 
ATOM      3  C   UNL     1       2.814   2.296  19.513  0.00  0.00    +0.000 C 
ATOM      4  C   UNL     1       3.115   2.406  21.037  0.00  0.00    +0.000 C 
ATOM      5  O   UNL     1       3.973   1.736  21.613  0.00  0.00    +0.000 OA
ATOM      6  N   UNL     1       2.223   3.131  21.792  0.00  0.00    +0.000 N 
ATOM      7  C   UNL     1       1.531   4.272  21.227  0.00  0.00    +0.000 C 
ATOM      8  C   UNL     1       1.094   4.027  19.783  0.00  0.00    +0.000 C 
ATOM      9  N   UNL     1       2.237   3.560  18.978  0.00  0.00    +0.000 N 
ATOM     10  C   UNL     1       2.651   4.412  17.965  0.00  0.00    +0.000 C 
ATOM     11  O   UNL     1       2.031   5.464  17.740  0.00  0.00    +0.000 OA
ATOM     12  H   UNL     1       2.460   3.153  22.777  0.00  0.00    +0.000 HD
ENDBRANCH   1  10
BRANCH   1  13
ATOM     13  N   UNL     1       5.025   4.926  17.327  0.00  0.00    +0.000 N 
ATOM     14  C   UNL     1       5.835   4.787  18.414  0.00  0.00    +0.000 C 
ATOM     15  O   UNL     1       5.853   3.932  19.279  0.00  0.00    +0.000 OA
ATOM     16  C   UNL     1       6.765   5.908  18.394  0.00  0.00    +0.000 A 
ATOM     17  C   UNL     1       7.851   6.170  19.203  0.00  0.00    +0.000 A 
ATOM     18  C   UNL     1       8.561   7.346  18.953  0.00  0.00    +0.000 A 
ATOM     19  C   UNL     1       8.160   8.224  17.924  0.00  0.00    +0.000 A 
ATOM     20  C   UNL     1       7.052   7.935  17.118  0.00  0.00    +0.000 A 
ATOM     21  C   UNL     1       6.380   6.754  17.370  0.00  0.00    +0.000 A 
ATOM     22  C   UNL     1       5.226   6.141  16.716  0.00  0.00    +0.000 C 
ATOM     23  O   UNL     1       4.579   6.663  15.827  0.00  0.00    +0.000 OA
ENDBRANCH   1  13
TORSDOF 2
ENDMDL
MODEL 6
REMARK VINA RESULT:      -7.4      1.514      2.961
REMARK  Name = 
REMARK  3 active torsions:
REMARK  status: ('A' for Active; 'I' for Inactive)
REMARK    1  A    between atoms: C_1  and  C_2
REMARK    2  A    between atoms: C_9  and  C_11
REMARK    3  A    between atoms: C_11  and  N_12
REMARK                            x       y       z     vdW  Elec       q    Type
REMARK                         _______ _______ _______ _____ _____    ______ ____
ROOT
ATOM      1  C   UNL     1       5.448   5.066  18.057  0.00  0.00    +0.000 C 
ENDROOT
BRANCH   1  10
ATOM      2  C   UNL     1       4.417   2.454  19.256  0.00  0.00    +0.000 C 
ATOM      3  C   UNL     1       3.182   3.303  19.514  0.00  0.00    +0.000 C 
ATOM      4  C   UNL     1       2.800   3.217  21.022  0.00  0.00    +0.000 C 
ATOM      5  O   UNL     1       3.204   2.335  21.779  0.00  0.00    +0.000 OA
ATOM      6  N   UNL     1       1.791   4.048  21.451  0.00  0.00    +0.000 N 
ATOM      7  C   UNL     1       1.601   5.353  20.850  0.00  0.00    +0.000 C 
ATOM      8  C   UNL     1       1.806   5.329  19.336  0.00  0.00    +0.000 C 
ATOM      9  N   UNL     1       3.099   4.700  19.009  0.00  0.00    +0.000 N 
ATOM     10  C   UNL     1       4.040   5.528  18.414  0.00  0.00    +0.000 C 
ATOM     11  O   UNL     1       3.752   6.703  18.133  0.00  0.00    +0.000 OA
ATOM     12  H   UNL     1       1.574   3.936  22.435  0.00  0.00    +0.000 HD
ENDBRANCH   1  10
BRANCH   1  13
ATOM     13  N   UNL     1       5.722   4.957  16.638  0.00  0.00    +0.000 N 
ATOM     14  C   UNL     1       5.163   4.028  15.812  0.00  0.00    +0.000 C 
ATOM     15  O   UNL     1       4.267   3.231  16.014  0.00  0.00    +0.000 OA
ATOM     16  C   UNL     1       5.851   4.133  14.533  0.00  0.00    +0.000 A 
ATOM     17  C   UNL     1       5.592   3.500  13.336  0.00  0.00    +0.000 A 
ATOM     18  C   UNL     1       6.440   3.792  12.265  0.00  0.00    +0.000 A 
ATOM     19  C   UNL     1       7.519   4.687  12.425  0.00  0.00    +0.000 A 
ATOM     20  C   UNL     1       7.761   5.315  13.652  0.00  0.00    +0.000 A 
ATOM     21  C   UNL     1       6.894   5.028  14.690  0.00  0.00    +0.000 A 
ATOM     22  C   UNL     1       6.838   5.519  16.065  0.00  0.00    +0.000 C 
ATOM     23  O   UNL     1       7.664   6.256  16.569  0.00  0.00    +0.000 OA
ENDBRANCH   1  13
TORSDOF 2
ENDMDL
MODEL 7
REMARK VINA RESULT:      -7.1      3.303      7.173
REMARK  Name = 
REMARK  3 active torsions:
REMARK  status: ('A' for Active; 'I' for Inactive)
REMARK    1  A    between atoms: C_1  and  C_2
REMARK    2  A    between atoms: C_9  and  C_11
REMARK    3  A    between atoms: C_11  and  N_12
REMARK                            x       y       z     vdW  Elec       q    Type
REMARK                         _______ _______ _______ _____ _____    ______ ____
ROOT
ATOM      1  C   UNL     1       2.897   5.913  18.197  0.00  0.00    +0.000 C 
ENDROOT
BRANCH   1  10
ATOM      2  C   UNL     1       4.965   6.900  16.180  0.00  0.00    +0.000 C 
ATOM      3  C   UNL     1       5.911   6.127  17.085  0.00  0.00    +0.000 C 
ATOM      4  C   UNL     1       7.076   7.058  17.534  0.00  0.00    +0.000 C 
ATOM      5  O   UNL     1       7.369   8.108  16.963  0.00  0.00    +0.000 OA
ATOM      6  N   UNL     1       7.940   6.554  18.478  0.00  0.00    +0.000 N 
ATOM      7  C   UNL     1       7.470   5.636  19.497  0.00  0.00    +0.000 C 
ATOM      8  C   UNL     1       6.467   4.624  18.945  0.00  0.00    +0.000 C 
ATOM      9  N   UNL     1       5.388   5.321  18.222  0.00  0.00    +0.000 N 
ATOM     10  C   UNL     1       4.121   5.214  18.777  0.00  0.00    +0.000 C 
ATOM     11  O   UNL     1       3.937   4.514  19.786  0.00  0.00    +0.000 OA
ATOM     12  H   UNL     1       8.687   7.196  18.718  0.00  0.00    +0.000 HD
ENDBRANCH   1  10
BRANCH   1  13
ATOM     13  N   UNL     1       2.408   7.042  18.964  0.00  0.00    +0.000 N 
ATOM     14  C   UNL     1       1.799   6.945  20.179  0.00  0.00    +0.000 C 
ATOM     15  O   UNL     1       1.663   5.989  20.919  0.00  0.00    +0.000 OA
ATOM     16  C   UNL     1       1.287   8.270  20.501  0.00  0.00    +0.000 A 
ATOM     17  C   UNL     1       0.694   8.732  21.657  0.00  0.00    +0.000 A 
ATOM     18  C   UNL     1       0.287  10.067  21.674  0.00  0.00    +0.000 A 
ATOM     19  C   UNL     1       0.468  10.889  20.542  0.00  0.00    +0.000 A 
ATOM     20  C   UNL     1       1.072  10.395  19.380  0.00  0.00    +0.000 A 
ATOM     21  C   UNL     1       1.488   9.077  19.396  0.00  0.00    +0.000 A 
ATOM     22  C   UNL     1       2.166   8.266  18.387  0.00  0.00    +0.000 C 
ATOM     23  O   UNL     1       2.416   8.638  17.256  0.00  0.00    +0.000 OA
ENDBRANCH   1  13
TORSDOF 2
ENDMDL
MODEL 8
REMARK VINA RESULT:      -7.1      3.549      6.904
REMARK  Name = 
REMARK  3 active torsions:
REMARK  status: ('A' for Active; 'I' for Inactive)
REMARK    1  A    between atoms: C_1  and  C_2
REMARK    2  A    between atoms: C_9  and  C_11
REMARK    3  A    between atoms: C_11  and  N_12
REMARK                            x       y       z     vdW  Elec       q    Type
REMARK                         _______ _______ _______ _____ _____    ______ ____
ROOT
ATOM      1  C   UNL     1       3.270   6.568  18.280  0.00  0.00    +0.000 C 
ENDROOT
BRANCH   1  10
ATOM      2  C   UNL     1       5.513   4.562  18.794  0.00  0.00    +0.000 C 
ATOM      3  C   UNL     1       4.426   3.567  18.420  0.00  0.00    +0.000 C 
ATOM      4  C   UNL     1       4.293   2.497  19.544  0.00  0.00    +0.000 C 
ATOM      5  O   UNL     1       5.159   2.290  20.395  0.00  0.00    +0.000 OA
ATOM      6  N   UNL     1       3.250   1.608  19.430  0.00  0.00    +0.000 N 
ATOM      7  C   UNL     1       1.996   2.012  18.825  0.00  0.00    +0.000 C 
ATOM      8  C   UNL     1       2.205   2.911  17.607  0.00  0.00    +0.000 C 
ATOM      9  N   UNL     1       3.094   4.036  17.951  0.00  0.00    +0.000 N 
ATOM     10  C   UNL     1       2.519   5.297  17.904  0.00  0.00    +0.000 C 
ATOM     11  O   UNL     1       1.343   5.435  17.527  0.00  0.00    +0.000 OA
ATOM     12  H   UNL     1       3.224   0.927  20.179  0.00  0.00    +0.000 HD
ENDBRANCH   1  10
BRANCH   1  13
ATOM     13  N   UNL     1       2.507   7.533  19.047  0.00  0.00    +0.000 N 
ATOM     14  C   UNL     1       1.906   7.269  20.241  0.00  0.00    +0.000 C 
ATOM     15  O   UNL     1       1.980   6.292  20.962  0.00  0.00    +0.000 OA
ATOM     16  C   UNL     1       1.086   8.428  20.566  0.00  0.00    +0.000 A 
ATOM     17  C   UNL     1       0.369   8.712  21.709  0.00  0.00    +0.000 A 
ATOM     18  C   UNL     1      -0.343   9.912  21.733  0.00  0.00    +0.000 A 
ATOM     19  C   UNL     1      -0.330  10.778  20.620  0.00  0.00    +0.000 A 
ATOM     20  C   UNL     1       0.405  10.466  19.470  0.00  0.00    +0.000 A 
ATOM     21  C   UNL     1       1.120   9.284  19.480  0.00  0.00    +0.000 A 
ATOM     22  C   UNL     1       1.998   8.678  18.481  0.00  0.00    +0.000 C 
ATOM     23  O   UNL     1       2.183   9.123  17.364  0.00  0.00    +0.000 OA
ENDBRANCH   1  13
TORSDOF 2
ENDMDL
MODEL 9
REMARK VINA RESULT:      -7.1      3.601      6.872
REMARK  Name = 
REMARK  3 active torsions:
REMARK  status: ('A' for Active; 'I' for Inactive)
REMARK    1  A    between atoms: C_1  and  C_2
REMARK    2  A    between atoms: C_9  and  C_11
REMARK    3  A    between atoms: C_11  and  N_12
REMARK                            x       y       z     vdW  Elec       q    Type
REMARK                         _______ _______ _______ _____ _____    ______ ____
ROOT
ATOM      1  C   UNL     1       3.122   6.559  18.489  0.00  0.00    +0.000 C 
ENDROOT
BRANCH   1  10
ATOM      2  C   UNL     1       5.470   4.682  19.024  0.00  0.00    +0.000 C 
ATOM      3  C   UNL     1       4.497   3.648  18.480  0.00  0.00    +0.000 C 
ATOM      4  C   UNL     1       4.360   2.477  19.498  0.00  0.00    +0.000 C 
ATOM      5  O   UNL     1       5.171   2.258  20.399  0.00  0.00    +0.000 OA
ATOM      6  N   UNL     1       3.402   1.529  19.224  0.00  0.00    +0.000 N 
ATOM      7  C   UNL     1       2.172   1.893  18.550  0.00  0.00    +0.000 C 
ATOM      8  C   UNL     1       2.403   2.908  17.431  0.00  0.00    +0.000 C 
ATOM      9  N   UNL     1       3.172   4.059  17.941  0.00  0.00    +0.000 N 
ATOM     10  C   UNL     1       2.505   5.275  17.948  0.00  0.00    +0.000 C 
ATOM     11  O   UNL     1       1.355   5.362  17.486  0.00  0.00    +0.000 OA
ATOM     12  H   UNL     1       3.372   0.784  19.910  0.00  0.00    +0.000 HD
ENDBRANCH   1  10
BRANCH   1  13
ATOM     13  N   UNL     1       2.178   7.529  19.007  0.00  0.00    +0.000 N 
ATOM     14  C   UNL     1       1.941   8.750  18.450  0.00  0.00    +0.000 C 
ATOM     15  O   UNL     1       2.319   9.222  17.395  0.00  0.00    +0.000 OA
ATOM     16  C   UNL     1       1.090   9.480  19.380  0.00  0.00    +0.000 A 
ATOM     17  C   UNL     1       0.478  10.707  19.241  0.00  0.00    +0.000 A 
ATOM     18  C   UNL     1      -0.280  11.167  20.320  0.00  0.00    +0.000 A 
ATOM     19  C   UNL     1      -0.390  10.401  21.500  0.00  0.00    +0.000 A 
ATOM     20  C   UNL     1       0.244   9.158  21.616  0.00  0.00    +0.000 A 
ATOM     21  C   UNL     1       0.969   8.715  20.526  0.00  0.00    +0.000 A 
ATOM     22  C   UNL     1       1.714   7.478  20.300  0.00  0.00    +0.000 C 
ATOM     23  O   UNL     1       1.891   6.616  21.139  0.00  0.00    +0.000 OA
ENDBRANCH   1  13
TORSDOF 2
ENDMDL
