MODEL 1
REMARK VINA RESULT:      -9.7      0.000      0.000
REMARK  Name = 
REMARK  5 active torsions:
REMARK  status: ('A' for Active; 'I' for Inactive)
REMARK    1  A    between atoms: C_1  and  C_2
REMARK    2  A    between atoms: C_5  and  C_6
REMARK    3  A    between atoms: C_20  and  N_21
REMARK    4  A    between atoms: N_21  and  C_22
REMARK    5  A    between atoms: C_22  and  C_23
REMARK                            x       y       z     vdW  Elec       q    Type
REMARK                         _______ _______ _______ _____ _____    ______ ____
ROOT
ATOM      1  C   UNL     1       1.807   9.322  17.449  0.00  0.00    +0.000 C 
ATOM      2  C   UNL     1       1.319   9.535  18.838  0.00  0.00    +0.000 A 
ATOM      3  C   UNL     1       0.616  10.634  19.278  0.00  0.00    +0.000 A 
ATOM      4  C   UNL     1       0.268  10.439  20.637  0.00  0.00    +0.000 A 
ATOM      5  C   UNL     1      -0.462  11.223  21.578  0.00  0.00    +0.000 A 
ATOM      6  C   UNL     1      -0.671  10.707  22.864  0.00  0.00    +0.000 A 
ATOM      7  C   UNL     1      -0.155   9.470  23.222  0.00  0.00    +0.000 A 
ATOM      8  C   UNL     1       0.567   8.690  22.306  0.00  0.00    +0.000 A 
ATOM      9  C   UNL     1       0.771   9.176  20.997  0.00  0.00    +0.000 A 
ATOM     10  N   UNL     1       1.431   8.606  19.881  0.00  0.00    +0.000 N 
ATOM     11  C   UNL     1       2.064   7.280  19.781  0.00  0.00    +0.000 A 
ATOM     12  N   UNL     1       1.823   6.349  20.734  0.00  0.00    +0.000 NA
ATOM     13  C   UNL     1       2.246   5.077  20.481  0.00  0.00    +0.000 A 
ATOM     14  C   UNL     1       2.882   4.726  19.312  0.00  0.00    +0.000 A 
ATOM     15  C   UNL     1       3.192   5.756  18.442  0.00  0.00    +0.000 A 
ATOM     16  N   UNL     1       2.802   7.023  18.669  0.00  0.00    +0.000 NA
ATOM     17  C   UNL     1       3.149   3.297  18.950  0.00  0.00    +0.000 C 
ATOM     18  N   UNL     1       3.441   2.415  20.065  0.00  0.00    +0.000 NA
ATOM     19  C   UNL     1       2.616   2.626  21.243  0.00  0.00    +0.000 C 
ATOM     20  C   UNL     1       1.966   4.005  21.501  0.00  0.00    +0.000 C 
ATOM     21  H   UNL     1       4.431   2.470  20.293  0.00  0.00    +0.000 HD
ENDROOT
BRANCH   5  22
ATOM     22  C   UNL     1      -1.001  12.530  21.217  0.00  0.00    +0.000 A 
ATOM     23  N   UNL     1      -0.332  13.657  21.040  0.00  0.00    +0.000 NA
ATOM     24  N   UNL     1      -1.254  14.617  20.701  0.00  0.00    +0.000 NA
ATOM     25  N   UNL     1      -2.472  14.100  20.631  0.00  0.00    +0.000 NA
ATOM     26  N   UNL     1      -2.312  12.805  20.927  0.00  0.00    +0.000 N 
ATOM     27  H   UNL     1      -3.111  12.186  20.900  0.00  0.00    +0.000 HD
ENDBRANCH   5  22
BRANCH  15  28
ATOM     28  N   UNL     1       3.884   5.385  17.290  0.00  0.00    +0.000 N 
ATOM     29  H   UNL     1       3.293   4.822  16.692  0.00  0.00    +0.000 HD
BRANCH  28  30
ATOM     30  C   UNL     1       4.765   6.275  16.578  0.00  0.00    +0.000 C 
BRANCH  30  31
ATOM     31  C   UNL     1       6.042   6.510  17.336  0.00  0.00    +0.000 A 
ATOM     32  C   UNL     1       6.518   5.512  18.192  0.00  0.00    +0.000 A 
ATOM     33  C   UNL     1       7.657   5.731  18.964  0.00  0.00    +0.000 A 
ATOM     34  C   UNL     1       8.346   6.937  18.868  0.00  0.00    +0.000 A 
ATOM     35  C   UNL     1       7.921   7.914  17.969  0.00  0.00    +0.000 A 
ATOM     36  C   UNL     1       6.785   7.697  17.194  0.00  0.00    +0.000 A 
ENDBRANCH  30  31
ENDBRANCH  28  30
ENDBRANCH  15  28
TORSDOF 4
ENDMDL
MODEL 2
REMARK VINA RESULT:      -9.7      0.168      1.057
REMARK  Name = 
REMARK  5 active torsions:
REMARK  status: ('A' for Active; 'I' for Inactive)
REMARK    1  A    between atoms: C_1  and  C_2
REMARK    2  A    between atoms: C_5  and  C_6
REMARK    3  A    between atoms: C_20  and  N_21
REMARK    4  A    between atoms: N_21  and  C_22
REMARK    5  A    between atoms: C_22  and  C_23
REMARK                            x       y       z     vdW  Elec       q    Type
REMARK                         _______ _______ _______ _____ _____    ______ ____
ROOT
ATOM      1  C   UNL     1       1.892   9.176  17.456  0.00  0.00    +0.000 C 
ATOM      2  C   UNL     1       1.392   9.415  18.836  0.00  0.00    +0.000 A 
ATOM      3  C   UNL     1       0.703  10.532  19.253  0.00  0.00    +0.000 A 
ATOM      4  C   UNL     1       0.336  10.361  20.610  0.00  0.00    +0.000 A 
ATOM      5  C   UNL     1      -0.391  11.170  21.532  0.00  0.00    +0.000 A 
ATOM      6  C   UNL     1      -0.623  10.676  22.822  0.00  0.00    +0.000 A 
ATOM      7  C   UNL     1      -0.133   9.435  23.203  0.00  0.00    +0.000 A 
ATOM      8  C   UNL     1       0.587   8.631  22.306  0.00  0.00    +0.000 A 
ATOM      9  C   UNL     1       0.813   9.095  20.993  0.00  0.00    +0.000 A 
ATOM     10  N   UNL     1       1.477   8.499  19.893  0.00  0.00    +0.000 N 
ATOM     11  C   UNL     1       2.088   7.161  19.818  0.00  0.00    +0.000 A 
ATOM     12  N   UNL     1       1.820   6.247  20.781  0.00  0.00    +0.000 NA
ATOM     13  C   UNL     1       2.224   4.965  20.549  0.00  0.00    +0.000 A 
ATOM     14  C   UNL     1       2.868   4.587  19.393  0.00  0.00    +0.000 A 
ATOM     15  C   UNL     1       3.205   5.600  18.512  0.00  0.00    +0.000 A 
ATOM     16  N   UNL     1       2.834   6.876  18.718  0.00  0.00    +0.000 NA
ATOM     17  C   UNL     1       3.115   3.150  19.053  0.00  0.00    +0.000 C 
ATOM     18  N   UNL     1       3.378   2.278  20.183  0.00  0.00    +0.000 NA
ATOM     19  C   UNL     1       2.544   2.519  21.349  0.00  0.00    +0.000 C 
ATOM     20  C   UNL     1       1.915   3.912  21.581  0.00  0.00    +0.000 C 
ATOM     21  H   UNL     1       4.367   2.319  20.421  0.00  0.00    +0.000 HD
ENDROOT
BRANCH   5  22
ATOM     22  C   UNL     1      -0.904  12.481  21.148  0.00  0.00    +0.000 A 
ATOM     23  N   UNL     1      -2.144  12.793  20.809  0.00  0.00    +0.000 NA
ATOM     24  N   UNL     1      -2.155  14.140  20.542  0.00  0.00    +0.000 NA
ATOM     25  N   UNL     1      -0.959  14.672  20.740  0.00  0.00    +0.000 NA
ATOM     26  N   UNL     1      -0.190  13.651  21.138  0.00  0.00    +0.000 N 
ATOM     27  H   UNL     1       0.774  13.822  21.389  0.00  0.00    +0.000 HD
ENDBRANCH   5  22
BRANCH  15  28
ATOM     28  N   UNL     1       3.904   5.202  17.374  0.00  0.00    +0.000 N 
ATOM     29  H   UNL     1       3.324   4.606  16.798  0.00  0.00    +0.000 HD
BRANCH  28  30
ATOM     30  C   UNL     1       4.766   6.083  16.628  0.00  0.00    +0.000 C 
BRANCH  30  31
ATOM     31  C   UNL     1       6.001   6.437  17.409  0.00  0.00    +0.000 A 
ATOM     32  C   UNL     1       6.625   7.667  17.175  0.00  0.00    +0.000 A 
ATOM     33  C   UNL     1       7.811   7.990  17.829  0.00  0.00    +0.000 A 
ATOM     34  C   UNL     1       8.372   7.101  18.741  0.00  0.00    +0.000 A 
ATOM     35  C   UNL     1       7.726   5.901  19.034  0.00  0.00    +0.000 A 
ATOM     36  C   UNL     1       6.538   5.576  18.385  0.00  0.00    +0.000 A 
ENDBRANCH  30  31
ENDBRANCH  28  30
ENDBRANCH  15  28
TORSDOF 4
ENDMDL
MODEL 3
REMARK VINA RESULT:      -9.2      1.391      2.033
REMARK  Name = 
REMARK  5 active torsions:
REMARK  status: ('A' for Active; 'I' for Inactive)
REMARK    1  A    between atoms: C_1  and  C_2
REMARK    2  A    between atoms: C_5  and  C_6
REMARK    3  A    between atoms: C_20  and  N_21
REMARK    4  A    between atoms: N_21  and  C_22
REMARK    5  A    between atoms: C_22  and  C_23
REMARK                            x       y       z     vdW  Elec       q    Type
REMARK                         _______ _______ _______ _____ _____    ______ ____
ROOT
ATOM      1  C   UNL     1       1.790   9.369  17.499  0.00  0.00    +0.000 C 
ATOM      2  C   UNL     1       1.291   9.566  18.886  0.00  0.00    +0.000 A 
ATOM      3  C   UNL     1       0.578  10.656  19.332  0.00  0.00    +0.000 A 
ATOM      4  C   UNL     1       0.222  10.447  20.686  0.00  0.00    +0.000 A 
ATOM      5  C   UNL     1      -0.518  11.217  21.630  0.00  0.00    +0.000 A 
ATOM      6  C   UNL     1      -0.733  10.689  22.909  0.00  0.00    +0.000 A 
ATOM      7  C   UNL     1      -0.211   9.452  23.260  0.00  0.00    +0.000 A 
ATOM      8  C   UNL     1       0.522   8.685  22.341  0.00  0.00    +0.000 A 
ATOM      9  C   UNL     1       0.731   9.183  21.038  0.00  0.00    +0.000 A 
ATOM     10  N   UNL     1       1.403   8.628  19.922  0.00  0.00    +0.000 N 
ATOM     11  C   UNL     1       2.045   7.307  19.814  0.00  0.00    +0.000 A 
ATOM     12  N   UNL     1       1.803   6.366  20.757  0.00  0.00    +0.000 NA
ATOM     13  C   UNL     1       2.236   5.099  20.495  0.00  0.00    +0.000 A 
ATOM     14  C   UNL     1       2.882   4.763  19.327  0.00  0.00    +0.000 A 
ATOM     15  C   UNL     1       3.192   5.803  18.468  0.00  0.00    +0.000 A 
ATOM     16  N   UNL     1       2.792   7.065  18.705  0.00  0.00    +0.000 NA
ATOM     17  C   UNL     1       3.161   3.339  18.954  0.00  0.00    +0.000 C 
ATOM     18  N   UNL     1       3.451   2.449  20.063  0.00  0.00    +0.000 NA
ATOM     19  C   UNL     1       2.617   2.644  21.237  0.00  0.00    +0.000 C 
ATOM     20  C   UNL     1       1.957   4.016  21.504  0.00  0.00    +0.000 C 
ATOM     21  H   UNL     1       4.439   2.508  20.297  0.00  0.00    +0.000 HD
ENDROOT
BRANCH   5  22
ATOM     22  C   UNL     1      -1.064  12.524  21.277  0.00  0.00    +0.000 A 
ATOM     23  N   UNL     1      -0.405  13.663  21.145  0.00  0.00    +0.000 NA
ATOM     24  N   UNL     1      -1.329  14.617  20.794  0.00  0.00    +0.000 NA
ATOM     25  N   UNL     1      -2.536  14.086  20.674  0.00  0.00    +0.000 NA
ATOM     26  N   UNL     1      -2.369  12.787  20.949  0.00  0.00    +0.000 N 
ATOM     27  H   UNL     1      -3.158  12.159  20.883  0.00  0.00    +0.000 HD
ENDBRANCH   5  22
BRANCH  15  28
ATOM     28  N   UNL     1       3.893   5.447  17.317  0.00  0.00    +0.000 N 
ATOM     29  H   UNL     1       3.366   5.704  16.493  0.00  0.00    +0.000 HD
BRANCH  28  30
ATOM     30  C   UNL     1       5.318   5.608  17.180  0.00  0.00    +0.000 C 
BRANCH  30  31
ATOM     31  C   UNL     1       5.809   5.075  15.863  0.00  0.00    +0.000 A 
ATOM     32  C   UNL     1       7.117   5.361  15.458  0.00  0.00    +0.000 A 
ATOM     33  C   UNL     1       7.574   4.944  14.211  0.00  0.00    +0.000 A 
ATOM     34  C   UNL     1       6.741   4.214  13.367  0.00  0.00    +0.000 A 
ATOM     35  C   UNL     1       5.458   3.863  13.786  0.00  0.00    +0.000 A 
ATOM     36  C   UNL     1       4.999   4.276  15.034  0.00  0.00    +0.000 A 
ENDBRANCH  30  31
ENDBRANCH  28  30
ENDBRANCH  15  28
TORSDOF 4
ENDMDL
MODEL 4
REMARK VINA RESULT:      -9.1      1.401      2.064
REMARK  Name = 
REMARK  5 active torsions:
REMARK  status: ('A' for Active; 'I' for Inactive)
REMARK    1  A    between atoms: C_1  and  C_2
REMARK    2  A    between atoms: C_5  and  C_6
REMARK    3  A    between atoms: C_20  and  N_21
REMARK    4  A    between atoms: N_21  and  C_22
REMARK    5  A    between atoms: C_22  and  C_23
REMARK                            x       y       z     vdW  Elec       q    Type
REMARK                         _______ _______ _______ _____ _____    ______ ____
ROOT
ATOM      1  C   UNL     1       1.842   9.294  17.471  0.00  0.00    +0.000 C 
ATOM      2  C   UNL     1       1.337   9.502  18.854  0.00  0.00    +0.000 A 
ATOM      3  C   UNL     1       0.627  10.599  19.289  0.00  0.00    +0.000 A 
ATOM      4  C   UNL     1       0.263  10.400  20.642  0.00  0.00    +0.000 A 
ATOM      5  C   UNL     1      -0.479  11.180  21.577  0.00  0.00    +0.000 A 
ATOM      6  C   UNL     1      -0.703  10.661  22.859  0.00  0.00    +0.000 A 
ATOM      7  C   UNL     1      -0.189   9.424  23.220  0.00  0.00    +0.000 A 
ATOM      8  C   UNL     1       0.545   8.648  22.310  0.00  0.00    +0.000 A 
ATOM      9  C   UNL     1       0.764   9.137  21.006  0.00  0.00    +0.000 A 
ATOM     10  N   UNL     1       1.438   8.571  19.896  0.00  0.00    +0.000 N 
ATOM     11  C   UNL     1       2.075   7.246  19.800  0.00  0.00    +0.000 A 
ATOM     12  N   UNL     1       1.824   6.312  20.748  0.00  0.00    +0.000 NA
ATOM     13  C   UNL     1       2.252   5.042  20.497  0.00  0.00    +0.000 A 
ATOM     14  C   UNL     1       2.903   4.695  19.335  0.00  0.00    +0.000 A 
ATOM     15  C   UNL     1       3.222   5.728  18.471  0.00  0.00    +0.000 A 
ATOM     16  N   UNL     1       2.827   6.993  18.697  0.00  0.00    +0.000 NA
ATOM     17  C   UNL     1       3.177   3.268  18.972  0.00  0.00    +0.000 C 
ATOM     18  N   UNL     1       3.457   2.383  20.089  0.00  0.00    +0.000 NA
ATOM     19  C   UNL     1       2.617   2.590  21.257  0.00  0.00    +0.000 C 
ATOM     20  C   UNL     1       1.963   3.967  21.511  0.00  0.00    +0.000 C 
ATOM     21  H   UNL     1       4.444   2.439  20.328  0.00  0.00    +0.000 HD
ENDROOT
BRANCH   5  22
ATOM     22  C   UNL     1      -1.017  12.487  21.213  0.00  0.00    +0.000 A 
ATOM     23  N   UNL     1      -2.241  12.767  20.798  0.00  0.00    +0.000 NA
ATOM     24  N   UNL     1      -2.288  14.124  20.589  0.00  0.00    +0.000 NA
ATOM     25  N   UNL     1      -1.132  14.692  20.898  0.00  0.00    +0.000 NA
ATOM     26  N   UNL     1      -0.353  13.683  21.307  0.00  0.00    +0.000 N 
ATOM     27  H   UNL     1       0.582  13.878  21.636  0.00  0.00    +0.000 HD
ENDBRANCH   5  22
BRANCH  15  28
ATOM     28  N   UNL     1       3.928   5.362  17.326  0.00  0.00    +0.000 N 
ATOM     29  H   UNL     1       3.391   5.584  16.498  0.00  0.00    +0.000 HD
BRANCH  28  30
ATOM     30  C   UNL     1       5.347   5.556  17.178  0.00  0.00    +0.000 C 
BRANCH  30  31
ATOM     31  C   UNL     1       5.827   5.109  15.825  0.00  0.00    +0.000 A 
ATOM     32  C   UNL     1       4.980   4.336  15.025  0.00  0.00    +0.000 A 
ATOM     33  C   UNL     1       5.423   3.845  13.799  0.00  0.00    +0.000 A 
ATOM     34  C   UNL     1       6.706   4.145  13.348  0.00  0.00    +0.000 A 
ATOM     35  C   UNL     1       7.537   4.970  14.105  0.00  0.00    +0.000 A 
ATOM     36  C   UNL     1       7.095   5.464  15.329  0.00  0.00    +0.000 A 
ENDBRANCH  30  31
ENDBRANCH  28  30
ENDBRANCH  15  28
TORSDOF 4
ENDMDL
MODEL 5
REMARK VINA RESULT:      -8.3      1.033      1.446
REMARK  Name = 
REMARK  5 active torsions:
REMARK  status: ('A' for Active; 'I' for Inactive)
REMARK    1  A    between atoms: C_1  and  C_2
REMARK    2  A    between atoms: C_5  and  C_6
REMARK    3  A    between atoms: C_20  and  N_21
REMARK    4  A    between atoms: N_21  and  C_22
REMARK    5  A    between atoms: C_22  and  C_23
REMARK                            x       y       z     vdW  Elec       q    Type
REMARK                         _______ _______ _______ _____ _____    ______ ____
ROOT
ATOM      1  C   UNL     1       1.557  10.480  17.710  0.00  0.00    +0.000 C 
ATOM      2  C   UNL     1       1.024  10.463  19.098  0.00  0.00    +0.000 A 
ATOM      3  C   UNL     1       0.285  11.467  19.683  0.00  0.00    +0.000 A 
ATOM      4  C   UNL     1      -0.098  11.055  20.982  0.00  0.00    +0.000 A 
ATOM      5  C   UNL     1      -0.871  11.668  22.011  0.00  0.00    +0.000 A 
ATOM      6  C   UNL     1      -1.106  10.952  23.192  0.00  0.00    +0.000 A 
ATOM      7  C   UNL     1      -0.574   9.683  23.369  0.00  0.00    +0.000 A 
ATOM      8  C   UNL     1       0.191   9.070  22.365  0.00  0.00    +0.000 A 
ATOM      9  C   UNL     1       0.422   9.759  21.155  0.00  0.00    +0.000 A 
ATOM     10  N   UNL     1       1.126   9.383  19.985  0.00  0.00    +0.000 N 
ATOM     11  C   UNL     1       1.790   8.101  19.699  0.00  0.00    +0.000 A 
ATOM     12  N   UNL     1       1.542   7.027  20.486  0.00  0.00    +0.000 NA
ATOM     13  C   UNL     1       2.000   5.818  20.050  0.00  0.00    +0.000 A 
ATOM     14  C   UNL     1       2.677   5.666  18.861  0.00  0.00    +0.000 A 
ATOM     15  C   UNL     1       2.990   6.826  18.174  0.00  0.00    +0.000 A 
ATOM     16  N   UNL     1       2.566   8.034  18.584  0.00  0.00    +0.000 NA
ATOM     17  C   UNL     1       2.986   4.317  18.288  0.00  0.00    +0.000 C 
ATOM     18  N   UNL     1       3.264   3.275  19.260  0.00  0.00    +0.000 NA
ATOM     19  C   UNL     1       2.401   3.284  20.429  0.00  0.00    +0.000 C 
ATOM     20  C   UNL     1       1.715   4.594  20.880  0.00  0.00    +0.000 C 
ATOM     21  H   UNL     1       4.246   3.311  19.524  0.00  0.00    +0.000 HD
ENDROOT
BRANCH   5  22
ATOM     22  C   UNL     1      -1.429  13.006  21.843  0.00  0.00    +0.000 A 
ATOM     23  N   UNL     1      -2.697  13.332  21.654  0.00  0.00    +0.000 NA
ATOM     24  N   UNL     1      -2.744  14.702  21.563  0.00  0.00    +0.000 NA
ATOM     25  N   UNL     1      -1.540  15.229  21.725  0.00  0.00    +0.000 NA
ATOM     26  N   UNL     1      -0.730  14.182  21.922  0.00  0.00    +0.000 N 
ATOM     27  H   UNL     1       0.251  14.340  22.109  0.00  0.00    +0.000 HD
ENDBRANCH   5  22
BRANCH  15  28
ATOM     28  N   UNL     1       3.722   6.653  17.000  0.00  0.00    +0.000 N 
ATOM     29  H   UNL     1       3.118   6.742  16.194  0.00  0.00    +0.000 HD
BRANCH  28  30
ATOM     30  C   UNL     1       5.044   7.193  16.808  0.00  0.00    +0.000 C 
BRANCH  30  31
ATOM     31  C   UNL     1       6.106   6.206  17.205  0.00  0.00    +0.000 A 
ATOM     32  C   UNL     1       6.762   6.370  18.430  0.00  0.00    +0.000 A 
ATOM     33  C   UNL     1       7.801   5.516  18.791  0.00  0.00    +0.000 A 
ATOM     34  C   UNL     1       8.176   4.474  17.947  0.00  0.00    +0.000 A 
ATOM     35  C   UNL     1       7.487   4.259  16.755  0.00  0.00    +0.000 A 
ATOM     36  C   UNL     1       6.446   5.109  16.392  0.00  0.00    +0.000 A 
ENDBRANCH  30  31
ENDBRANCH  28  30
ENDBRANCH  15  28
TORSDOF 4
ENDMDL
MODEL 6
REMARK VINA RESULT:      -8.2      2.054      2.760
REMARK  Name = 
REMARK  5 active torsions:
REMARK  status: ('A' for Active; 'I' for Inactive)
REMARK    1  A    between atoms: C_1  and  C_2
REMARK    2  A    between atoms: C_5  and  C_6
REMARK    3  A    between atoms: C_20  and  N_21
REMARK    4  A    between atoms: N_21  and  C_22
REMARK    5  A    between atoms: C_22  and  C_23
REMARK                            x       y       z     vdW  Elec       q    Type
REMARK                         _______ _______ _______ _____ _____    ______ ____
ROOT
ATOM      1  C   UNL     1       3.601   7.869  16.925  0.00  0.00    +0.000 C 
ATOM      2  C   UNL     1       2.726   8.298  18.050  0.00  0.00    +0.000 A 
ATOM      3  C   UNL     1       1.981   9.455  18.086  0.00  0.00    +0.000 A 
ATOM      4  C   UNL     1       1.228   9.476  19.285  0.00  0.00    +0.000 A 
ATOM      5  C   UNL     1       0.289  10.400  19.830  0.00  0.00    +0.000 A 
ATOM      6  C   UNL     1      -0.325  10.092  21.051  0.00  0.00    +0.000 A 
ATOM      7  C   UNL     1      -0.007   8.924  21.729  0.00  0.00    +0.000 A 
ATOM      8  C   UNL     1       0.918   8.008  21.204  0.00  0.00    +0.000 A 
ATOM      9  C   UNL     1       1.533   8.282  19.965  0.00  0.00    +0.000 A 
ATOM     10  N   UNL     1       2.470   7.543  19.202  0.00  0.00    +0.000 N 
ATOM     11  C   UNL     1       3.034   6.215  19.498  0.00  0.00    +0.000 A 
ATOM     12  N   UNL     1       2.468   5.445  20.457  0.00  0.00    +0.000 NA
ATOM     13  C   UNL     1       2.882   4.148  20.536  0.00  0.00    +0.000 A 
ATOM     14  C   UNL     1       3.823   3.616  19.685  0.00  0.00    +0.000 A 
ATOM     15  C   UNL     1       4.435   4.496  18.810  0.00  0.00    +0.000 A 
ATOM     16  N   UNL     1       4.060   5.784  18.717  0.00  0.00    +0.000 NA
ATOM     17  C   UNL     1       4.114   2.147  19.637  0.00  0.00    +0.000 C 
ATOM     18  N   UNL     1       4.008   1.449  20.905  0.00  0.00    +0.000 NA
ATOM     19  C   UNL     1       2.877   1.844  21.728  0.00  0.00    +0.000 C 
ATOM     20  C   UNL     1       2.252   3.249  21.568  0.00  0.00    +0.000 C 
ATOM     21  H   UNL     1       4.884   1.535  21.414  0.00  0.00    +0.000 HD
ENDROOT
BRANCH   5  22
ATOM     22  C   UNL     1      -0.048  11.636  19.133  0.00  0.00    +0.000 A 
ATOM     23  N   UNL     1      -1.089  11.860  18.348  0.00  0.00    +0.000 NA
ATOM     24  N   UNL     1      -0.996  13.165  17.930  0.00  0.00    +0.000 NA
ATOM     25  N   UNL     1       0.059  13.761  18.465  0.00  0.00    +0.000 NA
ATOM     26  N   UNL     1       0.632  12.822  19.228  0.00  0.00    +0.000 N 
ATOM     27  H   UNL     1       1.448  13.057  19.776  0.00  0.00    +0.000 HD
ENDBRANCH   5  22
BRANCH  15  28
ATOM     28  N   UNL     1       5.423   3.948  17.993  0.00  0.00    +0.000 N 
ATOM     29  H   UNL     1       5.023   3.250  17.380  0.00  0.00    +0.000 HD
BRANCH  28  30
ATOM     30  C   UNL     1       6.474   4.729  17.392  0.00  0.00    +0.000 C 
BRANCH  30  31
ATOM     31  C   UNL     1       6.465   4.604  15.894  0.00  0.00    +0.000 A 
ATOM     32  C   UNL     1       5.382   3.977  15.270  0.00  0.00    +0.000 A 
ATOM     33  C   UNL     1       5.380   3.781  13.891  0.00  0.00    +0.000 A 
ATOM     34  C   UNL     1       6.447   4.233  13.119  0.00  0.00    +0.000 A 
ATOM     35  C   UNL     1       7.501   4.920  13.719  0.00  0.00    +0.000 A 
ATOM     36  C   UNL     1       7.504   5.120  15.097  0.00  0.00    +0.000 A 
ENDBRANCH  30  31
ENDBRANCH  28  30
ENDBRANCH  15  28
TORSDOF 4
ENDMDL
MODEL 7
REMARK VINA RESULT:      -8.2      2.061      2.713
REMARK  Name = 
REMARK  5 active torsions:
REMARK  status: ('A' for Active; 'I' for Inactive)
REMARK    1  A    between atoms: C_1  and  C_2
REMARK    2  A    between atoms: C_5  and  C_6
REMARK    3  A    between atoms: C_20  and  N_21
REMARK    4  A    between atoms: N_21  and  C_22
REMARK    5  A    between atoms: C_22  and  C_23
REMARK                            x       y       z     vdW  Elec       q    Type
REMARK                         _______ _______ _______ _____ _____    ______ ____
ROOT
ATOM      1  C   UNL     1       3.435   7.939  16.947  0.00  0.00    +0.000 C 
ATOM      2  C   UNL     1       2.592   8.366  18.096  0.00  0.00    +0.000 A 
ATOM      3  C   UNL     1       1.852   9.525  18.157  0.00  0.00    +0.000 A 
ATOM      4  C   UNL     1       1.132   9.544  19.375  0.00  0.00    +0.000 A 
ATOM      5  C   UNL     1       0.211  10.469  19.949  0.00  0.00    +0.000 A 
ATOM      6  C   UNL     1      -0.372  10.158  21.185  0.00  0.00    +0.000 A 
ATOM      7  C   UNL     1      -0.040   8.986  21.849  0.00  0.00    +0.000 A 
ATOM      8  C   UNL     1       0.867   8.069  21.296  0.00  0.00    +0.000 A 
ATOM      9  C   UNL     1       1.450   8.346  20.042  0.00  0.00    +0.000 A 
ATOM     10  N   UNL     1       2.363   7.607  19.252  0.00  0.00    +0.000 N 
ATOM     11  C   UNL     1       2.930   6.276  19.527  0.00  0.00    +0.000 A 
ATOM     12  N   UNL     1       2.387   5.503  20.498  0.00  0.00    +0.000 NA
ATOM     13  C   UNL     1       2.798   4.204  20.561  0.00  0.00    +0.000 A 
ATOM     14  C   UNL     1       3.714   3.673  19.682  0.00  0.00    +0.000 A 
ATOM     15  C   UNL     1       4.306   4.555  18.795  0.00  0.00    +0.000 A 
ATOM     16  N   UNL     1       3.933   5.845  18.717  0.00  0.00    +0.000 NA
ATOM     17  C   UNL     1       3.998   2.203  19.620  0.00  0.00    +0.000 C 
ATOM     18  N   UNL     1       3.923   1.500  20.888  0.00  0.00    +0.000 NA
ATOM     19  C   UNL     1       2.816   1.896  21.743  0.00  0.00    +0.000 C 
ATOM     20  C   UNL     1       2.192   3.304  21.605  0.00  0.00    +0.000 C 
ATOM     21  H   UNL     1       4.813   1.581  21.375  0.00  0.00    +0.000 HD
ENDROOT
BRANCH   5  22
ATOM     22  C   UNL     1      -0.140  11.709  19.266  0.00  0.00    +0.000 A 
ATOM     23  N   UNL     1       0.180  12.943  19.622  0.00  0.00    +0.000 NA
ATOM     24  N   UNL     1      -0.357  13.780  18.674  0.00  0.00    +0.000 NA
ATOM     25  N   UNL     1      -0.971  13.090  17.725  0.00  0.00    +0.000 NA
ATOM     26  N   UNL     1      -0.816  11.808  18.078  0.00  0.00    +0.000 N 
ATOM     27  H   UNL     1      -1.175  11.080  17.476  0.00  0.00    +0.000 HD
ENDBRANCH   5  22
BRANCH  15  28
ATOM     28  N   UNL     1       5.270   4.006  17.950  0.00  0.00    +0.000 N 
ATOM     29  H   UNL     1       4.845   3.335  17.324  0.00  0.00    +0.000 HD
BRANCH  28  30
ATOM     30  C   UNL     1       6.330   4.779  17.355  0.00  0.00    +0.000 C 
BRANCH  30  31
ATOM     31  C   UNL     1       6.393   4.575  15.867  0.00  0.00    +0.000 A 
ATOM     32  C   UNL     1       7.473   5.104  15.153  0.00  0.00    +0.000 A 
ATOM     33  C   UNL     1       7.520   4.995  13.766  0.00  0.00    +0.000 A 
ATOM     34  C   UNL     1       6.505   4.334  13.080  0.00  0.00    +0.000 A 
ATOM     35  C   UNL     1       5.457   3.743  13.785  0.00  0.00    +0.000 A 
ATOM     36  C   UNL     1       5.408   3.848  15.172  0.00  0.00    +0.000 A 
ENDBRANCH  30  31
ENDBRANCH  28  30
ENDBRANCH  15  28
TORSDOF 4
ENDMDL
MODEL 8
REMARK VINA RESULT:      -8.1      1.988      5.030
REMARK  Name = 
REMARK  5 active torsions:
REMARK  status: ('A' for Active; 'I' for Inactive)
REMARK    1  A    between atoms: C_1  and  C_2
REMARK    2  A    between atoms: C_5  and  C_6
REMARK    3  A    between atoms: C_20  and  N_21
REMARK    4  A    between atoms: N_21  and  C_22
REMARK    5  A    between atoms: C_22  and  C_23
REMARK                            x       y       z     vdW  Elec       q    Type
REMARK                         _______ _______ _______ _____ _____    ______ ____
ROOT
ATOM      1  C   UNL     1       2.483   5.503  21.177  0.00  0.00    +0.000 C 
ATOM      2  C   UNL     1       2.118   6.747  20.449  0.00  0.00    +0.000 A 
ATOM      3  C   UNL     1       1.399   7.798  20.974  0.00  0.00    +0.000 A 
ATOM      4  C   UNL     1       1.316   8.824  20.002  0.00  0.00    +0.000 A 
ATOM      5  C   UNL     1       0.722  10.120  20.002  0.00  0.00    +0.000 A 
ATOM      6  C   UNL     1       0.862  10.924  18.863  0.00  0.00    +0.000 A 
ATOM      7  C   UNL     1       1.542  10.458  17.748  0.00  0.00    +0.000 A 
ATOM      8  C   UNL     1       2.129   9.183  17.734  0.00  0.00    +0.000 A 
ATOM      9  C   UNL     1       2.023   8.363  18.877  0.00  0.00    +0.000 A 
ATOM     10  N   UNL     1       2.524   7.066  19.146  0.00  0.00    +0.000 N 
ATOM     11  C   UNL     1       3.362   6.219  18.280  0.00  0.00    +0.000 A 
ATOM     12  N   UNL     1       3.962   6.759  17.193  0.00  0.00    +0.000 NA
ATOM     13  C   UNL     1       4.898   5.997  16.558  0.00  0.00    +0.000 A 
ATOM     14  C   UNL     1       5.244   4.736  16.988  0.00  0.00    +0.000 A 
ATOM     15  C   UNL     1       4.505   4.213  18.034  0.00  0.00    +0.000 A 
ATOM     16  N   UNL     1       3.565   4.934  18.672  0.00  0.00    +0.000 NA
ATOM     17  C   UNL     1       6.417   3.996  16.421  0.00  0.00    +0.000 C 
ATOM     18  N   UNL     1       6.679   4.229  15.013  0.00  0.00    +0.000 NA
ATOM     19  C   UNL     1       6.535   5.610  14.584  0.00  0.00    +0.000 C 
ATOM     20  C   UNL     1       5.614   6.575  15.365  0.00  0.00    +0.000 C 
ATOM     21  H   UNL     1       6.103   3.606  14.452  0.00  0.00    +0.000 HD
ENDROOT
BRANCH   5  22
ATOM     22  C   UNL     1      -0.005  10.620  21.165  0.00  0.00    +0.000 A 
ATOM     23  N   UNL     1       0.320  10.478  22.440  0.00  0.00    +0.000 NA
ATOM     24  N   UNL     1      -0.650  11.122  23.169  0.00  0.00    +0.000 NA
ATOM     25  N   UNL     1      -1.546  11.686  22.373  0.00  0.00    +0.000 NA
ATOM     26  N   UNL     1      -1.134  11.396  21.133  0.00  0.00    +0.000 N 
ATOM     27  H   UNL     1      -1.647  11.758  20.341  0.00  0.00    +0.000 HD
ENDBRANCH   5  22
BRANCH  15  28
ATOM     28  N   UNL     1       4.836   2.915  18.419  0.00  0.00    +0.000 N 
ATOM     29  H   UNL     1       5.413   2.933  19.250  0.00  0.00    +0.000 HD
BRANCH  28  30
ATOM     30  C   UNL     1       3.907   1.816  18.369  0.00  0.00    +0.000 C 
BRANCH  30  31
ATOM     31  C   UNL     1       2.636   2.133  19.107  0.00  0.00    +0.000 A 
ATOM     32  C   UNL     1       1.476   2.409  18.376  0.00  0.00    +0.000 A 
ATOM     33  C   UNL     1       0.304   2.779  19.030  0.00  0.00    +0.000 A 
ATOM     34  C   UNL     1       0.270   2.851  20.420  0.00  0.00    +0.000 A 
ATOM     35  C   UNL     1       1.400   2.514  21.164  0.00  0.00    +0.000 A 
ATOM     36  C   UNL     1       2.573   2.140  20.513  0.00  0.00    +0.000 A 
ENDBRANCH  30  31
ENDBRANCH  28  30
ENDBRANCH  15  28
TORSDOF 4
ENDMDL
MODEL 9
REMARK VINA RESULT:      -7.9      3.683     10.379
REMARK  Name = 
REMARK  5 active torsions:
REMARK  status: ('A' for Active; 'I' for Inactive)
REMARK    1  A    between atoms: C_1  and  C_2
REMARK    2  A    between atoms: C_5  and  C_6
REMARK    3  A    between atoms: C_20  and  N_21
REMARK    4  A    between atoms: N_21  and  C_22
REMARK    5  A    between atoms: C_22  and  C_23
REMARK                            x       y       z     vdW  Elec       q    Type
REMARK                         _______ _______ _______ _____ _____    ______ ____
ROOT
ATOM      1  C   UNL     1      -2.208  11.789  18.062  0.00  0.00    +0.000 C 
ATOM      2  C   UNL     1      -1.475  11.116  19.167  0.00  0.00    +0.000 A 
ATOM      3  C   UNL     1      -0.488  10.170  19.011  0.00  0.00    +0.000 A 
ATOM      4  C   UNL     1       0.016   9.820  20.287  0.00  0.00    +0.000 A 
ATOM      5  C   UNL     1       1.038   8.925  20.720  0.00  0.00    +0.000 A 
ATOM      6  C   UNL     1       1.325   8.844  22.089  0.00  0.00    +0.000 A 
ATOM      7  C   UNL     1       0.611   9.600  23.008  0.00  0.00    +0.000 A 
ATOM      8  C   UNL     1      -0.399  10.483  22.594  0.00  0.00    +0.000 A 
ATOM      9  C   UNL     1      -0.691  10.601  21.220  0.00  0.00    +0.000 A 
ATOM     10  N   UNL     1      -1.627  11.410  20.529  0.00  0.00    +0.000 N 
ATOM     11  C   UNL     1      -2.544  12.417  21.090  0.00  0.00    +0.000 A 
ATOM     12  N   UNL     1      -2.370  12.848  22.362  0.00  0.00    +0.000 NA
ATOM     13  C   UNL     1      -3.097  13.932  22.755  0.00  0.00    +0.000 A 
ATOM     14  C   UNL     1      -3.969  14.585  21.914  0.00  0.00    +0.000 A 
ATOM     15  C   UNL     1      -4.175  14.014  20.670  0.00  0.00    +0.000 A 
ATOM     16  N   UNL     1      -3.484  12.937  20.258  0.00  0.00    +0.000 NA
ATOM     17  C   UNL     1      -4.598  15.895  22.280  0.00  0.00    +0.000 C 
ATOM     18  N   UNL     1      -4.900  16.069  23.689  0.00  0.00    +0.000 NA
ATOM     19  C   UNL     1      -3.876  15.582  24.599  0.00  0.00    +0.000 C 
ATOM     20  C   UNL     1      -2.906  14.464  24.151  0.00  0.00    +0.000 C 
ATOM     21  H   UNL     1      -5.806  15.655  23.896  0.00  0.00    +0.000 HD
ENDROOT
BRANCH   5  22
ATOM     22  C   UNL     1       1.790   8.117  19.766  0.00  0.00    +0.000 A 
ATOM     23  N   UNL     1       2.154   8.450  18.539  0.00  0.00    +0.000 NA
ATOM     24  N   UNL     1       2.851   7.382  18.028  0.00  0.00    +0.000 NA
ATOM     25  N   UNL     1       2.954   6.412  18.924  0.00  0.00    +0.000 NA
ATOM     26  N   UNL     1       2.318   6.875  20.007  0.00  0.00    +0.000 N 
ATOM     27  H   UNL     1       2.297   6.316  20.849  0.00  0.00    +0.000 HD
ENDBRANCH   5  22
BRANCH  15  28
ATOM     28  N   UNL     1      -5.102  14.662  19.855  0.00  0.00    +0.000 N 
ATOM     29  H   UNL     1      -4.707  14.825  18.938  0.00  0.00    +0.000 HD
BRANCH  28  30
ATOM     30  C   UNL     1      -6.505  14.338  19.843  0.00  0.00    +0.000 C 
BRANCH  30  31
ATOM     31  C   UNL     1      -6.730  12.866  19.637  0.00  0.00    +0.000 A 
ATOM     32  C   UNL     1      -7.256  12.105  20.686  0.00  0.00    +0.000 A 
ATOM     33  C   UNL     1      -7.406  10.727  20.550  0.00  0.00    +0.000 A 
ATOM     34  C   UNL     1      -7.057  10.099  19.357  0.00  0.00    +0.000 A 
ATOM     35  C   UNL     1      -6.595  10.855  18.280  0.00  0.00    +0.000 A 
ATOM     36  C   UNL     1      -6.448  12.233  18.412  0.00  0.00    +0.000 A 
ENDBRANCH  30  31
ENDBRANCH  28  30
ENDBRANCH  15  28
TORSDOF 4
ENDMDL
