MODEL 1
REMARK VINA RESULT:      -7.3      0.000      0.000
REMARK  Name = 
REMARK  5 active torsions:
REMARK  status: ('A' for Active; 'I' for Inactive)
REMARK    1  A    between atoms: C_1  and  C_2
REMARK    2  A    between atoms: C_7  and  O_8
REMARK    3  A    between atoms: O_8  and  C_9
REMARK    4  A    between atoms: C_13  and  C_14
REMARK    5  A    between atoms: C_14  and  N_15
REMARK                            x       y       z     vdW  Elec       q    Type
REMARK                         _______ _______ _______ _____ _____    ______ ____
ROOT
ATOM      1  C   UNL     1       3.909   3.910  19.626  0.00  0.00    +0.000 A 
ATOM      2  C   UNL     1       2.984   2.880  19.755  0.00  0.00    +0.000 A 
ATOM      3  C   UNL     1       1.634   3.187  19.916  0.00  0.00    +0.000 A 
ATOM      4  C   UNL     1       1.234   4.510  20.107  0.00  0.00    +0.000 A 
ATOM      5  C   UNL     1       2.192   5.532  20.200  0.00  0.00    +0.000 A 
ATOM      6  C   UNL     1       3.532   5.219  19.935  0.00  0.00    +0.000 A 
ENDROOT
BRANCH   1   7
ATOM      7  O   UNL     1       5.196   3.733  19.193  0.00  0.00    +0.000 OA
BRANCH   7  14
ATOM      8  C   UNL     1       7.628   5.748  19.008  0.00  0.00    +0.000 C 
ATOM      9  C   UNL     1       6.749   5.223  17.898  0.00  0.00    +0.000 A 
ATOM     10  C   UNL     1       7.056   5.712  16.607  0.00  0.00    +0.000 A 
ATOM     11  C   UNL     1       6.344   5.285  15.481  0.00  0.00    +0.000 A 
ATOM     12  C   UNL     1       5.310   4.371  15.629  0.00  0.00    +0.000 A 
ATOM     13  C   UNL     1       4.973   3.905  16.893  0.00  0.00    +0.000 A 
ATOM     14  C   UNL     1       5.664   4.338  18.042  0.00  0.00    +0.000 A 
ENDBRANCH   7  14
ENDBRANCH   1   7
BRANCH   5  15
ATOM     15  C   UNL     1       1.792   6.932  20.583  0.00  0.00    +0.000 C 
BRANCH  15  16
ATOM     16  N   UNL     1       1.929   7.881  19.495  0.00  0.00    +0.000 N 
ATOM     17  C   UNL     1       1.355   9.120  19.418  0.00  0.00    +0.000 A 
ATOM     18  C   UNL     1       1.607   9.549  18.136  0.00  0.00    +0.000 A 
ATOM     19  N   UNL     1       2.328   8.612  17.442  0.00  0.00    +0.000 NA
ATOM     20  C   UNL     1       2.509   7.621  18.286  0.00  0.00    +0.000 A 
ENDBRANCH  15  16
ENDBRANCH   5  15
TORSDOF 4
ENDMDL
MODEL 2
REMARK VINA RESULT:      -7.2      2.457      5.746
REMARK  Name = 
REMARK  5 active torsions:
REMARK  status: ('A' for Active; 'I' for Inactive)
REMARK    1  A    between atoms: C_1  and  C_2
REMARK    2  A    between atoms: C_7  and  O_8
REMARK    3  A    between atoms: O_8  and  C_9
REMARK    4  A    between atoms: C_13  and  C_14
REMARK    5  A    between atoms: C_14  and  N_15
REMARK                            x       y       z     vdW  Elec       q    Type
REMARK                         _______ _______ _______ _____ _____    ______ ____
ROOT
ATOM      1  C   UNL     1       2.606   5.523  19.263  0.00  0.00    +0.000 A 
ATOM      2  C   UNL     1       1.665   4.738  18.607  0.00  0.00    +0.000 A 
ATOM      3  C   UNL     1       2.073   3.574  17.959  0.00  0.00    +0.000 A 
ATOM      4  C   UNL     1       3.432   3.284  17.832  0.00  0.00    +0.000 A 
ATOM      5  C   UNL     1       4.396   4.191  18.300  0.00  0.00    +0.000 A 
ATOM      6  C   UNL     1       3.967   5.303  19.037  0.00  0.00    +0.000 A 
ENDROOT
BRANCH   1   7
ATOM      7  O   UNL     1       2.289   6.518  20.150  0.00  0.00    +0.000 OA
BRANCH   7  14
ATOM      8  C   UNL     1       0.643   8.609  21.860  0.00  0.00    +0.000 C 
ATOM      9  C   UNL     1       1.153   8.738  20.443  0.00  0.00    +0.000 A 
ATOM     10  C   UNL     1       0.837   9.958  19.801  0.00  0.00    +0.000 A 
ATOM     11  C   UNL     1       1.274  10.226  18.499  0.00  0.00    +0.000 A 
ATOM     12  C   UNL     1       2.023   9.276  17.817  0.00  0.00    +0.000 A 
ATOM     13  C   UNL     1       2.314   8.060  18.421  0.00  0.00    +0.000 A 
ATOM     14  C   UNL     1       1.867   7.762  19.723  0.00  0.00    +0.000 A 
ENDBRANCH   7  14
ENDBRANCH   1   7
BRANCH   5  15
ATOM     15  C   UNL     1       5.858   3.980  18.012  0.00  0.00    +0.000 C 
BRANCH  15  16
ATOM     16  N   UNL     1       6.253   4.443  16.695  0.00  0.00    +0.000 N 
ATOM     17  C   UNL     1       6.091   3.775  15.514  0.00  0.00    +0.000 A 
ATOM     18  C   UNL     1       6.791   4.514  14.588  0.00  0.00    +0.000 A 
ATOM     19  N   UNL     1       7.359   5.615  15.175  0.00  0.00    +0.000 NA
ATOM     20  C   UNL     1       7.016   5.548  16.442  0.00  0.00    +0.000 A 
ENDBRANCH  15  16
ENDBRANCH   5  15
TORSDOF 4
ENDMDL
MODEL 3
REMARK VINA RESULT:      -7.2      2.968      6.277
REMARK  Name = 
REMARK  5 active torsions:
REMARK  status: ('A' for Active; 'I' for Inactive)
REMARK    1  A    between atoms: C_1  and  C_2
REMARK    2  A    between atoms: C_7  and  O_8
REMARK    3  A    between atoms: O_8  and  C_9
REMARK    4  A    between atoms: C_13  and  C_14
REMARK    5  A    between atoms: C_14  and  N_15
REMARK                            x       y       z     vdW  Elec       q    Type
REMARK                         _______ _______ _______ _____ _____    ______ ____
ROOT
ATOM      1  C   UNL     1       4.772   5.268  18.381  0.00  0.00    +0.000 A 
ATOM      2  C   UNL     1       4.063   6.412  18.031  0.00  0.00    +0.000 A 
ATOM      3  C   UNL     1       4.277   6.998  16.785  0.00  0.00    +0.000 A 
ATOM      4  C   UNL     1       5.305   6.537  15.962  0.00  0.00    +0.000 A 
ATOM      5  C   UNL     1       6.169   5.525  16.408  0.00  0.00    +0.000 A 
ATOM      6  C   UNL     1       5.876   4.880  17.618  0.00  0.00    +0.000 A 
ENDROOT
BRANCH   1   7
ATOM      7  O   UNL     1       4.451   4.463  19.441  0.00  0.00    +0.000 OA
BRANCH   7  14
ATOM      8  C   UNL     1       3.556   1.798  17.990  0.00  0.00    +0.000 C 
ATOM      9  C   UNL     1       2.767   2.668  18.940  0.00  0.00    +0.000 A 
ATOM     10  C   UNL     1       1.448   2.229  19.201  0.00  0.00    +0.000 A 
ATOM     11  C   UNL     1       0.615   2.920  20.087  0.00  0.00    +0.000 A 
ATOM     12  C   UNL     1       1.084   4.065  20.718  0.00  0.00    +0.000 A 
ATOM     13  C   UNL     1       2.365   4.529  20.448  0.00  0.00    +0.000 A 
ATOM     14  C   UNL     1       3.212   3.859  19.543  0.00  0.00    +0.000 A 
ENDBRANCH   7  14
ENDBRANCH   1   7
BRANCH   5  15
ATOM     15  C   UNL     1       7.387   5.142  15.611  0.00  0.00    +0.000 C 
BRANCH  15  16
ATOM     16  N   UNL     1       7.066   4.572  14.317  0.00  0.00    +0.000 N 
ATOM     17  C   UNL     1       7.612   4.922  13.113  0.00  0.00    +0.000 A 
ATOM     18  C   UNL     1       6.857   4.259  12.174  0.00  0.00    +0.000 A 
ATOM     19  N   UNL     1       5.881   3.509  12.776  0.00  0.00    +0.000 NA
ATOM     20  C   UNL     1       6.032   3.715  14.065  0.00  0.00    +0.000 A 
ENDBRANCH  15  16
ENDBRANCH   5  15
TORSDOF 4
ENDMDL
MODEL 4
REMARK VINA RESULT:      -7.2      0.637      1.762
REMARK  Name = 
REMARK  5 active torsions:
REMARK  status: ('A' for Active; 'I' for Inactive)
REMARK    1  A    between atoms: C_1  and  C_2
REMARK    2  A    between atoms: C_7  and  O_8
REMARK    3  A    between atoms: O_8  and  C_9
REMARK    4  A    between atoms: C_13  and  C_14
REMARK    5  A    between atoms: C_14  and  N_15
REMARK                            x       y       z     vdW  Elec       q    Type
REMARK                         _______ _______ _______ _____ _____    ______ ____
ROOT
ATOM      1  C   UNL     1       4.226   3.938  19.468  0.00  0.00    +0.000 A 
ATOM      2  C   UNL     1       3.351   2.858  19.469  0.00  0.00    +0.000 A 
ATOM      3  C   UNL     1       1.979   3.086  19.545  0.00  0.00    +0.000 A 
ATOM      4  C   UNL     1       1.495   4.374  19.780  0.00  0.00    +0.000 A 
ATOM      5  C   UNL     1       2.387   5.435  20.003  0.00  0.00    +0.000 A 
ATOM      6  C   UNL     1       3.758   5.206  19.822  0.00  0.00    +0.000 A 
ENDROOT
BRANCH   1   7
ATOM      7  O   UNL     1       5.549   3.851  19.124  0.00  0.00    +0.000 OA
BRANCH   7  14
ATOM      8  C   UNL     1       4.937   4.685  16.134  0.00  0.00    +0.000 C 
ATOM      9  C   UNL     1       5.936   5.282  17.097  0.00  0.00    +0.000 A 
ATOM     10  C   UNL     1       6.705   6.351  16.578  0.00  0.00    +0.000 A 
ATOM     11  C   UNL     1       7.645   7.019  17.368  0.00  0.00    +0.000 A 
ATOM     12  C   UNL     1       7.840   6.624  18.686  0.00  0.00    +0.000 A 
ATOM     13  C   UNL     1       7.117   5.555  19.201  0.00  0.00    +0.000 A 
ATOM     14  C   UNL     1       6.181   4.856  18.415  0.00  0.00    +0.000 A 
ENDBRANCH   7  14
ENDBRANCH   1   7
BRANCH   5  15
ATOM     15  C   UNL     1       1.886   6.787  20.434  0.00  0.00    +0.000 C 
BRANCH  15  16
ATOM     16  N   UNL     1       1.999   7.794  19.396  0.00  0.00    +0.000 N 
ATOM     17  C   UNL     1       1.457   9.049  19.417  0.00  0.00    +0.000 A 
ATOM     18  C   UNL     1       1.661   9.546  18.150  0.00  0.00    +0.000 A 
ATOM     19  N   UNL     1       2.322   8.632  17.371  0.00  0.00    +0.000 NA
ATOM     20  C   UNL     1       2.514   7.589  18.148  0.00  0.00    +0.000 A 
ENDBRANCH  15  16
ENDBRANCH   5  15
TORSDOF 4
ENDMDL
MODEL 5
REMARK VINA RESULT:      -7.2      3.558      6.727
REMARK  Name = 
REMARK  5 active torsions:
REMARK  status: ('A' for Active; 'I' for Inactive)
REMARK    1  A    between atoms: C_1  and  C_2
REMARK    2  A    between atoms: C_7  and  O_8
REMARK    3  A    between atoms: O_8  and  C_9
REMARK    4  A    between atoms: C_13  and  C_14
REMARK    5  A    between atoms: C_14  and  N_15
REMARK                            x       y       z     vdW  Elec       q    Type
REMARK                         _______ _______ _______ _____ _____    ______ ____
ROOT
ATOM      1  C   UNL     1       4.620   3.962  17.107  0.00  0.00    +0.000 A 
ATOM      2  C   UNL     1       4.478   5.293  17.477  0.00  0.00    +0.000 A 
ATOM      3  C   UNL     1       4.862   6.297  16.590  0.00  0.00    +0.000 A 
ATOM      4  C   UNL     1       5.530   5.971  15.410  0.00  0.00    +0.000 A 
ATOM      5  C   UNL     1       5.876   4.638  15.138  0.00  0.00    +0.000 A 
ATOM      6  C   UNL     1       5.393   3.635  15.989  0.00  0.00    +0.000 A 
ENDROOT
BRANCH   1   7
ATOM      7  O   UNL     1       4.033   2.916  17.768  0.00  0.00    +0.000 OA
BRANCH   7  14
ATOM      8  C   UNL     1       1.131   4.145  17.498  0.00  0.00    +0.000 C 
ATOM      9  C   UNL     1       1.834   3.644  18.738  0.00  0.00    +0.000 A 
ATOM     10  C   UNL     1       1.089   3.753  19.935  0.00  0.00    +0.000 A 
ATOM     11  C   UNL     1       1.604   3.297  21.153  0.00  0.00    +0.000 A 
ATOM     12  C   UNL     1       2.873   2.734  21.195  0.00  0.00    +0.000 A 
ATOM     13  C   UNL     1       3.631   2.650  20.034  0.00  0.00    +0.000 A 
ATOM     14  C   UNL     1       3.139   3.122  18.801  0.00  0.00    +0.000 A 
ENDBRANCH   7  14
ENDBRANCH   1   7
BRANCH   5  15
ATOM     15  C   UNL     1       6.750   4.291  13.963  0.00  0.00    +0.000 C 
BRANCH  15  16
ATOM     16  N   UNL     1       6.019   3.679  12.869  0.00  0.00    +0.000 N 
ATOM     17  C   UNL     1       4.748   3.983  12.467  0.00  0.00    +0.000 A 
ATOM     18  C   UNL     1       4.427   3.015  11.544  0.00  0.00    +0.000 A 
ATOM     19  N   UNL     1       5.471   2.145  11.368  0.00  0.00    +0.000 NA
ATOM     20  C   UNL     1       6.415   2.570  12.177  0.00  0.00    +0.000 A 
ENDBRANCH  15  16
ENDBRANCH   5  15
TORSDOF 4
ENDMDL
MODEL 6
REMARK VINA RESULT:      -7.1      2.833      4.926
REMARK  Name = 
REMARK  5 active torsions:
REMARK  status: ('A' for Active; 'I' for Inactive)
REMARK    1  A    between atoms: C_1  and  C_2
REMARK    2  A    between atoms: C_7  and  O_8
REMARK    3  A    between atoms: O_8  and  C_9
REMARK    4  A    between atoms: C_13  and  C_14
REMARK    5  A    between atoms: C_14  and  N_15
REMARK                            x       y       z     vdW  Elec       q    Type
REMARK                         _______ _______ _______ _____ _____    ______ ____
ROOT
ATOM      1  C   UNL     1       6.027   5.525  16.282  0.00  0.00    +0.000 A 
ATOM      2  C   UNL     1       5.148   6.601  16.247  0.00  0.00    +0.000 A 
ATOM      3  C   UNL     1       4.295   6.826  17.326  0.00  0.00    +0.000 A 
ATOM      4  C   UNL     1       4.210   5.891  18.358  0.00  0.00    +0.000 A 
ATOM      5  C   UNL     1       4.934   4.690  18.286  0.00  0.00    +0.000 A 
ATOM      6  C   UNL     1       5.861   4.529  17.247  0.00  0.00    +0.000 A 
ENDROOT
BRANCH   1   7
ATOM      7  O   UNL     1       7.083   5.371  15.423  0.00  0.00    +0.000 OA
BRANCH   7  14
ATOM      8  C   UNL     1       8.881   5.998  12.897  0.00  0.00    +0.000 C 
ATOM      9  C   UNL     1       7.693   5.070  13.006  0.00  0.00    +0.000 A 
ATOM     10  C   UNL     1       7.339   4.406  11.808  0.00  0.00    +0.000 A 
ATOM     11  C   UNL     1       6.280   3.493  11.771  0.00  0.00    +0.000 A 
ATOM     12  C   UNL     1       5.553   3.238  12.926  0.00  0.00    +0.000 A 
ATOM     13  C   UNL     1       5.866   3.906  14.103  0.00  0.00    +0.000 A 
ATOM     14  C   UNL     1       6.915   4.844  14.156  0.00  0.00    +0.000 A 
ENDBRANCH   7  14
ENDBRANCH   1   7
BRANCH   5  15
ATOM     15  C   UNL     1       4.717   3.596  19.297  0.00  0.00    +0.000 C 
BRANCH  15  16
ATOM     16  N   UNL     1       3.364   3.074  19.291  0.00  0.00    +0.000 N 
ATOM     17  C   UNL     1       2.737   2.448  18.250  0.00  0.00    +0.000 A 
ATOM     18  C   UNL     1       1.426   2.321  18.649  0.00  0.00    +0.000 A 
ATOM     19  N   UNL     1       1.248   2.841  19.905  0.00  0.00    +0.000 NA
ATOM     20  C   UNL     1       2.431   3.284  20.267  0.00  0.00    +0.000 A 
ENDBRANCH  15  16
ENDBRANCH   5  15
TORSDOF 4
ENDMDL
MODEL 7
REMARK VINA RESULT:      -7.1      2.156      3.933
REMARK  Name = 
REMARK  5 active torsions:
REMARK  status: ('A' for Active; 'I' for Inactive)
REMARK    1  A    between atoms: C_1  and  C_2
REMARK    2  A    between atoms: C_7  and  O_8
REMARK    3  A    between atoms: O_8  and  C_9
REMARK    4  A    between atoms: C_13  and  C_14
REMARK    5  A    between atoms: C_14  and  N_15
REMARK                            x       y       z     vdW  Elec       q    Type
REMARK                         _______ _______ _______ _____ _____    ______ ____
ROOT
ATOM      1  C   UNL     1       3.932   7.273  17.813  0.00  0.00    +0.000 A 
ATOM      2  C   UNL     1       2.899   8.203  17.843  0.00  0.00    +0.000 A 
ATOM      3  C   UNL     1       1.959   8.151  18.870  0.00  0.00    +0.000 A 
ATOM      4  C   UNL     1       1.960   7.082  19.767  0.00  0.00    +0.000 A 
ATOM      5  C   UNL     1       2.865   6.022  19.604  0.00  0.00    +0.000 A 
ATOM      6  C   UNL     1       3.866   6.141  18.629  0.00  0.00    +0.000 A 
ENDROOT
BRANCH   1   7
ATOM      7  O   UNL     1       5.048   7.393  17.028  0.00  0.00    +0.000 OA
BRANCH   7  14
ATOM      8  C   UNL     1       7.559   6.037  18.392  0.00  0.00    +0.000 C 
ATOM      9  C   UNL     1       6.832   5.629  17.132  0.00  0.00    +0.000 A 
ATOM     10  C   UNL     1       7.360   4.493  16.477  0.00  0.00    +0.000 A 
ATOM     11  C   UNL     1       6.767   3.984  15.317  0.00  0.00    +0.000 A 
ATOM     12  C   UNL     1       5.643   4.608  14.789  0.00  0.00    +0.000 A 
ATOM     13  C   UNL     1       5.132   5.745  15.402  0.00  0.00    +0.000 A 
ATOM     14  C   UNL     1       5.727   6.285  16.559  0.00  0.00    +0.000 A 
ENDBRANCH   7  14
ENDBRANCH   1   7
BRANCH   5  15
ATOM     15  C   UNL     1       2.762   4.781  20.449  0.00  0.00    +0.000 C 
BRANCH  15  16
ATOM     16  N   UNL     1       2.290   3.626  19.711  0.00  0.00    +0.000 N 
ATOM     17  C   UNL     1       3.051   2.590  19.244  0.00  0.00    +0.000 A 
ATOM     18  C   UNL     1       2.202   1.855  18.449  0.00  0.00    +0.000 A 
ATOM     19  N   UNL     1       0.949   2.410  18.434  0.00  0.00    +0.000 NA
ATOM     20  C   UNL     1       1.031   3.472  19.203  0.00  0.00    +0.000 A 
ENDBRANCH  15  16
ENDBRANCH   5  15
TORSDOF 4
ENDMDL
MODEL 8
REMARK VINA RESULT:      -7.1      2.925      6.205
REMARK  Name = 
REMARK  5 active torsions:
REMARK  status: ('A' for Active; 'I' for Inactive)
REMARK    1  A    between atoms: C_1  and  C_2
REMARK    2  A    between atoms: C_7  and  O_8
REMARK    3  A    between atoms: O_8  and  C_9
REMARK    4  A    between atoms: C_13  and  C_14
REMARK    5  A    between atoms: C_14  and  N_15
REMARK                            x       y       z     vdW  Elec       q    Type
REMARK                         _______ _______ _______ _____ _____    ______ ____
ROOT
ATOM      1  C   UNL     1       4.676   5.214  18.319  0.00  0.00    +0.000 A 
ATOM      2  C   UNL     1       3.994   6.381  17.995  0.00  0.00    +0.000 A 
ATOM      3  C   UNL     1       4.253   7.011  16.779  0.00  0.00    +0.000 A 
ATOM      4  C   UNL     1       5.299   6.567  15.969  0.00  0.00    +0.000 A 
ATOM      5  C   UNL     1       6.135   5.526  16.400  0.00  0.00    +0.000 A 
ATOM      6  C   UNL     1       5.797   4.839  17.574  0.00  0.00    +0.000 A 
ENDROOT
BRANCH   1   7
ATOM      7  O   UNL     1       4.313   4.372  19.337  0.00  0.00    +0.000 OA
BRANCH   7  14
ATOM      8  C   UNL     1       1.744   5.493  20.804  0.00  0.00    +0.000 C 
ATOM      9  C   UNL     1       1.891   4.231  19.987  0.00  0.00    +0.000 A 
ATOM     10  C   UNL     1       0.719   3.446  19.878  0.00  0.00    +0.000 A 
ATOM     11  C   UNL     1       0.703   2.268  19.125  0.00  0.00    +0.000 A 
ATOM     12  C   UNL     1       1.858   1.851  18.476  0.00  0.00    +0.000 A 
ATOM     13  C   UNL     1       3.026   2.592  18.600  0.00  0.00    +0.000 A 
ATOM     14  C   UNL     1       3.069   3.770  19.371  0.00  0.00    +0.000 A 
ENDBRANCH   7  14
ENDBRANCH   1   7
BRANCH   5  15
ATOM     15  C   UNL     1       7.371   5.156  15.624  0.00  0.00    +0.000 C 
BRANCH  15  16
ATOM     16  N   UNL     1       7.078   4.584  14.324  0.00  0.00    +0.000 N 
ATOM     17  C   UNL     1       7.645   4.939  13.131  0.00  0.00    +0.000 A 
ATOM     18  C   UNL     1       6.912   4.271  12.177  0.00  0.00    +0.000 A 
ATOM     19  N   UNL     1       5.929   3.515  12.760  0.00  0.00    +0.000 NA
ATOM     20  C   UNL     1       6.055   3.721  14.051  0.00  0.00    +0.000 A 
ENDBRANCH  15  16
ENDBRANCH   5  15
TORSDOF 4
ENDMDL
MODEL 9
REMARK VINA RESULT:      -7.0      2.434      5.551
REMARK  Name = 
REMARK  5 active torsions:
REMARK  status: ('A' for Active; 'I' for Inactive)
REMARK    1  A    between atoms: C_1  and  C_2
REMARK    2  A    between atoms: C_7  and  O_8
REMARK    3  A    between atoms: O_8  and  C_9
REMARK    4  A    between atoms: C_13  and  C_14
REMARK    5  A    between atoms: C_14  and  N_15
REMARK                            x       y       z     vdW  Elec       q    Type
REMARK                         _______ _______ _______ _____ _____    ______ ____
ROOT
ATOM      1  C   UNL     1       2.704   5.662  18.969  0.00  0.00    +0.000 A 
ATOM      2  C   UNL     1       1.817   4.835  18.290  0.00  0.00    +0.000 A 
ATOM      3  C   UNL     1       2.308   3.758  17.555  0.00  0.00    +0.000 A 
ATOM      4  C   UNL     1       3.682   3.605  17.370  0.00  0.00    +0.000 A 
ATOM      5  C   UNL     1       4.575   4.566  17.869  0.00  0.00    +0.000 A 
ATOM      6  C   UNL     1       4.071   5.584  18.690  0.00  0.00    +0.000 A 
ENDROOT
BRANCH   1   7
ATOM      7  O   UNL     1       2.329   6.564  19.929  0.00  0.00    +0.000 OA
BRANCH   7  14
ATOM      8  C   UNL     1       0.793   8.551  21.852  0.00  0.00    +0.000 C 
ATOM      9  C   UNL     1       1.210   8.759  20.415  0.00  0.00    +0.000 A 
ATOM     10  C   UNL     1       0.851  10.010  19.862  0.00  0.00    +0.000 A 
ATOM     11  C   UNL     1       1.202  10.351  18.551  0.00  0.00    +0.000 A 
ATOM     12  C   UNL     1       1.908   9.444  17.771  0.00  0.00    +0.000 A 
ATOM     13  C   UNL     1       2.239   8.198  18.289  0.00  0.00    +0.000 A 
ATOM     14  C   UNL     1       1.877   7.828  19.598  0.00  0.00    +0.000 A 
ENDBRANCH   7  14
ENDBRANCH   1   7
BRANCH   5  15
ATOM     15  C   UNL     1       6.040   4.512  17.526  0.00  0.00    +0.000 C 
BRANCH  15  16
ATOM     16  N   UNL     1       6.736   5.755  17.800  0.00  0.00    +0.000 N 
ATOM     17  C   UNL     1       6.747   6.873  17.013  0.00  0.00    +0.000 A 
ATOM     18  C   UNL     1       7.690   7.698  17.581  0.00  0.00    +0.000 A 
ATOM     19  N   UNL     1       8.238   7.115  18.694  0.00  0.00    +0.000 NA
ATOM     20  C   UNL     1       7.644   5.949  18.802  0.00  0.00    +0.000 A 
ENDBRANCH  15  16
ENDBRANCH   5  15
TORSDOF 4
ENDMDL
