MODEL 1
REMARK VINA RESULT:      -8.9      0.000      0.000
REMARK  Name = 
REMARK  7 active torsions:
REMARK  status: ('A' for Active; 'I' for Inactive)
REMARK    1  A    between atoms: C_1  and  C_2
REMARK    2  A    between atoms: C_2  and  N_3
REMARK    3  A    between atoms: C_2  and  C_24
REMARK    4  A    between atoms: C_4  and  C_6
REMARK    5  A    between atoms: C_6  and  C_7
REMARK    6  A    between atoms: C_6  and  N_8
REMARK    7  A    between atoms: C_12  and  C_13
REMARK                            x       y       z     vdW  Elec       q    Type
REMARK                         _______ _______ _______ _____ _____    ______ ____
ROOT
ATOM      1  N   UNL     1       2.985   3.779  19.481  0.00  0.00    +0.000 NA
ATOM      2  C   UNL     1       1.875   2.874  19.789  0.00  0.00    +0.000 C 
ATOM      3  C   UNL     1       1.142   2.678  18.484  0.00  0.00    +0.000 C 
ATOM      4  C   UNL     1       1.271   4.020  17.792  0.00  0.00    +0.000 C 
ATOM      5  C   UNL     1       2.513   4.691  18.411  0.00  0.00    +0.000 C 
ENDROOT
BRANCH   5   6
ATOM      6  C   UNL     1       2.178   6.087  18.941  0.00  0.00    +0.000 A 
ATOM      7  C   UNL     1       1.919   6.332  20.299  0.00  0.00    +0.000 A 
ATOM      8  C   UNL     1       1.597   7.613  20.749  0.00  0.00    +0.000 A 
ATOM      9  C   UNL     1       1.529   8.682  19.857  0.00  0.00    +0.000 A 
ATOM     10  C   UNL     1       1.842   8.476  18.509  0.00  0.00    +0.000 A 
ATOM     11  C   UNL     1       2.146   7.184  18.057  0.00  0.00    +0.000 A 
ATOM     12  O   UNL     1       1.885   9.457  17.548  0.00  0.00    +0.000 OA
ATOM     13  C   UNL     1       2.417  10.690  18.037  0.00  0.00    +0.000 C 
ATOM     14  C   UNL     1       1.337  11.546  18.676  0.00  0.00    +0.000 C 
ATOM     15  C   UNL     1       0.415  10.724  19.556  0.00  0.00    +0.000 C 
ATOM     16  O   UNL     1       1.163   9.876  20.426  0.00  0.00    +0.000 OA
ENDBRANCH   5   6
BRANCH   1  17
ATOM     17  C   UNL     1       4.284   3.105  19.238  0.00  0.00    +0.000 C 
ATOM     18  C   UNL     1       4.760   2.256  20.422  0.00  0.00    +0.000 C 
BRANCH  17  20
ATOM     19  N   UNL     1       5.657   4.120  17.465  0.00  0.00    +0.000 N 
ATOM     20  C   UNL     1       5.408   4.077  18.822  0.00  0.00    +0.000 C 
ATOM     21  O   UNL     1       6.019   4.776  19.631  0.00  0.00    +0.000 OA
ATOM     22  H   UNL     1       5.101   3.545  16.847  0.00  0.00    +0.000 HD
BRANCH  19  24
ATOM     23  C   UNL     1       6.191   6.504  17.136  0.00  0.00    +0.000 C 
ATOM     24  C   UNL     1       6.605   5.053  16.873  0.00  0.00    +0.000 C 
BRANCH  24  25
ATOM     25  C   UNL     1       6.730   4.792  15.380  0.00  0.00    +0.000 A 
ATOM     26  C   UNL     1       7.705   5.462  14.620  0.00  0.00    +0.000 A 
ATOM     27  C   UNL     1       7.839   5.203  13.253  0.00  0.00    +0.000 A 
ATOM     28  C   UNL     1       7.000   4.278  12.644  0.00  0.00    +0.000 A 
ATOM     29  F   UNL     1       7.145   4.011  11.339  0.00  0.00    +0.000 F 
ATOM     30  C   UNL     1       6.016   3.621  13.369  0.00  0.00    +0.000 A 
ATOM     31  C   UNL     1       5.877   3.881  14.731  0.00  0.00    +0.000 A 
ENDBRANCH  24  25
ENDBRANCH  19  24
ENDBRANCH  17  20
ENDBRANCH   1  17
TORSDOF 5
ENDMDL
MODEL 2
REMARK VINA RESULT:      -8.2      1.109      1.841
REMARK  Name = 
REMARK  7 active torsions:
REMARK  status: ('A' for Active; 'I' for Inactive)
REMARK    1  A    between atoms: C_1  and  C_2
REMARK    2  A    between atoms: C_2  and  N_3
REMARK    3  A    between atoms: C_2  and  C_24
REMARK    4  A    between atoms: C_4  and  C_6
REMARK    5  A    between atoms: C_6  and  C_7
REMARK    6  A    between atoms: C_6  and  N_8
REMARK    7  A    between atoms: C_12  and  C_13
REMARK                            x       y       z     vdW  Elec       q    Type
REMARK                         _______ _______ _______ _____ _____    ______ ____
ROOT
ATOM      1  N   UNL     1       3.181   4.259  20.142  0.00  0.00    +0.000 NA
ATOM      2  C   UNL     1       2.709   3.688  21.406  0.00  0.00    +0.000 C 
ATOM      3  C   UNL     1       1.378   3.049  21.087  0.00  0.00    +0.000 C 
ATOM      4  C   UNL     1       0.783   3.962  20.033  0.00  0.00    +0.000 C 
ATOM      5  C   UNL     1       1.978   4.692  19.389  0.00  0.00    +0.000 C 
ENDROOT
BRANCH   5   6
ATOM      6  C   UNL     1       1.783   6.209  19.426  0.00  0.00    +0.000 A 
ATOM      7  C   UNL     1       2.134   7.037  18.348  0.00  0.00    +0.000 A 
ATOM      8  C   UNL     1       1.962   8.421  18.418  0.00  0.00    +0.000 A 
ATOM      9  C   UNL     1       1.432   9.012  19.564  0.00  0.00    +0.000 A 
ATOM     10  C   UNL     1       1.018   8.203  20.628  0.00  0.00    +0.000 A 
ATOM     11  C   UNL     1       1.210   6.815  20.562  0.00  0.00    +0.000 A 
ATOM     12  O   UNL     1       0.414   8.655  21.776  0.00  0.00    +0.000 OA
ATOM     13  C   UNL     1      -0.496   9.731  21.539  0.00  0.00    +0.000 C 
ATOM     14  C   UNL     1       0.218  11.072  21.542  0.00  0.00    +0.000 C 
ATOM     15  C   UNL     1       1.528  11.014  20.781  0.00  0.00    +0.000 C 
ATOM     16  O   UNL     1       1.355  10.380  19.514  0.00  0.00    +0.000 OA
ENDBRANCH   5   6
BRANCH   1  17
ATOM     17  C   UNL     1       4.145   3.410  19.400  0.00  0.00    +0.000 C 
ATOM     18  C   UNL     1       4.697   2.247  20.232  0.00  0.00    +0.000 C 
BRANCH  17  20
ATOM     19  N   UNL     1       5.107   4.645  17.501  0.00  0.00    +0.000 N 
ATOM     20  C   UNL     1       5.318   4.207  18.793  0.00  0.00    +0.000 C 
ATOM     21  O   UNL     1       6.352   4.452  19.416  0.00  0.00    +0.000 OA
ATOM     22  H   UNL     1       4.225   4.439  17.052  0.00  0.00    +0.000 HD
BRANCH  19  24
ATOM     23  C   UNL     1       5.576   6.957  16.785  0.00  0.00    +0.000 C 
ATOM     24  C   UNL     1       6.054   5.501  16.801  0.00  0.00    +0.000 C 
BRANCH  24  25
ATOM     25  C   UNL     1       6.270   4.992  15.385  0.00  0.00    +0.000 A 
ATOM     26  C   UNL     1       7.404   5.385  14.652  0.00  0.00    +0.000 A 
ATOM     27  C   UNL     1       7.618   4.896  13.360  0.00  0.00    +0.000 A 
ATOM     28  C   UNL     1       6.701   4.015  12.799  0.00  0.00    +0.000 A 
ATOM     29  F   UNL     1       6.919   3.526  11.571  0.00  0.00    +0.000 F 
ATOM     30  C   UNL     1       5.563   3.629  13.495  0.00  0.00    +0.000 A 
ATOM     31  C   UNL     1       5.345   4.120  14.781  0.00  0.00    +0.000 A 
ENDBRANCH  24  25
ENDBRANCH  19  24
ENDBRANCH  17  20
ENDBRANCH   1  17
TORSDOF 5
ENDMDL
MODEL 3
REMARK VINA RESULT:      -8.2      3.671      8.202
REMARK  Name = 
REMARK  7 active torsions:
REMARK  status: ('A' for Active; 'I' for Inactive)
REMARK    1  A    between atoms: C_1  and  C_2
REMARK    2  A    between atoms: C_2  and  N_3
REMARK    3  A    between atoms: C_2  and  C_24
REMARK    4  A    between atoms: C_4  and  C_6
REMARK    5  A    between atoms: C_6  and  C_7
REMARK    6  A    between atoms: C_6  and  N_8
REMARK    7  A    between atoms: C_12  and  C_13
REMARK                            x       y       z     vdW  Elec       q    Type
REMARK                         _______ _______ _______ _____ _____    ______ ____
ROOT
ATOM      1  N   UNL     1       2.635   6.171  19.058  0.00  0.00    +0.000 NA
ATOM      2  C   UNL     1       1.568   5.177  18.916  0.00  0.00    +0.000 C 
ATOM      3  C   UNL     1       1.794   4.182  20.031  0.00  0.00    +0.000 C 
ATOM      4  C   UNL     1       3.303   4.126  20.163  0.00  0.00    +0.000 C 
ATOM      5  C   UNL     1       3.823   5.456  19.581  0.00  0.00    +0.000 C 
ENDROOT
BRANCH   5   6
ATOM      6  C   UNL     1       4.878   5.210  18.501  0.00  0.00    +0.000 A 
ATOM      7  C   UNL     1       6.247   5.113  18.797  0.00  0.00    +0.000 A 
ATOM      8  C   UNL     1       7.189   4.908  17.786  0.00  0.00    +0.000 A 
ATOM      9  C   UNL     1       6.787   4.790  16.457  0.00  0.00    +0.000 A 
ATOM     10  C   UNL     1       5.424   4.823  16.143  0.00  0.00    +0.000 A 
ATOM     11  C   UNL     1       4.482   5.048  17.158  0.00  0.00    +0.000 A 
ATOM     12  O   UNL     1       4.897   4.643  14.887  0.00  0.00    +0.000 OA
ATOM     13  C   UNL     1       5.596   3.656  14.127  0.00  0.00    +0.000 C 
ATOM     14  C   UNL     1       6.787   4.256  13.399  0.00  0.00    +0.000 C 
ATOM     15  C   UNL     1       7.564   5.211  14.284  0.00  0.00    +0.000 C 
ATOM     16  O   UNL     1       7.816   4.632  15.564  0.00  0.00    +0.000 OA
ENDBRANCH   5   6
BRANCH   1  17
ATOM     17  C   UNL     1       2.241   7.402  19.784  0.00  0.00    +0.000 C 
ATOM     18  C   UNL     1       1.117   7.176  20.802  0.00  0.00    +0.000 C 
BRANCH  17  20
ATOM     19  N   UNL     1       1.078   9.544  19.436  0.00  0.00    +0.000 N 
ATOM     20  C   UNL     1       1.855   8.566  18.848  0.00  0.00    +0.000 C 
ATOM     21  O   UNL     1       2.228   8.632  17.676  0.00  0.00    +0.000 OA
ATOM     22  H   UNL     1       0.829   9.449  20.411  0.00  0.00    +0.000 HD
BRANCH  19  24
ATOM     23  C   UNL     1       1.079  12.005  19.569  0.00  0.00    +0.000 C 
ATOM     24  C   UNL     1       0.705  10.769  18.744  0.00  0.00    +0.000 C 
BRANCH  24  25
ATOM     25  C   UNL     1      -0.783  10.761  18.433  0.00  0.00    +0.000 A 
ATOM     26  C   UNL     1      -1.647  11.676  19.062  0.00  0.00    +0.000 A 
ATOM     27  C   UNL     1      -3.011  11.687  18.757  0.00  0.00    +0.000 A 
ATOM     28  C   UNL     1      -3.514  10.786  17.825  0.00  0.00    +0.000 A 
ATOM     29  F   UNL     1      -4.816  10.814  17.514  0.00  0.00    +0.000 F 
ATOM     30  C   UNL     1      -2.685   9.860  17.208  0.00  0.00    +0.000 A 
ATOM     31  C   UNL     1      -1.325   9.843  17.514  0.00  0.00    +0.000 A 
ENDBRANCH  24  25
ENDBRANCH  19  24
ENDBRANCH  17  20
ENDBRANCH   1  17
TORSDOF 5
ENDMDL
MODEL 4
REMARK VINA RESULT:      -8.0      3.133      7.574
REMARK  Name = 
REMARK  7 active torsions:
REMARK  status: ('A' for Active; 'I' for Inactive)
REMARK    1  A    between atoms: C_1  and  C_2
REMARK    2  A    between atoms: C_2  and  N_3
REMARK    3  A    between atoms: C_2  and  C_24
REMARK    4  A    between atoms: C_4  and  C_6
REMARK    5  A    between atoms: C_6  and  C_7
REMARK    6  A    between atoms: C_6  and  N_8
REMARK    7  A    between atoms: C_12  and  C_13
REMARK                            x       y       z     vdW  Elec       q    Type
REMARK                         _______ _______ _______ _____ _____    ______ ____
ROOT
ATOM      1  N   UNL     1       2.748   4.217  18.797  0.00  0.00    +0.000 NA
ATOM      2  C   UNL     1       1.791   3.272  18.216  0.00  0.00    +0.000 C 
ATOM      3  C   UNL     1       2.189   1.917  18.752  0.00  0.00    +0.000 C 
ATOM      4  C   UNL     1       3.700   1.994  18.842  0.00  0.00    +0.000 C 
ATOM      5  C   UNL     1       4.036   3.496  18.934  0.00  0.00    +0.000 C 
ENDROOT
BRANCH   5   6
ATOM      6  C   UNL     1       5.048   3.901  17.860  0.00  0.00    +0.000 A 
ATOM      7  C   UNL     1       6.322   4.398  18.179  0.00  0.00    +0.000 A 
ATOM      8  C   UNL     1       7.217   4.778  17.177  0.00  0.00    +0.000 A 
ATOM      9  C   UNL     1       6.864   4.668  15.833  0.00  0.00    +0.000 A 
ATOM     10  C   UNL     1       5.624   4.120  15.488  0.00  0.00    +0.000 A 
ATOM     11  C   UNL     1       4.720   3.757  16.497  0.00  0.00    +0.000 A 
ATOM     12  O   UNL     1       5.190   3.889  14.205  0.00  0.00    +0.000 OA
ATOM     13  C   UNL     1       6.233   3.437  13.339  0.00  0.00    +0.000 C 
ATOM     14  C   UNL     1       6.996   4.603  12.733  0.00  0.00    +0.000 C 
ATOM     15  C   UNL     1       7.287   5.680  13.759  0.00  0.00    +0.000 C 
ATOM     16  O   UNL     1       7.820   5.114  14.956  0.00  0.00    +0.000 OA
ENDBRANCH   5   6
BRANCH   1  17
ATOM     17  C   UNL     1       2.263   4.924  20.007  0.00  0.00    +0.000 C 
ATOM     18  C   UNL     1       0.808   4.596  20.362  0.00  0.00    +0.000 C 
BRANCH  17  20
ATOM     19  N   UNL     1       1.621   7.170  20.784  0.00  0.00    +0.000 N 
ATOM     20  C   UNL     1       2.436   6.455  19.930  0.00  0.00    +0.000 C 
ATOM     21  O   UNL     1       3.252   6.998  19.183  0.00  0.00    +0.000 OA
ATOM     22  H   UNL     1       0.992   6.667  21.395  0.00  0.00    +0.000 HD
BRANCH  19  24
ATOM     23  C   UNL     1       1.448   9.043  22.377  0.00  0.00    +0.000 C 
ATOM     24  C   UNL     1       1.716   8.615  20.930  0.00  0.00    +0.000 C 
BRANCH  24  25
ATOM     25  C   UNL     1       0.748   9.302  19.980  0.00  0.00    +0.000 A 
ATOM     26  C   UNL     1      -0.406   9.935  20.473  0.00  0.00    +0.000 A 
ATOM     27  C   UNL     1      -1.283  10.589  19.603  0.00  0.00    +0.000 A 
ATOM     28  C   UNL     1      -1.008  10.612  18.241  0.00  0.00    +0.000 A 
ATOM     29  F   UNL     1      -1.835  11.261  17.410  0.00  0.00    +0.000 F 
ATOM     30  C   UNL     1       0.114   9.976  17.728  0.00  0.00    +0.000 A 
ATOM     31  C   UNL     1       0.986   9.318  18.593  0.00  0.00    +0.000 A 
ENDBRANCH  24  25
ENDBRANCH  19  24
ENDBRANCH  17  20
ENDBRANCH   1  17
TORSDOF 5
ENDMDL
MODEL 5
REMARK VINA RESULT:      -8.0      3.957      8.756
REMARK  Name = 
REMARK  7 active torsions:
REMARK  status: ('A' for Active; 'I' for Inactive)
REMARK    1  A    between atoms: C_1  and  C_2
REMARK    2  A    between atoms: C_2  and  N_3
REMARK    3  A    between atoms: C_2  and  C_24
REMARK    4  A    between atoms: C_4  and  C_6
REMARK    5  A    between atoms: C_6  and  C_7
REMARK    6  A    between atoms: C_6  and  N_8
REMARK    7  A    between atoms: C_12  and  C_13
REMARK                            x       y       z     vdW  Elec       q    Type
REMARK                         _______ _______ _______ _____ _____    ______ ____
ROOT
ATOM      1  N   UNL     1       2.992   5.653  18.346  0.00  0.00    +0.000 NA
ATOM      2  C   UNL     1       1.866   4.797  17.963  0.00  0.00    +0.000 C 
ATOM      3  C   UNL     1       2.020   3.539  18.784  0.00  0.00    +0.000 C 
ATOM      4  C   UNL     1       3.521   3.356  18.886  0.00  0.00    +0.000 C 
ATOM      5  C   UNL     1       4.129   4.755  18.660  0.00  0.00    +0.000 C 
ENDROOT
BRANCH   5   6
ATOM      6  C   UNL     1       5.176   4.727  17.545  0.00  0.00    +0.000 A 
ATOM      7  C   UNL     1       6.551   4.847  17.804  0.00  0.00    +0.000 A 
ATOM      8  C   UNL     1       7.481   4.838  16.763  0.00  0.00    +0.000 A 
ATOM      9  C   UNL     1       7.063   4.706  15.440  0.00  0.00    +0.000 A 
ATOM     10  C   UNL     1       5.705   4.525  15.161  0.00  0.00    +0.000 A 
ATOM     11  C   UNL     1       4.771   4.553  16.207  0.00  0.00    +0.000 A 
ATOM     12  O   UNL     1       5.176   4.308  13.912  0.00  0.00    +0.000 OA
ATOM     13  C   UNL     1       6.004   3.479  13.094  0.00  0.00    +0.000 C 
ATOM     14  C   UNL     1       7.057   4.295  12.364  0.00  0.00    +0.000 C 
ATOM     15  C   UNL     1       7.694   5.331  13.269  0.00  0.00    +0.000 C 
ATOM     16  O   UNL     1       8.077   4.754  14.516  0.00  0.00    +0.000 OA
ENDBRANCH   5   6
BRANCH   1  17
ATOM     17  C   UNL     1       2.669   6.680  19.366  0.00  0.00    +0.000 C 
ATOM     18  C   UNL     1       1.883   6.127  20.560  0.00  0.00    +0.000 C 
BRANCH  17  20
ATOM     19  N   UNL     1       1.296   8.691  19.729  0.00  0.00    +0.000 N 
ATOM     20  C   UNL     1       1.928   7.903  18.788  0.00  0.00    +0.000 C 
ATOM     21  O   UNL     1       1.917   8.171  17.585  0.00  0.00    +0.000 OA
ATOM     22  H   UNL     1       1.366   8.437  20.706  0.00  0.00    +0.000 HD
BRANCH  19  24
ATOM     23  C   UNL     1       1.650  10.991  18.916  0.00  0.00    +0.000 C 
ATOM     24  C   UNL     1       0.637   9.943  19.388  0.00  0.00    +0.000 C 
BRANCH  24  25
ATOM     25  C   UNL     1      -0.154  10.458  20.579  0.00  0.00    +0.000 A 
ATOM     26  C   UNL     1      -0.065   9.813  21.826  0.00  0.00    +0.000 A 
ATOM     27  C   UNL     1      -0.771  10.302  22.929  0.00  0.00    +0.000 A 
ATOM     28  C   UNL     1      -1.565  11.434  22.789  0.00  0.00    +0.000 A 
ATOM     29  F   UNL     1      -2.221  11.917  23.852  0.00  0.00    +0.000 F 
ATOM     30  C   UNL     1      -1.685  12.075  21.564  0.00  0.00    +0.000 A 
ATOM     31  C   UNL     1      -0.987  11.587  20.461  0.00  0.00    +0.000 A 
ENDBRANCH  24  25
ENDBRANCH  19  24
ENDBRANCH  17  20
ENDBRANCH   1  17
TORSDOF 5
ENDMDL
MODEL 6
REMARK VINA RESULT:      -8.0      5.689     10.941
REMARK  Name = 
REMARK  7 active torsions:
REMARK  status: ('A' for Active; 'I' for Inactive)
REMARK    1  A    between atoms: C_1  and  C_2
REMARK    2  A    between atoms: C_2  and  N_3
REMARK    3  A    between atoms: C_2  and  C_24
REMARK    4  A    between atoms: C_4  and  C_6
REMARK    5  A    between atoms: C_6  and  C_7
REMARK    6  A    between atoms: C_6  and  N_8
REMARK    7  A    between atoms: C_12  and  C_13
REMARK                            x       y       z     vdW  Elec       q    Type
REMARK                         _______ _______ _______ _____ _____    ______ ____
ROOT
ATOM      1  N   UNL     1       0.411  10.221  19.535  0.00  0.00    +0.000 NA
ATOM      2  C   UNL     1       1.158  11.371  20.050  0.00  0.00    +0.000 C 
ATOM      3  C   UNL     1       1.771  12.029  18.837  0.00  0.00    +0.000 C 
ATOM      4  C   UNL     1       2.090  10.866  17.918  0.00  0.00    +0.000 C 
ATOM      5  C   UNL     1       1.150   9.723  18.350  0.00  0.00    +0.000 C 
ENDROOT
BRANCH   5   6
ATOM      6  C   UNL     1       1.937   8.445  18.648  0.00  0.00    +0.000 A 
ATOM      7  C   UNL     1       1.728   7.690  19.813  0.00  0.00    +0.000 A 
ATOM      8  C   UNL     1       2.476   6.539  20.066  0.00  0.00    +0.000 A 
ATOM      9  C   UNL     1       3.448   6.111  19.163  0.00  0.00    +0.000 A 
ATOM     10  C   UNL     1       3.633   6.812  17.967  0.00  0.00    +0.000 A 
ATOM     11  C   UNL     1       2.893   7.979  17.724  0.00  0.00    +0.000 A 
ATOM     12  O   UNL     1       4.501   6.452  16.964  0.00  0.00    +0.000 OA
ATOM     13  C   UNL     1       4.568   5.038  16.770  0.00  0.00    +0.000 C 
ATOM     14  C   UNL     1       5.583   4.397  17.701  0.00  0.00    +0.000 C 
ATOM     15  C   UNL     1       5.489   4.958  19.107  0.00  0.00    +0.000 C 
ATOM     16  O   UNL     1       4.135   4.990  19.555  0.00  0.00    +0.000 OA
ENDBRANCH   5   6
BRANCH   1  17
ATOM     17  C   UNL     1      -1.041  10.460  19.347  0.00  0.00    +0.000 C 
ATOM     18  C   UNL     1      -1.500  10.303  17.894  0.00  0.00    +0.000 C 
BRANCH  17  20
ATOM     19  N   UNL     1      -1.760  11.854  21.245  0.00  0.00    +0.000 N 
ATOM     20  C   UNL     1      -1.510  11.827  19.887  0.00  0.00    +0.000 C 
ATOM     21  O   UNL     1      -1.631  12.822  19.171  0.00  0.00    +0.000 OA
ATOM     22  H   UNL     1      -1.613  11.012  21.786  0.00  0.00    +0.000 HD
BRANCH  19  24
ATOM     23  C   UNL     1      -1.043  13.432  22.997  0.00  0.00    +0.000 C 
ATOM     24  C   UNL     1      -2.107  13.077  21.953  0.00  0.00    +0.000 C 
BRANCH  24  25
ATOM     25  C   UNL     1      -3.473  12.933  22.605  0.00  0.00    +0.000 A 
ATOM     26  C   UNL     1      -3.581  12.557  23.955  0.00  0.00    +0.000 A 
ATOM     27  C   UNL     1      -4.836  12.451  24.563  0.00  0.00    +0.000 A 
ATOM     28  C   UNL     1      -5.981  12.719  23.824  0.00  0.00    +0.000 A 
ATOM     29  F   UNL     1      -7.182  12.642  24.413  0.00  0.00    +0.000 F 
ATOM     30  C   UNL     1      -5.901  13.071  22.484  0.00  0.00    +0.000 A 
ATOM     31  C   UNL     1      -4.651  13.172  21.874  0.00  0.00    +0.000 A 
ENDBRANCH  24  25
ENDBRANCH  19  24
ENDBRANCH  17  20
ENDBRANCH   1  17
TORSDOF 5
ENDMDL
MODEL 7
REMARK VINA RESULT:      -7.8      4.402      7.358
REMARK  Name = 
REMARK  7 active torsions:
REMARK  status: ('A' for Active; 'I' for Inactive)
REMARK    1  A    between atoms: C_1  and  C_2
REMARK    2  A    between atoms: C_2  and  N_3
REMARK    3  A    between atoms: C_2  and  C_24
REMARK    4  A    between atoms: C_4  and  C_6
REMARK    5  A    between atoms: C_6  and  C_7
REMARK    6  A    between atoms: C_6  and  N_8
REMARK    7  A    between atoms: C_12  and  C_13
REMARK                            x       y       z     vdW  Elec       q    Type
REMARK                         _______ _______ _______ _____ _____    ______ ____
ROOT
ATOM      1  N   UNL     1      -0.039  11.077  21.483  0.00  0.00    +0.000 NA
ATOM      2  C   UNL     1      -0.764  11.928  22.429  0.00  0.00    +0.000 C 
ATOM      3  C   UNL     1      -2.073  12.258  21.751  0.00  0.00    +0.000 C 
ATOM      4  C   UNL     1      -1.706  12.355  20.284  0.00  0.00    +0.000 C 
ATOM      5  C   UNL     1      -0.415  11.528  20.121  0.00  0.00    +0.000 C 
ENDROOT
BRANCH   5   6
ATOM      6  C   UNL     1       0.688  12.353  19.455  0.00  0.00    +0.000 A 
ATOM      7  C   UNL     1       1.677  11.769  18.648  0.00  0.00    +0.000 A 
ATOM      8  C   UNL     1       2.683  12.546  18.069  0.00  0.00    +0.000 A 
ATOM      9  C   UNL     1       2.724  13.924  18.279  0.00  0.00    +0.000 A 
ATOM     10  C   UNL     1       1.715  14.537  19.029  0.00  0.00    +0.000 A 
ATOM     11  C   UNL     1       0.718  13.752  19.625  0.00  0.00    +0.000 A 
ATOM     12  O   UNL     1       1.601  15.889  19.245  0.00  0.00    +0.000 OA
ATOM     13  C   UNL     1       1.962  16.666  18.101  0.00  0.00    +0.000 C 
ATOM     14  C   UNL     1       3.458  16.931  18.061  0.00  0.00    +0.000 C 
ATOM     15  C   UNL     1       4.259  15.692  18.411  0.00  0.00    +0.000 C 
ATOM     16  O   UNL     1       3.786  14.557  17.686  0.00  0.00    +0.000 OA
ENDBRANCH   5   6
BRANCH   1  17
ATOM     17  C   UNL     1      -0.156   9.622  21.744  0.00  0.00    +0.000 C 
ATOM     18  C   UNL     1      -0.580   9.293  23.180  0.00  0.00    +0.000 C 
BRANCH  17  20
ATOM     19  N   UNL     1       1.088   8.185  20.179  0.00  0.00    +0.000 N 
ATOM     20  C   UNL     1       1.124   8.834  21.397  0.00  0.00    +0.000 C 
ATOM     21  O   UNL     1       2.110   8.803  22.135  0.00  0.00    +0.000 OA
ATOM     22  H   UNL     1       0.261   8.273  19.604  0.00  0.00    +0.000 HD
BRANCH  19  24
ATOM     23  C   UNL     1       2.683   8.098  18.303  0.00  0.00    +0.000 C 
ATOM     24  C   UNL     1       2.238   7.481  19.632  0.00  0.00    +0.000 C 
BRANCH  24  25
ATOM     25  C   UNL     1       1.913   6.006  19.458  0.00  0.00    +0.000 A 
ATOM     26  C   UNL     1       1.464   5.242  20.549  0.00  0.00    +0.000 A 
ATOM     27  C   UNL     1       1.139   3.892  20.384  0.00  0.00    +0.000 A 
ATOM     28  C   UNL     1       1.261   3.305  19.130  0.00  0.00    +0.000 A 
ATOM     29  F   UNL     1       0.926   2.019  18.967  0.00  0.00    +0.000 F 
ATOM     30  C   UNL     1       1.723   4.034  18.043  0.00  0.00    +0.000 A 
ATOM     31  C   UNL     1       2.053   5.378  18.206  0.00  0.00    +0.000 A 
ENDBRANCH  24  25
ENDBRANCH  19  24
ENDBRANCH  17  20
ENDBRANCH   1  17
TORSDOF 5
ENDMDL
MODEL 8
REMARK VINA RESULT:      -7.7      1.566      2.614
REMARK  Name = 
REMARK  7 active torsions:
REMARK  status: ('A' for Active; 'I' for Inactive)
REMARK    1  A    between atoms: C_1  and  C_2
REMARK    2  A    between atoms: C_2  and  N_3
REMARK    3  A    between atoms: C_2  and  C_24
REMARK    4  A    between atoms: C_4  and  C_6
REMARK    5  A    between atoms: C_6  and  C_7
REMARK    6  A    between atoms: C_6  and  N_8
REMARK    7  A    between atoms: C_12  and  C_13
REMARK                            x       y       z     vdW  Elec       q    Type
REMARK                         _______ _______ _______ _____ _____    ______ ____
ROOT
ATOM      1  N   UNL     1       2.897   5.792  18.563  0.00  0.00    +0.000 NA
ATOM      2  C   UNL     1       3.831   5.411  19.625  0.00  0.00    +0.000 C 
ATOM      3  C   UNL     1       2.968   4.945  20.773  0.00  0.00    +0.000 C 
ATOM      4  C   UNL     1       1.745   5.836  20.689  0.00  0.00    +0.000 C 
ATOM      5  C   UNL     1       1.683   6.325  19.228  0.00  0.00    +0.000 C 
ENDROOT
BRANCH   5   6
ATOM      6  C   UNL     1       1.604   7.851  19.161  0.00  0.00    +0.000 A 
ATOM      7  C   UNL     1       1.932   8.570  18.000  0.00  0.00    +0.000 A 
ATOM      8  C   UNL     1       1.869   9.964  17.975  0.00  0.00    +0.000 A 
ATOM      9  C   UNL     1       1.473  10.676  19.107  0.00  0.00    +0.000 A 
ATOM     10  C   UNL     1       1.083   9.981  20.256  0.00  0.00    +0.000 A 
ATOM     11  C   UNL     1       1.166   8.581  20.284  0.00  0.00    +0.000 A 
ATOM     12  O   UNL     1       0.603  10.560  21.406  0.00  0.00    +0.000 OA
ATOM     13  C   UNL     1      -0.240  11.685  21.151  0.00  0.00    +0.000 C 
ATOM     14  C   UNL     1       0.570  12.962  21.000  0.00  0.00    +0.000 C 
ATOM     15  C   UNL     1       1.810  12.747  20.155  0.00  0.00    +0.000 C 
ATOM     16  O   UNL     1       1.494  12.039  18.957  0.00  0.00    +0.000 OA
ENDBRANCH   5   6
BRANCH   1  17
ATOM     17  C   UNL     1       2.673   4.750  17.532  0.00  0.00    +0.000 C 
ATOM     18  C   UNL     1       1.518   3.800  17.867  0.00  0.00    +0.000 C 
BRANCH  17  20
ATOM     19  N   UNL     1       4.880   4.588  16.453  0.00  0.00    +0.000 N 
ATOM     20  C   UNL     1       3.937   3.925  17.213  0.00  0.00    +0.000 C 
ATOM     21  O   UNL     1       4.104   2.775  17.620  0.00  0.00    +0.000 OA
ATOM     22  H   UNL     1       4.699   5.544  16.174  0.00  0.00    +0.000 HD
BRANCH  19  24
ATOM     23  C   UNL     1       7.273   4.596  17.044  0.00  0.00    +0.000 C 
ATOM     24  C   UNL     1       6.180   4.013  16.142  0.00  0.00    +0.000 C 
BRANCH  24  25
ATOM     25  C   UNL     1       6.515   4.242  14.677  0.00  0.00    +0.000 A 
ATOM     26  C   UNL     1       7.507   5.169  14.309  0.00  0.00    +0.000 A 
ATOM     27  C   UNL     1       7.834   5.361  12.964  0.00  0.00    +0.000 A 
ATOM     28  C   UNL     1       7.173   4.628  11.985  0.00  0.00    +0.000 A 
ATOM     29  F   UNL     1       7.505   4.794  10.698  0.00  0.00    +0.000 F 
ATOM     30  C   UNL     1       6.175   3.724  12.322  0.00  0.00    +0.000 A 
ATOM     31  C   UNL     1       5.843   3.535  13.662  0.00  0.00    +0.000 A 
ENDBRANCH  24  25
ENDBRANCH  19  24
ENDBRANCH  17  20
ENDBRANCH   1  17
TORSDOF 5
ENDMDL
MODEL 9
REMARK VINA RESULT:      -7.7      3.328      7.481
REMARK  Name = 
REMARK  7 active torsions:
REMARK  status: ('A' for Active; 'I' for Inactive)
REMARK    1  A    between atoms: C_1  and  C_2
REMARK    2  A    between atoms: C_2  and  N_3
REMARK    3  A    between atoms: C_2  and  C_24
REMARK    4  A    between atoms: C_4  and  C_6
REMARK    5  A    between atoms: C_6  and  C_7
REMARK    6  A    between atoms: C_6  and  N_8
REMARK    7  A    between atoms: C_12  and  C_13
REMARK                            x       y       z     vdW  Elec       q    Type
REMARK                         _______ _______ _______ _____ _____    ______ ____
ROOT
ATOM      1  N   UNL     1       3.370   2.959  18.504  0.00  0.00    +0.000 NA
ATOM      2  C   UNL     1       3.666   1.620  19.019  0.00  0.00    +0.000 C 
ATOM      3  C   UNL     1       4.440   1.843  20.297  0.00  0.00    +0.000 C 
ATOM      4  C   UNL     1       5.256   3.088  20.011  0.00  0.00    +0.000 C 
ATOM      5  C   UNL     1       4.508   3.829  18.885  0.00  0.00    +0.000 C 
ENDROOT
BRANCH   5   6
ATOM      6  C   UNL     1       5.438   4.124  17.707  0.00  0.00    +0.000 A 
ATOM      7  C   UNL     1       6.761   4.557  17.885  0.00  0.00    +0.000 A 
ATOM      8  C   UNL     1       7.580   4.837  16.790  0.00  0.00    +0.000 A 
ATOM      9  C   UNL     1       7.099   4.689  15.489  0.00  0.00    +0.000 A 
ATOM     10  C   UNL     1       5.804   4.202  15.285  0.00  0.00    +0.000 A 
ATOM     11  C   UNL     1       4.978   3.940  16.388  0.00  0.00    +0.000 A 
ATOM     12  O   UNL     1       5.242   3.941  14.059  0.00  0.00    +0.000 OA
ATOM     13  C   UNL     1       6.173   3.389  13.127  0.00  0.00    +0.000 C 
ATOM     14  C   UNL     1       6.941   4.478  12.397  0.00  0.00    +0.000 C 
ATOM     15  C   UNL     1       7.385   5.581  13.339  0.00  0.00    +0.000 C 
ATOM     16  O   UNL     1       7.994   5.037  14.509  0.00  0.00    +0.000 OA
ENDBRANCH   5   6
BRANCH   1  17
ATOM     17  C   UNL     1       2.018   3.467  18.839  0.00  0.00    +0.000 C 
ATOM     18  C   UNL     1       0.902   2.449  18.575  0.00  0.00    +0.000 C 
BRANCH  17  20
ATOM     19  N   UNL     1       2.251   5.914  18.706  0.00  0.00    +0.000 N 
ATOM     20  C   UNL     1       1.673   4.797  18.137  0.00  0.00    +0.000 C 
ATOM     21  O   UNL     1       0.958   4.857  17.136  0.00  0.00    +0.000 OA
ATOM     22  H   UNL     1       2.853   5.797  19.510  0.00  0.00    +0.000 HD
BRANCH  19  24
ATOM     23  C   UNL     1       3.455   7.698  17.505  0.00  0.00    +0.000 C 
ATOM     24  C   UNL     1       2.129   7.242  18.122  0.00  0.00    +0.000 C 
BRANCH  24  25
ATOM     25  C   UNL     1       1.657   8.233  19.173  0.00  0.00    +0.000 A 
ATOM     26  C   UNL     1       1.246   9.525  18.800  0.00  0.00    +0.000 A 
ATOM     27  C   UNL     1       0.786  10.428  19.763  0.00  0.00    +0.000 A 
ATOM     28  C   UNL     1       0.737  10.044  21.097  0.00  0.00    +0.000 A 
ATOM     29  F   UNL     1       0.272  10.901  22.016  0.00  0.00    +0.000 F 
ATOM     30  C   UNL     1       1.158   8.782  21.493  0.00  0.00    +0.000 A 
ATOM     31  C   UNL     1       1.622   7.881  20.536  0.00  0.00    +0.000 A 
ENDBRANCH  24  25
ENDBRANCH  19  24
ENDBRANCH  17  20
ENDBRANCH   1  17
TORSDOF 5
ENDMDL
