MODEL 1
REMARK VINA RESULT:      -7.0      0.000      0.000
REMARK  Name = 
REMARK  3 active torsions:
REMARK  status: ('A' for Active; 'I' for Inactive)
REMARK    1  A    between atoms: C_2  and  C_3
REMARK    2  A    between atoms: C_7  and  C_8
REMARK    3  A    between atoms: C_9  and  C_10
REMARK                            x       y       z     vdW  Elec       q    Type
REMARK                         _______ _______ _______ _____ _____    ______ ____
ROOT
ATOM      1  C   UNL     1       8.453   9.054  18.305  0.00  0.00    +0.000 C 
ATOM      2  C   UNL     1       7.895   8.060  17.918  0.00  0.00    +0.000 C 
ENDROOT
BRANCH   2   3
ATOM      3  C   UNL     1       7.290   6.839  17.487  0.00  0.00    +0.000 A 
ATOM      4  C   UNL     1       6.489   6.048  18.280  0.00  0.00    +0.000 A 
ATOM      5  S   UNL     1       5.972   4.683  17.384  0.00  0.00    +0.000 S 
ATOM      6  C   UNL     1       6.855   5.254  16.023  0.00  0.00    +0.000 A 
ATOM      7  N   UNL     1       6.856   4.564  14.875  0.00  0.00    +0.000 N 
ATOM      8  N   UNL     1       7.502   6.382  16.202  0.00  0.00    +0.000 NA
ATOM      9  H   UNL     1       6.362   3.687  14.777  0.00  0.00    +0.000 HD
ATOM     10  H   UNL     1       7.397   4.891  14.085  0.00  0.00    +0.000 HD
ENDBRANCH   2   3
BRANCH   1  15
ATOM     11  C   UNL     1      10.661  12.074  18.314  0.00  0.00    +0.000 A 
ATOM     12  C   UNL     1      10.706  12.369  19.682  0.00  0.00    +0.000 A 
ATOM     13  C   UNL     1       9.978  11.596  20.586  0.00  0.00    +0.000 A 
ATOM     14  C   UNL     1       9.221  10.513  20.128  0.00  0.00    +0.000 A 
ATOM     15  C   UNL     1       9.179  10.205  18.764  0.00  0.00    +0.000 A 
ATOM     16  C   UNL     1       9.886  11.000  17.856  0.00  0.00    +0.000 A 
BRANCH  11  18
ATOM     17  N   UNL     1      12.043  13.499  16.642  0.00  0.00    +0.000 NA
ATOM     18  C   UNL     1      11.431  12.856  17.389  0.00  0.00    +0.000 C 
ENDBRANCH  11  18
ENDBRANCH   1  15
TORSDOF 3
ENDMDL
MODEL 2
REMARK VINA RESULT:      -6.7      1.342      1.482
REMARK  Name = 
REMARK  3 active torsions:
REMARK  status: ('A' for Active; 'I' for Inactive)
REMARK    1  A    between atoms: C_2  and  C_3
REMARK    2  A    between atoms: C_7  and  C_8
REMARK    3  A    between atoms: C_9  and  C_10
REMARK                            x       y       z     vdW  Elec       q    Type
REMARK                         _______ _______ _______ _____ _____    ______ ____
ROOT
ATOM      1  C   UNL     1       8.632   9.132  18.423  0.00  0.00    +0.000 C 
ATOM      2  C   UNL     1       8.056   8.129  18.091  0.00  0.00    +0.000 C 
ENDROOT
BRANCH   2   3
ATOM      3  C   UNL     1       7.396   6.904  17.762  0.00  0.00    +0.000 A 
ATOM      4  C   UNL     1       7.059   6.524  16.483  0.00  0.00    +0.000 A 
ATOM      5  S   UNL     1       6.286   4.996  16.528  0.00  0.00    +0.000 S 
ATOM      6  C   UNL     1       6.462   4.970  18.239  0.00  0.00    +0.000 A 
ATOM      7  N   UNL     1       6.014   3.928  18.952  0.00  0.00    +0.000 N 
ATOM      8  N   UNL     1       7.050   6.020  18.764  0.00  0.00    +0.000 NA
ATOM      9  H   UNL     1       5.547   3.143  18.518  0.00  0.00    +0.000 HD
ATOM     10  H   UNL     1       6.096   3.928  19.960  0.00  0.00    +0.000 HD
ENDBRANCH   2   3
BRANCH   1  15
ATOM     11  C   UNL     1      10.880  12.123  18.374  0.00  0.00    +0.000 A 
ATOM     12  C   UNL     1      10.897  12.467  19.730  0.00  0.00    +0.000 A 
ATOM     13  C   UNL     1      10.139  11.737  20.645  0.00  0.00    +0.000 A 
ATOM     14  C   UNL     1       9.379  10.647  20.210  0.00  0.00    +0.000 A 
ATOM     15  C   UNL     1       9.363  10.291  18.857  0.00  0.00    +0.000 A 
ATOM     16  C   UNL     1      10.100  11.043  17.937  0.00  0.00    +0.000 A 
BRANCH  11  18
ATOM     17  N   UNL     1      12.333  13.464  16.694  0.00  0.00    +0.000 NA
ATOM     18  C   UNL     1      11.680  12.861  17.438  0.00  0.00    +0.000 C 
ENDBRANCH  11  18
ENDBRANCH   1  15
TORSDOF 3
ENDMDL
MODEL 3
REMARK VINA RESULT:      -6.4      6.427      8.237
REMARK  Name = 
REMARK  3 active torsions:
REMARK  status: ('A' for Active; 'I' for Inactive)
REMARK    1  A    between atoms: C_2  and  C_3
REMARK    2  A    between atoms: C_7  and  C_8
REMARK    3  A    between atoms: C_9  and  C_10
REMARK                            x       y       z     vdW  Elec       q    Type
REMARK                         _______ _______ _______ _____ _____    ______ ____
ROOT
ATOM      1  C   UNL     1       4.493   5.274  17.377  0.00  0.00    +0.000 C 
ATOM      2  C   UNL     1       5.161   5.081  16.394  0.00  0.00    +0.000 C 
ENDROOT
BRANCH   2   3
ATOM      3  C   UNL     1       5.892   4.862  15.185  0.00  0.00    +0.000 A 
ATOM      4  C   UNL     1       5.530   3.956  14.213  0.00  0.00    +0.000 A 
ATOM      5  S   UNL     1       6.669   4.006  12.935  0.00  0.00    +0.000 S 
ATOM      6  C   UNL     1       7.547   5.220  13.780  0.00  0.00    +0.000 A 
ATOM      7  N   UNL     1       8.664   5.741  13.255  0.00  0.00    +0.000 N 
ATOM      8  N   UNL     1       7.046   5.578  14.940  0.00  0.00    +0.000 NA
ATOM      9  H   UNL     1       9.034   5.429  12.367  0.00  0.00    +0.000 HD
ATOM     10  H   UNL     1       9.191   6.436  13.767  0.00  0.00    +0.000 HD
ENDBRANCH   2   3
BRANCH   1  15
ATOM     11  C   UNL     1       2.475   4.607  20.456  0.00  0.00    +0.000 A 
ATOM     12  C   UNL     1       1.867   5.853  20.652  0.00  0.00    +0.000 A 
ATOM     13  C   UNL     1       2.156   6.913  19.793  0.00  0.00    +0.000 A 
ATOM     14  C   UNL     1       3.036   6.725  18.723  0.00  0.00    +0.000 A 
ATOM     15  C   UNL     1       3.641   5.481  18.514  0.00  0.00    +0.000 A 
ATOM     16  C   UNL     1       3.373   4.428  19.394  0.00  0.00    +0.000 A 
BRANCH  11  18
ATOM     17  N   UNL     1       1.890   2.634  22.035  0.00  0.00    +0.000 NA
ATOM     18  C   UNL     1       2.158   3.511  21.326  0.00  0.00    +0.000 C 
ENDBRANCH  11  18
ENDBRANCH   1  15
TORSDOF 3
ENDMDL
MODEL 4
REMARK VINA RESULT:      -6.3      6.332      8.882
REMARK  Name = 
REMARK  3 active torsions:
REMARK  status: ('A' for Active; 'I' for Inactive)
REMARK    1  A    between atoms: C_2  and  C_3
REMARK    2  A    between atoms: C_7  and  C_8
REMARK    3  A    between atoms: C_9  and  C_10
REMARK                            x       y       z     vdW  Elec       q    Type
REMARK                         _______ _______ _______ _____ _____    ______ ____
ROOT
ATOM      1  C   UNL     1       2.562   7.010  18.964  0.00  0.00    +0.000 C 
ATOM      2  C   UNL     1       1.963   7.839  19.600  0.00  0.00    +0.000 C 
ENDROOT
BRANCH   2   3
ATOM      3  C   UNL     1       1.214   8.767  20.388  0.00  0.00    +0.000 A 
ATOM      4  C   UNL     1       0.774   9.991  19.937  0.00  0.00    +0.000 A 
ATOM      5  S   UNL     1      -0.080  10.786  21.191  0.00  0.00    +0.000 S 
ATOM      6  C   UNL     1       0.208   9.442  22.225  0.00  0.00    +0.000 A 
ATOM      7  N   UNL     1      -0.256   9.441  23.482  0.00  0.00    +0.000 N 
ATOM      8  N   UNL     1       0.895   8.457  21.695  0.00  0.00    +0.000 NA
ATOM      9  H   UNL     1      -0.766  10.225  23.866  0.00  0.00    +0.000 HD
ATOM     10  H   UNL     1      -0.062   8.660  24.095  0.00  0.00    +0.000 HD
ENDBRANCH   2   3
BRANCH   1  15
ATOM     11  C   UNL     1       5.074   5.243  16.828  0.00  0.00    +0.000 A 
ATOM     12  C   UNL     1       4.439   4.011  16.632  0.00  0.00    +0.000 A 
ATOM     13  C   UNL     1       3.208   3.757  17.237  0.00  0.00    +0.000 A 
ATOM     14  C   UNL     1       2.598   4.741  18.020  0.00  0.00    +0.000 A 
ATOM     15  C   UNL     1       3.221   5.979  18.213  0.00  0.00    +0.000 A 
ATOM     16  C   UNL     1       4.469   6.221  17.630  0.00  0.00    +0.000 A 
BRANCH  11  18
ATOM     17  N   UNL     1       7.343   5.714  15.662  0.00  0.00    +0.000 NA
ATOM     18  C   UNL     1       6.328   5.511  16.185  0.00  0.00    +0.000 C 
ENDBRANCH  11  18
ENDBRANCH   1  15
TORSDOF 3
ENDMDL
MODEL 5
REMARK VINA RESULT:      -6.3      2.969      7.279
REMARK  Name = 
REMARK  3 active torsions:
REMARK  status: ('A' for Active; 'I' for Inactive)
REMARK    1  A    between atoms: C_2  and  C_3
REMARK    2  A    between atoms: C_7  and  C_8
REMARK    3  A    between atoms: C_9  and  C_10
REMARK                            x       y       z     vdW  Elec       q    Type
REMARK                         _______ _______ _______ _____ _____    ______ ____
ROOT
ATOM      1  C   UNL     1       8.247   8.692  18.002  0.00  0.00    +0.000 C 
ATOM      2  C   UNL     1       8.616   9.830  18.140  0.00  0.00    +0.000 C 
ENDROOT
BRANCH   2   3
ATOM      3  C   UNL     1       9.120  11.154  18.331  0.00  0.00    +0.000 A 
ATOM      4  C   UNL     1      10.167  11.472  19.166  0.00  0.00    +0.000 A 
ATOM      5  S   UNL     1      10.451  13.160  19.106  0.00  0.00    +0.000 S 
ATOM      6  C   UNL     1       9.160  13.326  17.982  0.00  0.00    +0.000 A 
ATOM      7  N   UNL     1       8.837  14.529  17.490  0.00  0.00    +0.000 N 
ATOM      8  N   UNL     1       8.542  12.213  17.660  0.00  0.00    +0.000 NA
ATOM      9  H   UNL     1       9.322  15.371  17.773  0.00  0.00    +0.000 HD
ATOM     10  H   UNL     1       8.061  14.626  16.849  0.00  0.00    +0.000 HD
ENDBRANCH   2   3
BRANCH   1  15
ATOM     11  C   UNL     1       6.778   5.532  16.640  0.00  0.00    +0.000 A 
ATOM     12  C   UNL     1       6.949   4.667  17.727  0.00  0.00    +0.000 A 
ATOM     13  C   UNL     1       7.581   5.119  18.885  0.00  0.00    +0.000 A 
ATOM     14  C   UNL     1       8.024   6.443  18.968  0.00  0.00    +0.000 A 
ATOM     15  C   UNL     1       7.849   7.317  17.889  0.00  0.00    +0.000 A 
ATOM     16  C   UNL     1       7.242   6.853  16.718  0.00  0.00    +0.000 A 
BRANCH  11  18
ATOM     17  N   UNL     1       5.549   4.701  14.511  0.00  0.00    +0.000 NA
ATOM     18  C   UNL     1       6.106   5.072  15.458  0.00  0.00    +0.000 C 
ENDBRANCH  11  18
ENDBRANCH   1  15
TORSDOF 3
ENDMDL
MODEL 6
REMARK VINA RESULT:      -6.2      1.318      1.415
REMARK  Name = 
REMARK  3 active torsions:
REMARK  status: ('A' for Active; 'I' for Inactive)
REMARK    1  A    between atoms: C_2  and  C_3
REMARK    2  A    between atoms: C_7  and  C_8
REMARK    3  A    between atoms: C_9  and  C_10
REMARK                            x       y       z     vdW  Elec       q    Type
REMARK                         _______ _______ _______ _____ _____    ______ ____
ROOT
ATOM      1  C   UNL     1       8.380   9.138  18.130  0.00  0.00    +0.000 C 
ATOM      2  C   UNL     1       7.725   8.204  17.748  0.00  0.00    +0.000 C 
ENDROOT
BRANCH   2   3
ATOM      3  C   UNL     1       6.948   7.066  17.367  0.00  0.00    +0.000 A 
ATOM      4  C   UNL     1       7.463   5.942  16.762  0.00  0.00    +0.000 A 
ATOM      5  S   UNL     1       6.201   4.821  16.474  0.00  0.00    +0.000 S 
ATOM      6  C   UNL     1       5.078   5.922  17.171  0.00  0.00    +0.000 A 
ATOM      7  N   UNL     1       3.780   5.605  17.258  0.00  0.00    +0.000 N 
ATOM      8  N   UNL     1       5.586   7.056  17.594  0.00  0.00    +0.000 NA
ATOM      9  H   UNL     1       3.417   4.729  16.904  0.00  0.00    +0.000 HD
ATOM     10  H   UNL     1       3.119   6.265  17.646  0.00  0.00    +0.000 HD
ENDBRANCH   2   3
BRANCH   1  15
ATOM     11  C   UNL     1      10.820  11.972  18.266  0.00  0.00    +0.000 A 
ATOM     12  C   UNL     1      10.866  12.219  19.643  0.00  0.00    +0.000 A 
ATOM     13  C   UNL     1      10.065  11.478  20.512  0.00  0.00    +0.000 A 
ATOM     14  C   UNL     1       9.233  10.473  20.010  0.00  0.00    +0.000 A 
ATOM     15  C   UNL     1       9.187  10.213  18.636  0.00  0.00    +0.000 A 
ATOM     16  C   UNL     1       9.969  10.978  17.763  0.00  0.00    +0.000 A 
BRANCH  11  18
ATOM     17  N   UNL     1      12.333  13.321  16.647  0.00  0.00    +0.000 NA
ATOM     18  C   UNL     1      11.662  12.719  17.377  0.00  0.00    +0.000 C 
ENDBRANCH  11  18
ENDBRANCH   1  15
TORSDOF 3
ENDMDL
MODEL 7
REMARK VINA RESULT:      -6.2      6.861      8.639
REMARK  Name = 
REMARK  3 active torsions:
REMARK  status: ('A' for Active; 'I' for Inactive)
REMARK    1  A    between atoms: C_2  and  C_3
REMARK    2  A    between atoms: C_7  and  C_8
REMARK    3  A    between atoms: C_9  and  C_10
REMARK                            x       y       z     vdW  Elec       q    Type
REMARK                         _______ _______ _______ _____ _____    ______ ____
ROOT
ATOM      1  C   UNL     1       4.408   4.081  16.469  0.00  0.00    +0.000 C 
ATOM      2  C   UNL     1       5.202   4.202  15.572  0.00  0.00    +0.000 C 
ENDROOT
BRANCH   2   3
ATOM      3  C   UNL     1       6.085   4.364  14.460  0.00  0.00    +0.000 A 
ATOM      4  C   UNL     1       5.962   3.690  13.266  0.00  0.00    +0.000 A 
ATOM      5  S   UNL     1       7.219   4.173  12.207  0.00  0.00    +0.000 S 
ATOM      6  C   UNL     1       7.822   5.230  13.422  0.00  0.00    +0.000 A 
ATOM      7  N   UNL     1       8.908   5.980  13.193  0.00  0.00    +0.000 N 
ATOM      8  N   UNL     1       7.150   5.238  14.550  0.00  0.00    +0.000 NA
ATOM      9  H   UNL     1       9.414   5.936  12.318  0.00  0.00    +0.000 HD
ATOM     10  H   UNL     1       9.274   6.582  13.919  0.00  0.00    +0.000 HD
ENDBRANCH   2   3
BRANCH   1  15
ATOM     11  C   UNL     1       2.154   4.822  19.362  0.00  0.00    +0.000 A 
ATOM     12  C   UNL     1       1.574   3.567  19.578  0.00  0.00    +0.000 A 
ATOM     13  C   UNL     1       1.901   2.495  18.747  0.00  0.00    +0.000 A 
ATOM     14  C   UNL     1       2.823   2.671  17.711  0.00  0.00    +0.000 A 
ATOM     15  C   UNL     1       3.414   3.920  17.493  0.00  0.00    +0.000 A 
ATOM     16  C   UNL     1       3.063   5.000  18.309  0.00  0.00    +0.000 A 
BRANCH  11  18
ATOM     17  N   UNL     1       1.579   6.811  20.926  0.00  0.00    +0.000 NA
ATOM     18  C   UNL     1       1.835   5.917  20.234  0.00  0.00    +0.000 C 
ENDBRANCH  11  18
ENDBRANCH   1  15
TORSDOF 3
ENDMDL
MODEL 8
REMARK VINA RESULT:      -6.2      5.908      8.019
REMARK  Name = 
REMARK  3 active torsions:
REMARK  status: ('A' for Active; 'I' for Inactive)
REMARK    1  A    between atoms: C_2  and  C_3
REMARK    2  A    between atoms: C_7  and  C_8
REMARK    3  A    between atoms: C_9  and  C_10
REMARK                            x       y       z     vdW  Elec       q    Type
REMARK                         _______ _______ _______ _____ _____    ______ ____
ROOT
ATOM      1  C   UNL     1       2.408   7.875  18.414  0.00  0.00    +0.000 C 
ATOM      2  C   UNL     1       3.209   7.118  17.930  0.00  0.00    +0.000 C 
ENDROOT
BRANCH   2   3
ATOM      3  C   UNL     1       4.217   6.268  17.376  0.00  0.00    +0.000 A 
ATOM      4  C   UNL     1       4.087   4.906  17.225  0.00  0.00    +0.000 A 
ATOM      5  S   UNL     1       5.516   4.271  16.527  0.00  0.00    +0.000 S 
ATOM      6  C   UNL     1       6.187   5.855  16.487  0.00  0.00    +0.000 A 
ATOM      7  N   UNL     1       7.417   6.059  15.998  0.00  0.00    +0.000 N 
ATOM      8  N   UNL     1       5.418   6.808  16.960  0.00  0.00    +0.000 NA
ATOM      9  H   UNL     1       7.992   5.300  15.659  0.00  0.00    +0.000 HD
ATOM     10  H   UNL     1       7.818   6.988  16.000  0.00  0.00    +0.000 HD
ENDBRANCH   2   3
BRANCH   1  15
ATOM     11  C   UNL     1       0.384   9.788  20.913  0.00  0.00    +0.000 A 
ATOM     12  C   UNL     1      -0.387  10.596  20.070  0.00  0.00    +0.000 A 
ATOM     13  C   UNL     1      -0.209  10.533  18.688  0.00  0.00    +0.000 A 
ATOM     14  C   UNL     1       0.726   9.647  18.144  0.00  0.00    +0.000 A 
ATOM     15  C   UNL     1       1.495   8.829  18.979  0.00  0.00    +0.000 A 
ATOM     16  C   UNL     1       1.335   8.915  20.365  0.00  0.00    +0.000 A 
BRANCH  11  18
ATOM     17  N   UNL     1       0.005   9.865  23.478  0.00  0.00    +0.000 NA
ATOM     18  C   UNL     1       0.181   9.836  22.332  0.00  0.00    +0.000 C 
ENDBRANCH  11  18
ENDBRANCH   1  15
TORSDOF 3
ENDMDL
MODEL 9
REMARK VINA RESULT:      -6.2      1.953      2.512
REMARK  Name = 
REMARK  3 active torsions:
REMARK  status: ('A' for Active; 'I' for Inactive)
REMARK    1  A    between atoms: C_2  and  C_3
REMARK    2  A    between atoms: C_7  and  C_8
REMARK    3  A    between atoms: C_9  and  C_10
REMARK                            x       y       z     vdW  Elec       q    Type
REMARK                         _______ _______ _______ _____ _____    ______ ____
ROOT
ATOM      1  C   UNL     1       8.930   9.616  18.563  0.00  0.00    +0.000 C 
ATOM      2  C   UNL     1       8.375   8.582  18.299  0.00  0.00    +0.000 C 
ENDROOT
BRANCH   2   3
ATOM      3  C   UNL     1       7.704   7.379  17.914  0.00  0.00    +0.000 A 
ATOM      4  C   UNL     1       7.720   6.213  18.645  0.00  0.00    +0.000 A 
ATOM      5  S   UNL     1       6.796   5.020  17.834  0.00  0.00    +0.000 S 
ATOM      6  C   UNL     1       6.456   6.149  16.582  0.00  0.00    +0.000 A 
ATOM      7  N   UNL     1       5.696   5.797  15.537  0.00  0.00    +0.000 N 
ATOM      8  N   UNL     1       6.988   7.340  16.734  0.00  0.00    +0.000 NA
ATOM      9  H   UNL     1       5.317   4.864  15.441  0.00  0.00    +0.000 HD
ATOM     10  H   UNL     1       5.520   6.456  14.790  0.00  0.00    +0.000 HD
ENDBRANCH   2   3
BRANCH   1  15
ATOM     11  C   UNL     1       9.863  12.814  20.267  0.00  0.00    +0.000 A 
ATOM     12  C   UNL     1      10.665  13.414  19.289  0.00  0.00    +0.000 A 
ATOM     13  C   UNL     1      10.923  12.745  18.092  0.00  0.00    +0.000 A 
ATOM     14  C   UNL     1      10.364  11.485  17.861  0.00  0.00    +0.000 A 
ATOM     15  C   UNL     1       9.555  10.882  18.830  0.00  0.00    +0.000 A 
ATOM     16  C   UNL     1       9.321  11.541  20.041  0.00  0.00    +0.000 A 
BRANCH  11  18
ATOM     17  N   UNL     1       9.354  14.068  22.480  0.00  0.00    +0.000 NA
ATOM     18  C   UNL     1       9.578  13.514  21.487  0.00  0.00    +0.000 C 
ENDBRANCH  11  18
ENDBRANCH   1  15
TORSDOF 3
ENDMDL
