MODEL 1
REMARK VINA RESULT:      -7.6      0.000      0.000
REMARK  Name = 
REMARK  6 active torsions:
REMARK  status: ('A' for Active; 'I' for Inactive)
REMARK    1  A    between atoms: C_1  and  O_2
REMARK    2  A    between atoms: O_2  and  C_3
REMARK    3  A    between atoms: N_13  and  C_14
REMARK    4  A    between atoms: C_14  and  C_15
REMARK    5  A    between atoms: C_15  and  C_16
REMARK    6  A    between atoms: C_16  and  O_18
REMARK                            x       y       z     vdW  Elec       q    Type
REMARK                         _______ _______ _______ _____ _____    ______ ____
ROOT
ATOM      1  C   UNL     1       6.777   5.871  16.859  0.00  0.00    +0.000 A 
ATOM      2  C   UNL     1       6.708   4.817  15.943  0.00  0.00    +0.000 A 
ATOM      3  C   UNL     1       5.561   4.022  15.874  0.00  0.00    +0.000 A 
ATOM      4  C   UNL     1       4.494   4.280  16.731  0.00  0.00    +0.000 A 
ATOM      5  C   UNL     1       4.536   5.349  17.630  0.00  0.00    +0.000 A 
ATOM      6  C   UNL     1       5.701   6.120  17.715  0.00  0.00    +0.000 A 
ATOM      7  C   UNL     1       3.355   5.593  18.490  0.00  0.00    +0.000 C 
ATOM      8  C   UNL     1       2.593   6.705  18.296  0.00  0.00    +0.000 C 
ATOM      9  C   UNL     1       1.303   7.018  19.045  0.00  0.00    +0.000 C 
ATOM     10  C   UNL     1       1.429   8.383  19.737  0.00  0.00    +0.000 C 
ATOM     11  N   UNL     1       1.669   9.504  18.801  0.00  0.00    +0.000 NA
ATOM     12  C   UNL     1       2.893   9.200  18.017  0.00  0.00    +0.000 C 
ATOM     13  C   UNL     1       2.885   7.827  17.306  0.00  0.00    +0.000 C 
ATOM     14  C   UNL     1       2.958   4.541  19.467  0.00  0.00    +0.000 A 
ATOM     15  N   UNL     1       2.701   4.988  20.728  0.00  0.00    +0.000 NA
ATOM     16  C   UNL     1       2.313   4.092  21.654  0.00  0.00    +0.000 A 
ATOM     17  C   UNL     1       2.195   2.742  21.406  0.00  0.00    +0.000 A 
ATOM     18  C   UNL     1       2.507   2.285  20.131  0.00  0.00    +0.000 A 
ATOM     19  C   UNL     1       2.902   3.186  19.125  0.00  0.00    +0.000 A 
ATOM     20  C   UNL     1       3.311   2.608  17.786  0.00  0.00    +0.000 C 
ATOM     21  O   UNL     1       3.377   3.491  16.657  0.00  0.00    +0.000 OA
ENDROOT
BRANCH   1  23
ATOM     22  C   UNL     1       7.572   7.980  17.576  0.00  0.00    +0.000 C 
ATOM     23  O   UNL     1       7.855   6.699  17.026  0.00  0.00    +0.000 OA
ENDBRANCH   1  23
BRANCH  11  24
ATOM     24  C   UNL     1       0.529   9.779  17.900  0.00  0.00    +0.000 C 
BRANCH  24  25
ATOM     25  C   UNL     1      -0.637  10.484  18.595  0.00  0.00    +0.000 C 
BRANCH  25  26
ATOM     26  C   UNL     1      -1.856  10.518  17.708  0.00  0.00    +0.000 C 
ATOM     27  O   UNL     1      -2.684   9.628  17.601  0.00  0.00    +0.000 OA
BRANCH  26  28
ATOM     28  O   UNL     1      -1.959  11.686  17.028  0.00  0.00    +0.000 OA
ATOM     29  H   UNL     1      -1.147  12.227  17.060  0.00  0.00    +0.000 HD
ENDBRANCH  26  28
ENDBRANCH  25  26
ENDBRANCH  24  25
ENDBRANCH  11  24
TORSDOF 5
ENDMDL
MODEL 2
REMARK VINA RESULT:      -7.4      0.987      1.224
REMARK  Name = 
REMARK  6 active torsions:
REMARK  status: ('A' for Active; 'I' for Inactive)
REMARK    1  A    between atoms: C_1  and  O_2
REMARK    2  A    between atoms: O_2  and  C_3
REMARK    3  A    between atoms: N_13  and  C_14
REMARK    4  A    between atoms: C_14  and  C_15
REMARK    5  A    between atoms: C_15  and  C_16
REMARK    6  A    between atoms: C_16  and  O_18
REMARK                            x       y       z     vdW  Elec       q    Type
REMARK                         _______ _______ _______ _____ _____    ______ ____
ROOT
ATOM      1  C   UNL     1       6.680   5.845  16.717  0.00  0.00    +0.000 A 
ATOM      2  C   UNL     1       6.579   4.786  15.810  0.00  0.00    +0.000 A 
ATOM      3  C   UNL     1       5.433   3.987  15.789  0.00  0.00    +0.000 A 
ATOM      4  C   UNL     1       4.399   4.247  16.684  0.00  0.00    +0.000 A 
ATOM      5  C   UNL     1       4.472   5.321  17.576  0.00  0.00    +0.000 A 
ATOM      6  C   UNL     1       5.637   6.095  17.612  0.00  0.00    +0.000 A 
ATOM      7  C   UNL     1       3.324   5.566  18.479  0.00  0.00    +0.000 C 
ATOM      8  C   UNL     1       2.551   6.675  18.309  0.00  0.00    +0.000 C 
ATOM      9  C   UNL     1       1.290   6.989  19.104  0.00  0.00    +0.000 C 
ATOM     10  C   UNL     1       1.439   8.357  19.785  0.00  0.00    +0.000 C 
ATOM     11  N   UNL     1       1.639   9.475  18.833  0.00  0.00    +0.000 NA
ATOM     12  C   UNL     1       2.833   9.170  18.005  0.00  0.00    +0.000 C 
ATOM     13  C   UNL     1       2.803   7.793  17.303  0.00  0.00    +0.000 C 
ATOM     14  C   UNL     1       2.967   4.519  19.476  0.00  0.00    +0.000 A 
ATOM     15  N   UNL     1       2.757   4.972  20.744  0.00  0.00    +0.000 NA
ATOM     16  C   UNL     1       2.407   4.079  21.688  0.00  0.00    +0.000 A 
ATOM     17  C   UNL     1       2.283   2.728  21.452  0.00  0.00    +0.000 A 
ATOM     18  C   UNL     1       2.548   2.265  20.168  0.00  0.00    +0.000 A 
ATOM     19  C   UNL     1       2.902   3.161  19.143  0.00  0.00    +0.000 A 
ATOM     20  C   UNL     1       3.262   2.578  17.793  0.00  0.00    +0.000 C 
ATOM     21  O   UNL     1       3.282   3.454  16.657  0.00  0.00    +0.000 OA
ENDROOT
BRANCH   1  23
ATOM     22  C   UNL     1       7.508   7.936  17.451  0.00  0.00    +0.000 C 
ATOM     23  O   UNL     1       7.762   6.676  16.839  0.00  0.00    +0.000 OA
ENDBRANCH   1  23
BRANCH  11  24
ATOM     24  C   UNL     1       0.465   9.742  17.975  0.00  0.00    +0.000 C 
BRANCH  24  25
ATOM     25  C   UNL     1      -0.633  10.538  18.682  0.00  0.00    +0.000 C 
BRANCH  25  26
ATOM     26  C   UNL     1      -0.122  11.884  19.134  0.00  0.00    +0.000 C 
ATOM     27  O   UNL     1      -0.227  12.930  18.515  0.00  0.00    +0.000 OA
BRANCH  26  28
ATOM     28  O   UNL     1       0.472  11.820  20.350  0.00  0.00    +0.000 OA
ATOM     29  H   UNL     1       1.204  11.175  20.393  0.00  0.00    +0.000 HD
ENDBRANCH  26  28
ENDBRANCH  25  26
ENDBRANCH  24  25
ENDBRANCH  11  24
TORSDOF 5
ENDMDL
MODEL 3
REMARK VINA RESULT:      -6.9      2.263      6.403
REMARK  Name = 
REMARK  6 active torsions:
REMARK  status: ('A' for Active; 'I' for Inactive)
REMARK    1  A    between atoms: C_1  and  O_2
REMARK    2  A    between atoms: O_2  and  C_3
REMARK    3  A    between atoms: N_13  and  C_14
REMARK    4  A    between atoms: C_14  and  C_15
REMARK    5  A    between atoms: C_15  and  C_16
REMARK    6  A    between atoms: C_16  and  O_18
REMARK                            x       y       z     vdW  Elec       q    Type
REMARK                         _______ _______ _______ _____ _____    ______ ____
ROOT
ATOM      1  C   UNL     1       1.213   9.034  18.662  0.00  0.00    +0.000 A 
ATOM      2  C   UNL     1       1.173   9.187  20.051  0.00  0.00    +0.000 A 
ATOM      3  C   UNL     1       1.622   8.158  20.883  0.00  0.00    +0.000 A 
ATOM      4  C   UNL     1       2.098   6.978  20.320  0.00  0.00    +0.000 A 
ATOM      5  C   UNL     1       2.174   6.822  18.933  0.00  0.00    +0.000 A 
ATOM      6  C   UNL     1       1.691   7.844  18.108  0.00  0.00    +0.000 A 
ATOM      7  C   UNL     1       2.722   5.556  18.395  0.00  0.00    +0.000 C 
ATOM      8  C   UNL     1       3.923   5.555  17.751  0.00  0.00    +0.000 C 
ATOM      9  C   UNL     1       4.638   4.310  17.242  0.00  0.00    +0.000 C 
ATOM     10  C   UNL     1       4.903   4.450  15.736  0.00  0.00    +0.000 C 
ATOM     11  N   UNL     1       5.753   5.610  15.387  0.00  0.00    +0.000 NA
ATOM     12  C   UNL     1       5.106   6.836  15.920  0.00  0.00    +0.000 C 
ATOM     13  C   UNL     1       4.762   6.787  17.426  0.00  0.00    +0.000 C 
ATOM     14  C   UNL     1       2.000   4.287  18.688  0.00  0.00    +0.000 A 
ATOM     15  N   UNL     1       1.798   3.472  17.613  0.00  0.00    +0.000 NA
ATOM     16  C   UNL     1       1.172   2.298  17.814  0.00  0.00    +0.000 A 
ATOM     17  C   UNL     1       0.694   1.888  19.039  0.00  0.00    +0.000 A 
ATOM     18  C   UNL     1       0.858   2.746  20.121  0.00  0.00    +0.000 A 
ATOM     19  C   UNL     1       1.520   3.977  19.965  0.00  0.00    +0.000 A 
ATOM     20  C   UNL     1       1.585   4.897  21.166  0.00  0.00    +0.000 C 
ATOM     21  O   UNL     1       2.532   5.974  21.146  0.00  0.00    +0.000 OA
ENDROOT
BRANCH   1  23
ATOM     22  C   UNL     1      -0.615  10.237  17.766  0.00  0.00    +0.000 C 
ATOM     23  O   UNL     1       0.781   9.964  17.755  0.00  0.00    +0.000 OA
ENDBRANCH   1  23
BRANCH  11  24
ATOM     24  C   UNL     1       7.142   5.498  15.881  0.00  0.00    +0.000 C 
BRANCH  24  25
ATOM     25  C   UNL     1       7.372   6.213  17.213  0.00  0.00    +0.000 C 
BRANCH  25  26
ATOM     26  C   UNL     1       7.798   5.240  18.284  0.00  0.00    +0.000 C 
ATOM     27  O   UNL     1       7.753   5.440  19.487  0.00  0.00    +0.000 OA
BRANCH  26  28
ATOM     28  O   UNL     1       8.233   4.068  17.762  0.00  0.00    +0.000 OA
ATOM     29  H   UNL     1       8.342   4.090  16.792  0.00  0.00    +0.000 HD
ENDBRANCH  26  28
ENDBRANCH  25  26
ENDBRANCH  24  25
ENDBRANCH  11  24
TORSDOF 5
ENDMDL
MODEL 4
REMARK VINA RESULT:      -6.5      6.521      9.888
REMARK  Name = 
REMARK  6 active torsions:
REMARK  status: ('A' for Active; 'I' for Inactive)
REMARK    1  A    between atoms: C_1  and  O_2
REMARK    2  A    between atoms: O_2  and  C_3
REMARK    3  A    between atoms: N_13  and  C_14
REMARK    4  A    between atoms: C_14  and  C_15
REMARK    5  A    between atoms: C_15  and  C_16
REMARK    6  A    between atoms: C_16  and  O_18
REMARK                            x       y       z     vdW  Elec       q    Type
REMARK                         _______ _______ _______ _____ _____    ______ ____
ROOT
ATOM      1  C   UNL     1      -1.862  10.409  17.395  0.00  0.00    +0.000 A 
ATOM      2  C   UNL     1      -0.731   9.635  17.671  0.00  0.00    +0.000 A 
ATOM      3  C   UNL     1       0.254  10.116  18.538  0.00  0.00    +0.000 A 
ATOM      4  C   UNL     1       0.104  11.373  19.115  0.00  0.00    +0.000 A 
ATOM      5  C   UNL     1      -1.035  12.146  18.874  0.00  0.00    +0.000 A 
ATOM      6  C   UNL     1      -2.000  11.671  17.978  0.00  0.00    +0.000 A 
ATOM      7  C   UNL     1      -1.151  13.461  19.545  0.00  0.00    +0.000 C 
ATOM      8  C   UNL     1      -2.091  13.648  20.513  0.00  0.00    +0.000 C 
ATOM      9  C   UNL     1      -2.245  14.916  21.343  0.00  0.00    +0.000 C 
ATOM     10  C   UNL     1      -3.670  15.466  21.182  0.00  0.00    +0.000 C 
ATOM     11  N   UNL     1      -4.723  14.526  21.628  0.00  0.00    +0.000 NA
ATOM     12  C   UNL     1      -4.564  13.258  20.872  0.00  0.00    +0.000 C 
ATOM     13  C   UNL     1      -3.150  12.636  20.937  0.00  0.00    +0.000 C 
ATOM     14  C   UNL     1      -0.142  14.510  19.231  0.00  0.00    +0.000 A 
ATOM     15  N   UNL     1      -0.654  15.744  18.958  0.00  0.00    +0.000 NA
ATOM     16  C   UNL     1       0.205  16.744  18.689  0.00  0.00    +0.000 A 
ATOM     17  C   UNL     1       1.573  16.582  18.642  0.00  0.00    +0.000 A 
ATOM     18  C   UNL     1       2.086  15.311  18.871  0.00  0.00    +0.000 A 
ATOM     19  C   UNL     1       1.229  14.237  19.171  0.00  0.00    +0.000 A 
ATOM     20  C   UNL     1       1.849  12.864  19.323  0.00  0.00    +0.000 C 
ATOM     21  O   UNL     1       1.078  11.836  19.961  0.00  0.00    +0.000 OA
ENDROOT
BRANCH   1  23
ATOM     22  C   UNL     1      -2.959  10.785  15.334  0.00  0.00    +0.000 C 
ATOM     23  O   UNL     1      -2.875  10.047  16.547  0.00  0.00    +0.000 OA
ENDBRANCH   1  23
BRANCH  11  24
ATOM     24  C   UNL     1      -4.712  14.269  23.084  0.00  0.00    +0.000 C 
BRANCH  24  25
ATOM     25  C   UNL     1      -6.106  14.027  23.668  0.00  0.00    +0.000 C 
BRANCH  25  26
ATOM     26  C   UNL     1      -6.246  12.609  24.164  0.00  0.00    +0.000 C 
ATOM     27  O   UNL     1      -7.203  11.878  23.970  0.00  0.00    +0.000 OA
BRANCH  26  28
ATOM     28  O   UNL     1      -5.155  12.203  24.858  0.00  0.00    +0.000 OA
ATOM     29  H   UNL     1      -4.314  12.364  24.389  0.00  0.00    +0.000 HD
ENDBRANCH  26  28
ENDBRANCH  25  26
ENDBRANCH  24  25
ENDBRANCH  11  24
TORSDOF 5
ENDMDL
MODEL 5
REMARK VINA RESULT:      -6.5      6.294      9.853
REMARK  Name = 
REMARK  6 active torsions:
REMARK  status: ('A' for Active; 'I' for Inactive)
REMARK    1  A    between atoms: C_1  and  O_2
REMARK    2  A    between atoms: O_2  and  C_3
REMARK    3  A    between atoms: N_13  and  C_14
REMARK    4  A    between atoms: C_14  and  C_15
REMARK    5  A    between atoms: C_15  and  C_16
REMARK    6  A    between atoms: C_16  and  O_18
REMARK                            x       y       z     vdW  Elec       q    Type
REMARK                         _______ _______ _______ _____ _____    ______ ____
ROOT
ATOM      1  C   UNL     1      -1.052  10.315  17.873  0.00  0.00    +0.000 A 
ATOM      2  C   UNL     1       0.233   9.794  18.047  0.00  0.00    +0.000 A 
ATOM      3  C   UNL     1       1.183  10.503  18.786  0.00  0.00    +0.000 A 
ATOM      4  C   UNL     1       0.844  11.735  19.337  0.00  0.00    +0.000 A 
ATOM      5  C   UNL     1      -0.446  12.255  19.199  0.00  0.00    +0.000 A 
ATOM      6  C   UNL     1      -1.381  11.554  18.429  0.00  0.00    +0.000 A 
ATOM      7  C   UNL     1      -0.755  13.555  19.838  0.00  0.00    +0.000 C 
ATOM      8  C   UNL     1      -1.611  13.604  20.896  0.00  0.00    +0.000 C 
ATOM      9  C   UNL     1      -1.932  14.858  21.700  0.00  0.00    +0.000 C 
ATOM     10  C   UNL     1      -3.447  15.108  21.679  0.00  0.00    +0.000 C 
ATOM     11  N   UNL     1      -4.239  14.003  22.266  0.00  0.00    +0.000 NA
ATOM     12  C   UNL     1      -3.905  12.754  21.536  0.00  0.00    +0.000 C 
ATOM     13  C   UNL     1      -2.396  12.426  21.465  0.00  0.00    +0.000 C 
ATOM     14  C   UNL     1      -0.015  14.764  19.383  0.00  0.00    +0.000 A 
ATOM     15  N   UNL     1      -0.789  15.857  19.130  0.00  0.00    +0.000 NA
ATOM     16  C   UNL     1      -0.180  16.991  18.739  0.00  0.00    +0.000 A 
ATOM     17  C   UNL     1       1.180  17.099  18.546  0.00  0.00    +0.000 A 
ATOM     18  C   UNL     1       1.959  15.967  18.757  0.00  0.00    +0.000 A 
ATOM     19  C   UNL     1       1.370  14.763  19.182  0.00  0.00    +0.000 A 
ATOM     20  C   UNL     1       2.266  13.548  19.307  0.00  0.00    +0.000 C 
ATOM     21  O   UNL     1       1.785  12.424  20.057  0.00  0.00    +0.000 OA
ENDROOT
BRANCH   1  23
ATOM     22  C   UNL     1      -3.371   9.906  17.653  0.00  0.00    +0.000 C 
ATOM     23  O   UNL     1      -2.053   9.718  17.153  0.00  0.00    +0.000 OA
ENDBRANCH   1  23
BRANCH  11  24
ATOM     24  C   UNL     1      -4.029  13.829  23.719  0.00  0.00    +0.000 C 
BRANCH  24  25
ATOM     25  C   UNL     1      -4.752  12.610  24.294  0.00  0.00    +0.000 C 
BRANCH  25  26
ATOM     26  C   UNL     1      -6.249  12.772  24.197  0.00  0.00    +0.000 C 
ATOM     27  O   UNL     1      -7.055  11.867  24.057  0.00  0.00    +0.000 OA
BRANCH  26  28
ATOM     28  O   UNL     1      -6.629  14.068  24.306  0.00  0.00    +0.000 OA
ATOM     29  H   UNL     1      -6.319  14.496  25.127  0.00  0.00    +0.000 HD
ENDBRANCH  26  28
ENDBRANCH  25  26
ENDBRANCH  24  25
ENDBRANCH  11  24
TORSDOF 5
ENDMDL
MODEL 6
REMARK VINA RESULT:      -6.5      5.466      9.317
REMARK  Name = 
REMARK  6 active torsions:
REMARK  status: ('A' for Active; 'I' for Inactive)
REMARK    1  A    between atoms: C_1  and  O_2
REMARK    2  A    between atoms: O_2  and  C_3
REMARK    3  A    between atoms: N_13  and  C_14
REMARK    4  A    between atoms: C_14  and  C_15
REMARK    5  A    between atoms: C_15  and  C_16
REMARK    6  A    between atoms: C_16  and  O_18
REMARK                            x       y       z     vdW  Elec       q    Type
REMARK                         _______ _______ _______ _____ _____    ______ ____
ROOT
ATOM      1  C   UNL     1      -3.745  12.830  21.260  0.00  0.00    +0.000 A 
ATOM      2  C   UNL     1      -3.910  12.527  22.615  0.00  0.00    +0.000 A 
ATOM      3  C   UNL     1      -2.841  12.011  23.352  0.00  0.00    +0.000 A 
ATOM      4  C   UNL     1      -1.617  11.791  22.726  0.00  0.00    +0.000 A 
ATOM      5  C   UNL     1      -1.428  12.119  21.381  0.00  0.00    +0.000 A 
ATOM      6  C   UNL     1      -2.513  12.604  20.641  0.00  0.00    +0.000 A 
ATOM      7  C   UNL     1      -0.093  11.893  20.781  0.00  0.00    +0.000 C 
ATOM      8  C   UNL     1       0.675  12.957  20.417  0.00  0.00    +0.000 C 
ATOM      9  C   UNL     1       2.100  12.862  19.884  0.00  0.00    +0.000 C 
ATOM     10  C   UNL     1       2.181  13.542  18.510  0.00  0.00    +0.000 C 
ATOM     11  N   UNL     1       1.825  14.979  18.537  0.00  0.00    +0.000 NA
ATOM     12  C   UNL     1       0.459  15.108  19.104  0.00  0.00    +0.000 C 
ATOM     13  C   UNL     1       0.257  14.423  20.475  0.00  0.00    +0.000 C 
ATOM     14  C   UNL     1       0.429  10.500  20.710  0.00  0.00    +0.000 A 
ATOM     15  N   UNL     1       0.947  10.135  19.504  0.00  0.00    +0.000 NA
ATOM     16  C   UNL     1       1.458   8.896  19.380  0.00  0.00    +0.000 A 
ATOM     17  C   UNL     1       1.455   7.965  20.395  0.00  0.00    +0.000 A 
ATOM     18  C   UNL     1       0.879   8.327  21.608  0.00  0.00    +0.000 A 
ATOM     19  C   UNL     1       0.346   9.615  21.791  0.00  0.00    +0.000 A 
ATOM     20  C   UNL     1      -0.343   9.910  23.107  0.00  0.00    +0.000 C 
ATOM     21  O   UNL     1      -0.578  11.281  23.458  0.00  0.00    +0.000 OA
ENDROOT
BRANCH   1  23
ATOM     22  C   UNL     1      -5.717  14.123  21.068  0.00  0.00    +0.000 C 
ATOM     23  O   UNL     1      -4.726  13.319  20.438  0.00  0.00    +0.000 OA
ENDBRANCH   1  23
BRANCH  11  24
ATOM     24  C   UNL     1       2.783  15.814  19.293  0.00  0.00    +0.000 C 
BRANCH  24  25
ATOM     25  C   UNL     1       3.624  16.730  18.402  0.00  0.00    +0.000 C 
BRANCH  25  26
ATOM     26  C   UNL     1       2.792  17.313  17.286  0.00  0.00    +0.000 C 
ATOM     27  O   UNL     1       2.958  17.112  16.095  0.00  0.00    +0.000 OA
BRANCH  26  28
ATOM     28  O   UNL     1       1.789  18.096  17.754  0.00  0.00    +0.000 OA
ATOM     29  H   UNL     1       1.079  18.249  17.102  0.00  0.00    +0.000 HD
ENDBRANCH  26  28
ENDBRANCH  25  26
ENDBRANCH  24  25
ENDBRANCH  11  24
TORSDOF 5
ENDMDL
MODEL 7
REMARK VINA RESULT:      -6.4      5.371      9.554
REMARK  Name = 
REMARK  6 active torsions:
REMARK  status: ('A' for Active; 'I' for Inactive)
REMARK    1  A    between atoms: C_1  and  O_2
REMARK    2  A    between atoms: O_2  and  C_3
REMARK    3  A    between atoms: N_13  and  C_14
REMARK    4  A    between atoms: C_14  and  C_15
REMARK    5  A    between atoms: C_15  and  C_16
REMARK    6  A    between atoms: C_16  and  O_18
REMARK                            x       y       z     vdW  Elec       q    Type
REMARK                         _______ _______ _______ _____ _____    ______ ____
ROOT
ATOM      1  C   UNL     1      -3.745  12.940  21.231  0.00  0.00    +0.000 A 
ATOM      2  C   UNL     1      -3.896  12.596  22.578  0.00  0.00    +0.000 A 
ATOM      3  C   UNL     1      -2.817  12.067  23.291  0.00  0.00    +0.000 A 
ATOM      4  C   UNL     1      -1.597  11.875  22.649  0.00  0.00    +0.000 A 
ATOM      5  C   UNL     1      -1.422  12.243  21.312  0.00  0.00    +0.000 A 
ATOM      6  C   UNL     1      -2.516  12.742  20.596  0.00  0.00    +0.000 A 
ATOM      7  C   UNL     1      -0.090  12.046  20.696  0.00  0.00    +0.000 C 
ATOM      8  C   UNL     1       0.668  13.126  20.357  0.00  0.00    +0.000 C 
ATOM      9  C   UNL     1       2.088  13.057  19.811  0.00  0.00    +0.000 C 
ATOM     10  C   UNL     1       2.153  13.779  18.457  0.00  0.00    +0.000 C 
ATOM     11  N   UNL     1       1.787  15.212  18.529  0.00  0.00    +0.000 NA
ATOM     12  C   UNL     1       0.424  15.313  19.110  0.00  0.00    +0.000 C 
ATOM     13  C   UNL     1       0.239  14.586  20.462  0.00  0.00    +0.000 C 
ATOM     14  C   UNL     1       0.442  10.660  20.580  0.00  0.00    +0.000 A 
ATOM     15  N   UNL     1       0.954  10.334  19.359  0.00  0.00    +0.000 NA
ATOM     16  C   UNL     1       1.472   9.104  19.195  0.00  0.00    +0.000 A 
ATOM     17  C   UNL     1       1.485   8.143  20.182  0.00  0.00    +0.000 A 
ATOM     18  C   UNL     1       0.916   8.464  21.410  0.00  0.00    +0.000 A 
ATOM     19  C   UNL     1       0.375   9.743  21.635  0.00  0.00    +0.000 A 
ATOM     20  C   UNL     1      -0.305   9.993  22.964  0.00  0.00    +0.000 C 
ATOM     21  O   UNL     1      -0.548  11.351  23.358  0.00  0.00    +0.000 OA
ENDROOT
BRANCH   1  23
ATOM     22  C   UNL     1      -5.996  12.791  20.521  0.00  0.00    +0.000 C 
ATOM     23  O   UNL     1      -4.736  13.445  20.432  0.00  0.00    +0.000 OA
ENDBRANCH   1  23
BRANCH  11  24
ATOM     24  C   UNL     1       2.744  16.031  19.301  0.00  0.00    +0.000 C 
BRANCH  24  25
ATOM     25  C   UNL     1       3.958  16.478  18.484  0.00  0.00    +0.000 C 
BRANCH  25  26
ATOM     26  C   UNL     1       5.110  16.851  19.384  0.00  0.00    +0.000 C 
ATOM     27  O   UNL     1       5.555  17.976  19.541  0.00  0.00    +0.000 OA
BRANCH  26  28
ATOM     28  O   UNL     1       5.609  15.777  20.042  0.00  0.00    +0.000 OA
ATOM     29  H   UNL     1       5.346  14.923  19.650  0.00  0.00    +0.000 HD
ENDBRANCH  26  28
ENDBRANCH  25  26
ENDBRANCH  24  25
ENDBRANCH  11  24
TORSDOF 5
ENDMDL
MODEL 8
REMARK VINA RESULT:      -6.3      2.547      6.600
REMARK  Name = 
REMARK  6 active torsions:
REMARK  status: ('A' for Active; 'I' for Inactive)
REMARK    1  A    between atoms: C_1  and  O_2
REMARK    2  A    between atoms: O_2  and  C_3
REMARK    3  A    between atoms: N_13  and  C_14
REMARK    4  A    between atoms: C_14  and  C_15
REMARK    5  A    between atoms: C_15  and  C_16
REMARK    6  A    between atoms: C_16  and  O_18
REMARK                            x       y       z     vdW  Elec       q    Type
REMARK                         _______ _______ _______ _____ _____    ______ ____
ROOT
ATOM      1  C   UNL     1       1.041   9.158  18.639  0.00  0.00    +0.000 A 
ATOM      2  C   UNL     1       1.062   9.330  20.027  0.00  0.00    +0.000 A 
ATOM      3  C   UNL     1       1.578   8.326  20.850  0.00  0.00    +0.000 A 
ATOM      4  C   UNL     1       2.058   7.151  20.280  0.00  0.00    +0.000 A 
ATOM      5  C   UNL     1       2.073   6.976  18.894  0.00  0.00    +0.000 A 
ATOM      6  C   UNL     1       1.525   7.973  18.079  0.00  0.00    +0.000 A 
ATOM      7  C   UNL     1       2.629   5.717  18.347  0.00  0.00    +0.000 C 
ATOM      8  C   UNL     1       3.798   5.740  17.647  0.00  0.00    +0.000 C 
ATOM      9  C   UNL     1       4.522   4.506  17.121  0.00  0.00    +0.000 C 
ATOM     10  C   UNL     1       4.711   4.631  15.603  0.00  0.00    +0.000 C 
ATOM     11  N   UNL     1       5.513   5.808  15.199  0.00  0.00    +0.000 NA
ATOM     12  C   UNL     1       4.860   7.024  15.745  0.00  0.00    +0.000 C 
ATOM     13  C   UNL     1       4.587   6.988  17.266  0.00  0.00    +0.000 C 
ATOM     14  C   UNL     1       1.956   4.434  18.690  0.00  0.00    +0.000 A 
ATOM     15  N   UNL     1       1.726   3.600  17.638  0.00  0.00    +0.000 NA
ATOM     16  C   UNL     1       1.142   2.413  17.883  0.00  0.00    +0.000 A 
ATOM     17  C   UNL     1       0.733   2.008  19.135  0.00  0.00    +0.000 A 
ATOM     18  C   UNL     1       0.925   2.885  20.197  0.00  0.00    +0.000 A 
ATOM     19  C   UNL     1       1.545   4.131  19.993  0.00  0.00    +0.000 A 
ATOM     20  C   UNL     1       1.642   5.070  21.177  0.00  0.00    +0.000 C 
ATOM     21  O   UNL     1       2.557   6.171  21.098  0.00  0.00    +0.000 OA
ENDROOT
BRANCH   1  23
ATOM     22  C   UNL     1      -0.758  10.566  18.026  0.00  0.00    +0.000 C 
ATOM     23  O   UNL     1       0.543  10.064  17.742  0.00  0.00    +0.000 OA
ENDBRANCH   1  23
BRANCH  11  24
ATOM     24  C   UNL     1       6.927   5.740  15.628  0.00  0.00    +0.000 C 
BRANCH  24  25
ATOM     25  C   UNL     1       7.762   4.753  14.810  0.00  0.00    +0.000 C 
BRANCH  25  26
ATOM     26  C   UNL     1       7.593   4.997  13.331  0.00  0.00    +0.000 C 
ATOM     27  O   UNL     1       8.165   5.858  12.682  0.00  0.00    +0.000 OA
BRANCH  26  28
ATOM     28  O   UNL     1       6.727   4.122  12.765  0.00  0.00    +0.000 OA
ATOM     29  H   UNL     1       6.355   4.434  11.919  0.00  0.00    +0.000 HD
ENDBRANCH  26  28
ENDBRANCH  25  26
ENDBRANCH  24  25
ENDBRANCH  11  24
TORSDOF 5
ENDMDL
MODEL 9
REMARK VINA RESULT:      -6.3      6.419      9.503
REMARK  Name = 
REMARK  6 active torsions:
REMARK  status: ('A' for Active; 'I' for Inactive)
REMARK    1  A    between atoms: C_1  and  O_2
REMARK    2  A    between atoms: O_2  and  C_3
REMARK    3  A    between atoms: N_13  and  C_14
REMARK    4  A    between atoms: C_14  and  C_15
REMARK    5  A    between atoms: C_15  and  C_16
REMARK    6  A    between atoms: C_16  and  O_18
REMARK                            x       y       z     vdW  Elec       q    Type
REMARK                         _______ _______ _______ _____ _____    ______ ____
ROOT
ATOM      1  C   UNL     1      -2.665  10.942  17.019  0.00  0.00    +0.000 A 
ATOM      2  C   UNL     1      -1.895   9.776  16.995  0.00  0.00    +0.000 A 
ATOM      3  C   UNL     1      -0.700   9.709  17.717  0.00  0.00    +0.000 A 
ATOM      4  C   UNL     1      -0.278  10.815  18.448  0.00  0.00    +0.000 A 
ATOM      5  C   UNL     1      -1.051  11.978  18.507  0.00  0.00    +0.000 A 
ATOM      6  C   UNL     1      -2.230  12.047  17.755  0.00  0.00    +0.000 A 
ATOM      7  C   UNL     1      -0.564  13.108  19.330  0.00  0.00    +0.000 C 
ATOM      8  C   UNL     1      -1.228  13.454  20.468  0.00  0.00    +0.000 C 
ATOM      9  C   UNL     1      -0.774  14.528  21.450  0.00  0.00    +0.000 C 
ATOM     10  C   UNL     1      -1.884  15.576  21.614  0.00  0.00    +0.000 C 
ATOM     11  N   UNL     1      -3.153  15.021  22.137  0.00  0.00    +0.000 NA
ATOM     12  C   UNL     1      -3.592  13.932  21.228  0.00  0.00    +0.000 C 
ATOM     13  C   UNL     1      -2.532  12.838  20.964  0.00  0.00    +0.000 C 
ATOM     14  C   UNL     1       0.723  13.757  18.956  0.00  0.00    +0.000 A 
ATOM     15  N   UNL     1       0.698  15.119  18.921  0.00  0.00    +0.000 NA
ATOM     16  C   UNL     1       1.834  15.769  18.613  0.00  0.00    +0.000 A 
ATOM     17  C   UNL     1       3.015  15.133  18.299  0.00  0.00    +0.000 A 
ATOM     18  C   UNL     1       3.022  13.743  18.287  0.00  0.00    +0.000 A 
ATOM     19  C   UNL     1       1.862  13.019  18.617  0.00  0.00    +0.000 A 
ATOM     20  C   UNL     1       1.918  11.510  18.499  0.00  0.00    +0.000 C 
ATOM     21  O   UNL     1       0.898  10.739  19.148  0.00  0.00    +0.000 OA
ENDROOT
BRANCH   1  23
ATOM     22  C   UNL     1      -4.904  11.702  17.081  0.00  0.00    +0.000 C 
ATOM     23  O   UNL     1      -3.838  11.126  16.336  0.00  0.00    +0.000 OA
ENDBRANCH   1  23
BRANCH  11  24
ATOM     24  C   UNL     1      -3.058  14.530  23.528  0.00  0.00    +0.000 C 
BRANCH  24  25
ATOM     25  C   UNL     1      -4.411  14.146  24.130  0.00  0.00    +0.000 C 
BRANCH  25  26
ATOM     26  C   UNL     1      -4.516  12.653  24.317  0.00  0.00    +0.000 C 
ATOM     27  O   UNL     1      -3.618  11.848  24.134  0.00  0.00    +0.000 OA
BRANCH  26  28
ATOM     28  O   UNL     1      -5.746  12.279  24.743  0.00  0.00    +0.000 OA
ATOM     29  H   UNL     1      -5.742  11.459  25.272  0.00  0.00    +0.000 HD
ENDBRANCH  26  28
ENDBRANCH  25  26
ENDBRANCH  24  25
ENDBRANCH  11  24
TORSDOF 5
ENDMDL
