MODEL 1
REMARK VINA RESULT:      -8.0      0.000      0.000
REMARK  Name = 
REMARK  8 active torsions:
REMARK  status: ('A' for Active; 'I' for Inactive)
REMARK    1  A    between atoms: C_1  and  C_2
REMARK    2  A    between atoms: C_4  and  C_5
REMARK    3  A    between atoms: C_6  and  C_7
REMARK    4  A    between atoms: C_8  and  C_9
REMARK    5  A    between atoms: C_9  and  C_11
REMARK    6  A    between atoms: C_12  and  C_13
REMARK    7  A    between atoms: C_18  and  N_19
REMARK    8  A    between atoms: C_23  and  C_24
REMARK                            x       y       z     vdW  Elec       q    Type
REMARK                         _______ _______ _______ _____ _____    ______ ____
ROOT
ATOM      1  C   UNL     1       2.852   4.340  19.810  0.00  0.00    +0.000 C 
ATOM      2  O   UNL     1       3.045   3.410  20.586  0.00  0.00    +0.000 OA
ENDROOT
BRANCH   1   4
ATOM      3  C   UNL     1       2.412   6.738  19.823  0.00  0.00    +0.000 C 
ATOM      4  C   UNL     1       1.995   5.505  20.154  0.00  0.00    +0.000 C 
BRANCH   3  10
ATOM      5  C   UNL     1      -0.308  11.573  21.064  0.00  0.00    +0.000 C 
ATOM      6  C   UNL     1       0.389  10.286  20.743  0.00  0.00    +0.000 A 
ATOM      7  N   UNL     1       0.834  10.144  19.471  0.00  0.00    +0.000 NA
ATOM      8  C   UNL     1       1.482   8.987  19.167  0.00  0.00    +0.000 A 
ATOM      9  C   UNL     1       1.962   8.869  17.752  0.00  0.00    +0.000 C 
ATOM     10  C   UNL     1       1.685   7.983  20.123  0.00  0.00    +0.000 A 
ATOM     11  N   UNL     1       1.226   8.122  21.393  0.00  0.00    +0.000 NA
ATOM     12  C   UNL     1       0.579   9.281  21.695  0.00  0.00    +0.000 A 
ATOM     13  C   UNL     1       0.084   9.431  23.102  0.00  0.00    +0.000 C 
ENDBRANCH   3  10
ENDBRANCH   1   4
BRANCH   1  14
ATOM     14  C   UNL     1       3.491   4.403  18.470  0.00  0.00    +0.000 C 
ATOM     15  C   UNL     1       4.826   4.305  18.370  0.00  0.00    +0.000 C 
BRANCH  15  16
ATOM     16  C   UNL     1       5.521   4.492  17.094  0.00  0.00    +0.000 A 
ATOM     17  C   UNL     1       4.842   4.082  15.934  0.00  0.00    +0.000 A 
ATOM     18  C   UNL     1       5.412   4.251  14.669  0.00  0.00    +0.000 A 
ATOM     19  C   UNL     1       6.668   4.843  14.535  0.00  0.00    +0.000 A 
ATOM     20  C   UNL     1       7.365   5.255  15.668  0.00  0.00    +0.000 A 
ATOM     21  C   UNL     1       6.792   5.066  16.935  0.00  0.00    +0.000 A 
BRANCH  21  22
ATOM     22  N   UNL     1       7.572   5.474  18.087  0.00  0.00    +0.000 N 
ATOM     23  O   UNL     1       7.634   6.688  18.331  0.00  0.00    +0.000 OA
ATOM     24  O   UNL     1       8.069   4.573  18.777  0.00  0.00    +0.000 OA
ENDBRANCH  21  22
ENDBRANCH  15  16
ENDBRANCH   1  14
TORSDOF 5
ENDMDL
MODEL 2
REMARK VINA RESULT:      -7.6      3.177      8.584
REMARK  Name = 
REMARK  8 active torsions:
REMARK  status: ('A' for Active; 'I' for Inactive)
REMARK    1  A    between atoms: C_1  and  C_2
REMARK    2  A    between atoms: C_4  and  C_5
REMARK    3  A    between atoms: C_6  and  C_7
REMARK    4  A    between atoms: C_8  and  C_9
REMARK    5  A    between atoms: C_9  and  C_11
REMARK    6  A    between atoms: C_12  and  C_13
REMARK    7  A    between atoms: C_18  and  N_19
REMARK    8  A    between atoms: C_23  and  C_24
REMARK                            x       y       z     vdW  Elec       q    Type
REMARK                         _______ _______ _______ _____ _____    ______ ____
ROOT
ATOM      1  C   UNL     1       1.534   9.474  18.469  0.00  0.00    +0.000 C 
ATOM      2  O   UNL     1       2.032   9.918  17.440  0.00  0.00    +0.000 OA
ENDROOT
BRANCH   1   4
ATOM      3  C   UNL     1       2.673   7.323  18.340  0.00  0.00    +0.000 C 
ATOM      4  C   UNL     1       1.973   8.194  19.084  0.00  0.00    +0.000 C 
BRANCH   3  10
ATOM      5  C   UNL     1       4.402   2.199  20.093  0.00  0.00    +0.000 C 
ATOM      6  C   UNL     1       3.950   3.558  19.654  0.00  0.00    +0.000 A 
ATOM      7  N   UNL     1       4.687   4.154  18.686  0.00  0.00    +0.000 NA
ATOM      8  C   UNL     1       4.280   5.382  18.265  0.00  0.00    +0.000 A 
ATOM      9  C   UNL     1       5.119   6.007  17.191  0.00  0.00    +0.000 C 
ATOM     10  C   UNL     1       3.148   6.008  18.804  0.00  0.00    +0.000 A 
ATOM     11  N   UNL     1       2.419   5.414  19.784  0.00  0.00    +0.000 NA
ATOM     12  C   UNL     1       2.828   4.185  20.202  0.00  0.00    +0.000 A 
ATOM     13  C   UNL     1       2.011   3.533  21.277  0.00  0.00    +0.000 C 
ENDBRANCH   3  10
ENDBRANCH   1   4
BRANCH   1  14
ATOM     14  C   UNL     1       0.471  10.198  19.215  0.00  0.00    +0.000 C 
ATOM     15  C   UNL     1       0.762  10.759  20.399  0.00  0.00    +0.000 C 
BRANCH  15  16
ATOM     16  C   UNL     1      -0.272  11.369  21.238  0.00  0.00    +0.000 A 
ATOM     17  C   UNL     1      -0.784  12.607  20.818  0.00  0.00    +0.000 A 
ATOM     18  C   UNL     1      -1.797  13.250  21.538  0.00  0.00    +0.000 A 
ATOM     19  C   UNL     1      -2.326  12.662  22.687  0.00  0.00    +0.000 A 
ATOM     20  C   UNL     1      -1.834  11.436  23.128  0.00  0.00    +0.000 A 
ATOM     21  C   UNL     1      -0.806  10.808  22.409  0.00  0.00    +0.000 A 
BRANCH  21  22
ATOM     22  N   UNL     1      -0.299   9.553  22.930  0.00  0.00    +0.000 N 
ATOM     23  O   UNL     1       0.489   9.611  23.885  0.00  0.00    +0.000 OA
ATOM     24  O   UNL     1      -0.739   8.514  22.420  0.00  0.00    +0.000 OA
ENDBRANCH  21  22
ENDBRANCH  15  16
ENDBRANCH   1  14
TORSDOF 5
ENDMDL
MODEL 3
REMARK VINA RESULT:      -7.5      1.421      2.573
REMARK  Name = 
REMARK  8 active torsions:
REMARK  status: ('A' for Active; 'I' for Inactive)
REMARK    1  A    between atoms: C_1  and  C_2
REMARK    2  A    between atoms: C_4  and  C_5
REMARK    3  A    between atoms: C_6  and  C_7
REMARK    4  A    between atoms: C_8  and  C_9
REMARK    5  A    between atoms: C_9  and  C_11
REMARK    6  A    between atoms: C_12  and  C_13
REMARK    7  A    between atoms: C_18  and  N_19
REMARK    8  A    between atoms: C_23  and  C_24
REMARK                            x       y       z     vdW  Elec       q    Type
REMARK                         _______ _______ _______ _____ _____    ______ ____
ROOT
ATOM      1  C   UNL     1       2.252   6.253  19.966  0.00  0.00    +0.000 C 
ATOM      2  O   UNL     1       1.879   5.537  20.890  0.00  0.00    +0.000 OA
ENDROOT
BRANCH   1   4
ATOM      3  C   UNL     1       1.226   8.261  20.892  0.00  0.00    +0.000 C 
ATOM      4  C   UNL     1       1.978   7.713  19.924  0.00  0.00    +0.000 C 
BRANCH   3  10
ATOM      5  C   UNL     1      -0.307  13.732  21.080  0.00  0.00    +0.000 C 
ATOM      6  C   UNL     1       0.121  12.297  21.027  0.00  0.00    +0.000 A 
ATOM      7  N   UNL     1      -0.131  11.553  22.131  0.00  0.00    +0.000 NA
ATOM      8  C   UNL     1       0.236  10.244  22.093  0.00  0.00    +0.000 A 
ATOM      9  C   UNL     1      -0.062   9.453  23.331  0.00  0.00    +0.000 C 
ATOM     10  C   UNL     1       0.849   9.683  20.965  0.00  0.00    +0.000 A 
ATOM     11  N   UNL     1       1.112  10.434  19.865  0.00  0.00    +0.000 NA
ATOM     12  C   UNL     1       0.742  11.743  19.905  0.00  0.00    +0.000 A 
ATOM     13  C   UNL     1       1.028  12.563  18.682  0.00  0.00    +0.000 C 
ENDBRANCH   3  10
ENDBRANCH   1   4
BRANCH   1  14
ATOM     14  C   UNL     1       3.046   5.729  18.824  0.00  0.00    +0.000 C 
ATOM     15  C   UNL     1       4.356   5.484  18.989  0.00  0.00    +0.000 C 
BRANCH  15  16
ATOM     16  C   UNL     1       5.215   5.094  17.868  0.00  0.00    +0.000 A 
ATOM     17  C   UNL     1       4.584   4.511  16.756  0.00  0.00    +0.000 A 
ATOM     18  C   UNL     1       5.319   4.137  15.626  0.00  0.00    +0.000 A 
ATOM     19  C   UNL     1       6.697   4.347  15.580  0.00  0.00    +0.000 A 
ATOM     20  C   UNL     1       7.348   4.920  16.670  0.00  0.00    +0.000 A 
ATOM     21  C   UNL     1       6.605   5.276  17.806  0.00  0.00    +0.000 A 
BRANCH  21  22
ATOM     22  N   UNL     1       7.333   5.832  18.931  0.00  0.00    +0.000 N 
ATOM     23  O   UNL     1       7.269   5.220  20.007  0.00  0.00    +0.000 OA
ATOM     24  O   UNL     1       8.013   6.844  18.715  0.00  0.00    +0.000 OA
ENDBRANCH  21  22
ENDBRANCH  15  16
ENDBRANCH   1  14
TORSDOF 5
ENDMDL
MODEL 4
REMARK VINA RESULT:      -7.5      2.608      4.416
REMARK  Name = 
REMARK  8 active torsions:
REMARK  status: ('A' for Active; 'I' for Inactive)
REMARK    1  A    between atoms: C_1  and  C_2
REMARK    2  A    between atoms: C_4  and  C_5
REMARK    3  A    between atoms: C_6  and  C_7
REMARK    4  A    between atoms: C_8  and  C_9
REMARK    5  A    between atoms: C_9  and  C_11
REMARK    6  A    between atoms: C_12  and  C_13
REMARK    7  A    between atoms: C_18  and  N_19
REMARK    8  A    between atoms: C_23  and  C_24
REMARK                            x       y       z     vdW  Elec       q    Type
REMARK                         _______ _______ _______ _____ _____    ______ ____
ROOT
ATOM      1  C   UNL     1       1.674   9.533  18.462  0.00  0.00    +0.000 C 
ATOM      2  O   UNL     1       2.205  10.320  17.684  0.00  0.00    +0.000 OA
ENDROOT
BRANCH   1   4
ATOM      3  C   UNL     1       0.675  10.794  20.293  0.00  0.00    +0.000 C 
ATOM      4  C   UNL     1       0.506   9.904  19.303  0.00  0.00    +0.000 C 
BRANCH   3  10
ATOM      5  C   UNL     1      -3.481  12.465  23.793  0.00  0.00    +0.000 C 
ATOM      6  C   UNL     1      -2.376  12.047  22.872  0.00  0.00    +0.000 A 
ATOM      7  N   UNL     1      -1.598  11.020  23.293  0.00  0.00    +0.000 NA
ATOM      8  C   UNL     1      -0.600  10.618  22.460  0.00  0.00    +0.000 A 
ATOM      9  C   UNL     1       0.235   9.478  22.959  0.00  0.00    +0.000 C 
ATOM     10  C   UNL     1      -0.380  11.235  21.222  0.00  0.00    +0.000 A 
ATOM     11  N   UNL     1      -1.152  12.273  20.809  0.00  0.00    +0.000 NA
ATOM     12  C   UNL     1      -2.151  12.672  21.643  0.00  0.00    +0.000 A 
ATOM     13  C   UNL     1      -3.005  13.812  21.175  0.00  0.00    +0.000 C 
ENDBRANCH   3  10
ENDBRANCH   1   4
BRANCH   1  14
ATOM     14  C   UNL     1       2.131   8.126  18.605  0.00  0.00    +0.000 C 
ATOM     15  C   UNL     1       2.879   7.574  17.637  0.00  0.00    +0.000 C 
BRANCH  15  16
ATOM     16  C   UNL     1       3.246   6.156  17.659  0.00  0.00    +0.000 A 
ATOM     17  C   UNL     1       2.329   5.271  18.249  0.00  0.00    +0.000 A 
ATOM     18  C   UNL     1       2.578   3.895  18.287  0.00  0.00    +0.000 A 
ATOM     19  C   UNL     1       3.745   3.375  17.727  0.00  0.00    +0.000 A 
ATOM     20  C   UNL     1       4.674   4.230  17.139  0.00  0.00    +0.000 A 
ATOM     21  C   UNL     1       4.423   5.611  17.122  0.00  0.00    +0.000 A 
BRANCH  21  22
ATOM     22  N   UNL     1       5.437   6.465  16.535  0.00  0.00    +0.000 N 
ATOM     23  O   UNL     1       6.345   6.863  17.280  0.00  0.00    +0.000 OA
ATOM     24  O   UNL     1       5.353   6.684  15.319  0.00  0.00    +0.000 OA
ENDBRANCH  21  22
ENDBRANCH  15  16
ENDBRANCH   1  14
TORSDOF 5
ENDMDL
MODEL 5
REMARK VINA RESULT:      -7.4      2.361      7.972
REMARK  Name = 
REMARK  8 active torsions:
REMARK  status: ('A' for Active; 'I' for Inactive)
REMARK    1  A    between atoms: C_1  and  C_2
REMARK    2  A    between atoms: C_4  and  C_5
REMARK    3  A    between atoms: C_6  and  C_7
REMARK    4  A    between atoms: C_8  and  C_9
REMARK    5  A    between atoms: C_9  and  C_11
REMARK    6  A    between atoms: C_12  and  C_13
REMARK    7  A    between atoms: C_18  and  N_19
REMARK    8  A    between atoms: C_23  and  C_24
REMARK                            x       y       z     vdW  Elec       q    Type
REMARK                         _______ _______ _______ _____ _____    ______ ____
ROOT
ATOM      1  C   UNL     1       3.154   4.797  19.426  0.00  0.00    +0.000 C 
ATOM      2  O   UNL     1       3.058   3.644  19.831  0.00  0.00    +0.000 OA
ENDROOT
BRANCH   1   4
ATOM      3  C   UNL     1       4.916   4.402  17.788  0.00  0.00    +0.000 C 
ATOM      4  C   UNL     1       3.866   5.147  18.168  0.00  0.00    +0.000 C 
BRANCH   3  10
ATOM      5  C   UNL     1       7.969   5.391  13.096  0.00  0.00    +0.000 C 
ATOM      6  C   UNL     1       7.170   5.106  14.331  0.00  0.00    +0.000 A 
ATOM      7  N   UNL     1       7.588   5.707  15.470  0.00  0.00    +0.000 NA
ATOM      8  C   UNL     1       6.863   5.472  16.597  0.00  0.00    +0.000 A 
ATOM      9  C   UNL     1       7.356   6.156  17.836  0.00  0.00    +0.000 C 
ATOM     10  C   UNL     1       5.732   4.645  16.586  0.00  0.00    +0.000 A 
ATOM     11  N   UNL     1       5.323   4.033  15.445  0.00  0.00    +0.000 NA
ATOM     12  C   UNL     1       6.049   4.272  14.319  0.00  0.00    +0.000 A 
ATOM     13  C   UNL     1       5.585   3.600  13.062  0.00  0.00    +0.000 C 
ENDBRANCH   3  10
ENDBRANCH   1   4
BRANCH   1  14
ATOM     14  C   UNL     1       2.534   5.945  20.137  0.00  0.00    +0.000 C 
ATOM     15  C   UNL     1       2.071   6.988  19.429  0.00  0.00    +0.000 C 
BRANCH  15  16
ATOM     16  C   UNL     1       1.571   8.201  20.080  0.00  0.00    +0.000 A 
ATOM     17  C   UNL     1       1.526   8.198  21.483  0.00  0.00    +0.000 A 
ATOM     18  C   UNL     1       1.095   9.324  22.193  0.00  0.00    +0.000 A 
ATOM     19  C   UNL     1       0.709  10.479  21.514  0.00  0.00    +0.000 A 
ATOM     20  C   UNL     1       0.741  10.509  20.122  0.00  0.00    +0.000 A 
ATOM     21  C   UNL     1       1.158   9.369  19.418  0.00  0.00    +0.000 A 
BRANCH  21  22
ATOM     22  N   UNL     1       1.136   9.433  17.969  0.00  0.00    +0.000 N 
ATOM     23  O   UNL     1       2.218   9.612  17.392  0.00  0.00    +0.000 OA
ATOM     24  O   UNL     1       0.044   9.245  17.416  0.00  0.00    +0.000 OA
ENDBRANCH  21  22
ENDBRANCH  15  16
ENDBRANCH   1  14
TORSDOF 5
ENDMDL
MODEL 6
REMARK VINA RESULT:      -7.4      4.457      8.461
REMARK  Name = 
REMARK  8 active torsions:
REMARK  status: ('A' for Active; 'I' for Inactive)
REMARK    1  A    between atoms: C_1  and  C_2
REMARK    2  A    between atoms: C_4  and  C_5
REMARK    3  A    between atoms: C_6  and  C_7
REMARK    4  A    between atoms: C_8  and  C_9
REMARK    5  A    between atoms: C_9  and  C_11
REMARK    6  A    between atoms: C_12  and  C_13
REMARK    7  A    between atoms: C_18  and  N_19
REMARK    8  A    between atoms: C_23  and  C_24
REMARK                            x       y       z     vdW  Elec       q    Type
REMARK                         _______ _______ _______ _____ _____    ______ ____
ROOT
ATOM      1  C   UNL     1       0.759   9.496  21.071  0.00  0.00    +0.000 C 
ATOM      2  O   UNL     1       1.255  10.424  21.701  0.00  0.00    +0.000 OA
ENDROOT
BRANCH   1   4
ATOM      3  C   UNL     1       1.844   7.615  19.963  0.00  0.00    +0.000 C 
ATOM      4  C   UNL     1       1.325   8.121  21.093  0.00  0.00    +0.000 C 
BRANCH   3  10
ATOM      5  C   UNL     1       3.922   2.351  19.424  0.00  0.00    +0.000 C 
ATOM      6  C   UNL     1       3.385   3.740  19.589  0.00  0.00    +0.000 A 
ATOM      7  N   UNL     1       3.790   4.654  18.675  0.00  0.00    +0.000 NA
ATOM      8  C   UNL     1       3.298   5.915  18.800  0.00  0.00    +0.000 A 
ATOM      9  C   UNL     1       3.767   6.897  17.768  0.00  0.00    +0.000 C 
ATOM     10  C   UNL     1       2.412   6.262  19.828  0.00  0.00    +0.000 A 
ATOM     11  N   UNL     1       2.018   5.347  20.751  0.00  0.00    +0.000 NA
ATOM     12  C   UNL     1       2.510   4.085  20.622  0.00  0.00    +0.000 A 
ATOM     13  C   UNL     1       2.062   3.079  21.640  0.00  0.00    +0.000 C 
ENDBRANCH   3  10
ENDBRANCH   1   4
BRANCH   1  14
ATOM     14  C   UNL     1      -0.475   9.655  20.259  0.00  0.00    +0.000 C 
ATOM     15  C   UNL     1      -0.413  10.302  19.084  0.00  0.00    +0.000 C 
BRANCH  15  16
ATOM     16  C   UNL     1      -1.617  10.604  18.305  0.00  0.00    +0.000 A 
ATOM     17  C   UNL     1      -1.868   9.797  17.184  0.00  0.00    +0.000 A 
ATOM     18  C   UNL     1      -3.009   9.990  16.399  0.00  0.00    +0.000 A 
ATOM     19  C   UNL     1      -3.928  10.987  16.725  0.00  0.00    +0.000 A 
ATOM     20  C   UNL     1      -3.702  11.804  17.829  0.00  0.00    +0.000 A 
ATOM     21  C   UNL     1      -2.545  11.615  18.601  0.00  0.00    +0.000 A 
BRANCH  21  22
ATOM     22  N   UNL     1      -2.333  12.516  19.717  0.00  0.00    +0.000 N 
ATOM     23  O   UNL     1      -3.010  12.326  20.737  0.00  0.00    +0.000 OA
ATOM     24  O   UNL     1      -1.447  13.371  19.587  0.00  0.00    +0.000 OA
ENDBRANCH  21  22
ENDBRANCH  15  16
ENDBRANCH   1  14
TORSDOF 5
ENDMDL
MODEL 7
REMARK VINA RESULT:      -7.3      3.247      4.932
REMARK  Name = 
REMARK  8 active torsions:
REMARK  status: ('A' for Active; 'I' for Inactive)
REMARK    1  A    between atoms: C_1  and  C_2
REMARK    2  A    between atoms: C_4  and  C_5
REMARK    3  A    between atoms: C_6  and  C_7
REMARK    4  A    between atoms: C_8  and  C_9
REMARK    5  A    between atoms: C_9  and  C_11
REMARK    6  A    between atoms: C_12  and  C_13
REMARK    7  A    between atoms: C_18  and  N_19
REMARK    8  A    between atoms: C_23  and  C_24
REMARK                            x       y       z     vdW  Elec       q    Type
REMARK                         _______ _______ _______ _____ _____    ______ ____
ROOT
ATOM      1  C   UNL     1       2.093   8.566  18.239  0.00  0.00    +0.000 C 
ATOM      2  O   UNL     1       2.468   8.616  17.073  0.00  0.00    +0.000 OA
ENDROOT
BRANCH   1   4
ATOM      3  C   UNL     1       0.998   9.556  20.180  0.00  0.00    +0.000 C 
ATOM      4  C   UNL     1       1.356   9.680  18.892  0.00  0.00    +0.000 C 
BRANCH   3  10
ATOM      5  C   UNL     1      -2.015  13.414  23.068  0.00  0.00    +0.000 C 
ATOM      6  C   UNL     1      -1.204  12.415  22.301  0.00  0.00    +0.000 A 
ATOM      7  N   UNL     1      -0.756  11.342  22.998  0.00  0.00    +0.000 NA
ATOM      8  C   UNL     1      -0.032  10.417  22.312  0.00  0.00    +0.000 A 
ATOM      9  C   UNL     1       0.442   9.244  23.116  0.00  0.00    +0.000 C 
ATOM     10  C   UNL     1       0.243  10.561  20.946  0.00  0.00    +0.000 A 
ATOM     11  N   UNL     1      -0.196  11.643  20.254  0.00  0.00    +0.000 NA
ATOM     12  C   UNL     1      -0.922  12.567  20.942  0.00  0.00    +0.000 A 
ATOM     13  C   UNL     1      -1.410  13.754  20.167  0.00  0.00    +0.000 C 
ENDBRANCH   3  10
ENDBRANCH   1   4
BRANCH   1  14
ATOM     14  C   UNL     1       2.310   7.370  19.094  0.00  0.00    +0.000 C 
ATOM     15  C   UNL     1       2.312   6.150  18.534  0.00  0.00    +0.000 C 
BRANCH  15  16
ATOM     16  C   UNL     1       2.388   4.930  19.341  0.00  0.00    +0.000 A 
ATOM     17  C   UNL     1       2.065   5.047  20.703  0.00  0.00    +0.000 A 
ATOM     18  C   UNL     1       2.078   3.930  21.544  0.00  0.00    +0.000 A 
ATOM     19  C   UNL     1       2.404   2.671  21.039  0.00  0.00    +0.000 A 
ATOM     20  C   UNL     1       2.732   2.527  19.694  0.00  0.00    +0.000 A 
ATOM     21  C   UNL     1       2.733   3.656  18.861  0.00  0.00    +0.000 A 
BRANCH  21  22
ATOM     22  N   UNL     1       3.121   3.464  17.477  0.00  0.00    +0.000 N 
ATOM     23  O   UNL     1       2.218   3.221  16.662  0.00  0.00    +0.000 OA
ATOM     24  O   UNL     1       4.319   3.616  17.202  0.00  0.00    +0.000 OA
ENDBRANCH  21  22
ENDBRANCH  15  16
ENDBRANCH   1  14
TORSDOF 5
ENDMDL
MODEL 8
REMARK VINA RESULT:      -7.3      2.916      4.751
REMARK  Name = 
REMARK  8 active torsions:
REMARK  status: ('A' for Active; 'I' for Inactive)
REMARK    1  A    between atoms: C_1  and  C_2
REMARK    2  A    between atoms: C_4  and  C_5
REMARK    3  A    between atoms: C_6  and  C_7
REMARK    4  A    between atoms: C_8  and  C_9
REMARK    5  A    between atoms: C_9  and  C_11
REMARK    6  A    between atoms: C_12  and  C_13
REMARK    7  A    between atoms: C_18  and  N_19
REMARK    8  A    between atoms: C_23  and  C_24
REMARK                            x       y       z     vdW  Elec       q    Type
REMARK                         _______ _______ _______ _____ _____    ______ ____
ROOT
ATOM      1  C   UNL     1       1.970   8.682  18.534  0.00  0.00    +0.000 C 
ATOM      2  O   UNL     1       2.144   8.697  17.320  0.00  0.00    +0.000 OA
ENDROOT
BRANCH   1   4
ATOM      3  C   UNL     1       0.554   9.685  20.246  0.00  0.00    +0.000 C 
ATOM      4  C   UNL     1       1.476   9.865  19.286  0.00  0.00    +0.000 C 
BRANCH   3  10
ATOM      5  C   UNL     1      -1.867  13.834  23.286  0.00  0.00    +0.000 C 
ATOM      6  C   UNL     1      -1.210  12.756  22.479  0.00  0.00    +0.000 A 
ATOM      7  N   UNL     1      -0.863  11.630  23.148  0.00  0.00    +0.000 NA
ATOM      8  C   UNL     1      -0.281  10.636  22.426  0.00  0.00    +0.000 A 
ATOM      9  C   UNL     1       0.086   9.406  23.201  0.00  0.00    +0.000 C 
ATOM     10  C   UNL     1      -0.047  10.762  21.051  0.00  0.00    +0.000 A 
ATOM     11  N   UNL     1      -0.383  11.897  20.385  0.00  0.00    +0.000 NA
ATOM     12  C   UNL     1      -0.968  12.890  21.109  0.00  0.00    +0.000 A 
ATOM     13  C   UNL     1      -1.345  14.136  20.364  0.00  0.00    +0.000 C 
ENDBRANCH   3  10
ENDBRANCH   1   4
BRANCH   1  14
ATOM     14  C   UNL     1       2.203   7.466  19.356  0.00  0.00    +0.000 C 
ATOM     15  C   UNL     1       2.375   6.282  18.748  0.00  0.00    +0.000 C 
BRANCH  15  16
ATOM     16  C   UNL     1       2.476   5.033  19.507  0.00  0.00    +0.000 A 
ATOM     17  C   UNL     1       1.358   4.660  20.271  0.00  0.00    +0.000 A 
ATOM     18  C   UNL     1       1.349   3.468  21.001  0.00  0.00    +0.000 A 
ATOM     19  C   UNL     1       2.455   2.618  20.975  0.00  0.00    +0.000 A 
ATOM     20  C   UNL     1       3.578   2.964  20.229  0.00  0.00    +0.000 A 
ATOM     21  C   UNL     1       3.584   4.171  19.513  0.00  0.00    +0.000 A 
BRANCH  21  22
ATOM     22  N   UNL     1       4.792   4.508  18.783  0.00  0.00    +0.000 N 
ATOM     23  O   UNL     1       4.910   4.049  17.638  0.00  0.00    +0.000 OA
ATOM     24  O   UNL     1       5.586   5.278  19.338  0.00  0.00    +0.000 OA
ENDBRANCH  21  22
ENDBRANCH  15  16
ENDBRANCH   1  14
TORSDOF 5
ENDMDL
MODEL 9
REMARK VINA RESULT:      -7.3      3.193      4.810
REMARK  Name = 
REMARK  8 active torsions:
REMARK  status: ('A' for Active; 'I' for Inactive)
REMARK    1  A    between atoms: C_1  and  C_2
REMARK    2  A    between atoms: C_4  and  C_5
REMARK    3  A    between atoms: C_6  and  C_7
REMARK    4  A    between atoms: C_8  and  C_9
REMARK    5  A    between atoms: C_9  and  C_11
REMARK    6  A    between atoms: C_12  and  C_13
REMARK    7  A    between atoms: C_18  and  N_19
REMARK    8  A    between atoms: C_23  and  C_24
REMARK                            x       y       z     vdW  Elec       q    Type
REMARK                         _______ _______ _______ _____ _____    ______ ____
ROOT
ATOM      1  C   UNL     1       2.797   7.879  17.821  0.00  0.00    +0.000 C 
ATOM      2  O   UNL     1       3.657   8.298  17.053  0.00  0.00    +0.000 OA
ENDROOT
BRANCH   1   4
ATOM      3  C   UNL     1       1.235   9.650  18.426  0.00  0.00    +0.000 C 
ATOM      4  C   UNL     1       1.422   8.443  17.868  0.00  0.00    +0.000 C 
BRANCH   3  10
ATOM      5  C   UNL     1      -3.849  12.128  18.998  0.00  0.00    +0.000 C 
ATOM      6  C   UNL     1      -2.508  11.484  18.825  0.00  0.00    +0.000 A 
ATOM      7  N   UNL     1      -1.545  11.853  19.704  0.00  0.00    +0.000 NA
ATOM      8  C   UNL     1      -0.326  11.266  19.570  0.00  0.00    +0.000 A 
ATOM      9  C   UNL     1       0.711  11.697  20.562  0.00  0.00    +0.000 C 
ATOM     10  C   UNL     1      -0.069  10.320  18.569  0.00  0.00    +0.000 A 
ATOM     11  N   UNL     1      -1.032   9.962  17.680  0.00  0.00    +0.000 NA
ATOM     12  C   UNL     1      -2.252  10.550  17.818  0.00  0.00    +0.000 A 
ATOM     13  C   UNL     1      -3.312  10.142  16.839  0.00  0.00    +0.000 C 
ENDBRANCH   3  10
ENDBRANCH   1   4
BRANCH   1  14
ATOM     14  C   UNL     1       3.043   6.743  18.747  0.00  0.00    +0.000 C 
ATOM     15  C   UNL     1       2.344   5.607  18.597  0.00  0.00    +0.000 C 
BRANCH  15  16
ATOM     16  C   UNL     1       2.447   4.505  19.557  0.00  0.00    +0.000 A 
ATOM     17  C   UNL     1       1.385   4.349  20.463  0.00  0.00    +0.000 A 
ATOM     18  C   UNL     1       1.380   3.305  21.394  0.00  0.00    +0.000 A 
ATOM     19  C   UNL     1       2.433   2.391  21.433  0.00  0.00    +0.000 A 
ATOM     20  C   UNL     1       3.500   2.524  20.549  0.00  0.00    +0.000 A 
ATOM     21  C   UNL     1       3.505   3.585  19.630  0.00  0.00    +0.000 A 
BRANCH  21  22
ATOM     22  N   UNL     1       4.657   3.706  18.758  0.00  0.00    +0.000 N 
ATOM     23  O   UNL     1       4.511   3.373  17.573  0.00  0.00    +0.000 OA
ATOM     24  O   UNL     1       5.685   4.192  19.249  0.00  0.00    +0.000 OA
ENDBRANCH  21  22
ENDBRANCH  15  16
ENDBRANCH   1  14
TORSDOF 5
ENDMDL
