MODEL 1
REMARK VINA RESULT:      -8.4      0.000      0.000
REMARK  Name = 
REMARK  1 active torsions:
REMARK  status: ('A' for Active; 'I' for Inactive)
REMARK    1  A    between atoms: C_11  and  C_12
REMARK                            x       y       z     vdW  Elec       q    Type
REMARK                         _______ _______ _______ _____ _____    ______ ____
ROOT
ATOM      1  O   UNL     1       2.165   6.917  20.914  0.00  0.00    +0.000 OA
ATOM      2  C   UNL     1       1.789   7.724  20.076  0.00  0.00    +0.000 C 
ATOM      3  C   UNL     1       1.104   8.978  20.505  0.00  0.00    +0.000 A 
ATOM      4  C   UNL     1       0.612   9.063  21.812  0.00  0.00    +0.000 A 
ATOM      5  C   UNL     1      -0.129  10.180  22.139  0.00  0.00    +0.000 A 
ATOM      6  C   UNL     1      -0.353  11.191  21.234  0.00  0.00    +0.000 A 
ATOM      7  C   UNL     1       0.146  11.151  19.951  0.00  0.00    +0.000 A 
ATOM      8  C   UNL     1       0.885  10.020  19.566  0.00  0.00    +0.000 A 
ATOM      9  C   UNL     1       1.344   9.916  18.132  0.00  0.00    +0.000 C 
ATOM     10  C   UNL     1       2.366   8.802  17.915  0.00  0.00    +0.000 C 
ATOM     11  C   UNL     1       1.843   7.524  18.566  0.00  0.00    +0.000 C 
ATOM     12  O   UNL     1      -1.132  12.180  21.748  0.00  0.00    +0.000 OA
ATOM     13  C   UNL     1      -1.441  11.636  23.046  0.00  0.00    +0.000 C 
ATOM     14  O   UNL     1      -0.737  10.407  23.332  0.00  0.00    +0.000 OA
ENDROOT
BRANCH  11  15
ATOM     15  C   UNL     1       2.546   6.284  18.056  0.00  0.00    +0.000 A 
ATOM     16  C   UNL     1       3.918   6.239  17.726  0.00  0.00    +0.000 A 
ATOM     17  C   UNL     1       4.543   5.022  17.419  0.00  0.00    +0.000 A 
ATOM     18  C   UNL     1       3.774   3.881  17.462  0.00  0.00    +0.000 A 
ATOM     19  C   UNL     1       2.423   3.928  17.707  0.00  0.00    +0.000 A 
ATOM     20  C   UNL     1       1.776   5.109  17.968  0.00  0.00    +0.000 A 
ATOM     21  O   UNL     1       1.854   2.694  17.746  0.00  0.00    +0.000 OA
ATOM     22  C   UNL     1       3.047   1.889  17.802  0.00  0.00    +0.000 C 
ATOM     23  O   UNL     1       4.219   2.598  17.342  0.00  0.00    +0.000 OA
ENDBRANCH  11  15
TORSDOF 1
ENDMDL
MODEL 2
REMARK VINA RESULT:      -8.3      1.179      1.929
REMARK  Name = 
REMARK  1 active torsions:
REMARK  status: ('A' for Active; 'I' for Inactive)
REMARK    1  A    between atoms: C_11  and  C_12
REMARK                            x       y       z     vdW  Elec       q    Type
REMARK                         _______ _______ _______ _____ _____    ______ ____
ROOT
ATOM      1  O   UNL     1       2.598   6.662  20.784  0.00  0.00    +0.000 OA
ATOM      2  C   UNL     1       2.131   7.423  19.948  0.00  0.00    +0.000 C 
ATOM      3  C   UNL     1       1.326   8.602  20.381  0.00  0.00    +0.000 A 
ATOM      4  C   UNL     1       0.845   8.642  21.694  0.00  0.00    +0.000 A 
ATOM      5  C   UNL     1      -0.003   9.679  22.027  0.00  0.00    +0.000 A 
ATOM      6  C   UNL     1      -0.342  10.657  21.122  0.00  0.00    +0.000 A 
ATOM      7  C   UNL     1       0.143  10.662  19.832  0.00  0.00    +0.000 A 
ATOM      8  C   UNL     1       0.989   9.611  19.441  0.00  0.00    +0.000 A 
ATOM      9  C   UNL     1       1.439   9.548  18.002  0.00  0.00    +0.000 C 
ATOM     10  C   UNL     1       2.567   8.544  17.776  0.00  0.00    +0.000 C 
ATOM     11  C   UNL     1       2.187   7.222  18.438  0.00  0.00    +0.000 C 
ATOM     12  O   UNL     1      -1.212  11.563  21.642  0.00  0.00    +0.000 OA
ATOM     13  C   UNL     1      -1.446  10.997  22.946  0.00  0.00    +0.000 C 
ATOM     14  O   UNL     1      -0.617   9.849  23.227  0.00  0.00    +0.000 OA
ENDROOT
BRANCH  11  15
ATOM     15  C   UNL     1       3.006   6.058  17.923  0.00  0.00    +0.000 A 
ATOM     16  C   UNL     1       2.501   4.747  17.776  0.00  0.00    +0.000 A 
ATOM     17  C   UNL     1       3.257   3.754  17.140  0.00  0.00    +0.000 A 
ATOM     18  C   UNL     1       4.499   4.106  16.659  0.00  0.00    +0.000 A 
ATOM     19  C   UNL     1       5.026   5.357  16.869  0.00  0.00    +0.000 A 
ATOM     20  C   UNL     1       4.326   6.338  17.525  0.00  0.00    +0.000 A 
ATOM     21  O   UNL     1       6.243   5.518  16.283  0.00  0.00    +0.000 OA
ATOM     22  C   UNL     1       6.257   4.343  15.450  0.00  0.00    +0.000 C 
ATOM     23  O   UNL     1       5.320   3.336  15.891  0.00  0.00    +0.000 OA
ENDBRANCH  11  15
TORSDOF 1
ENDMDL
MODEL 3
REMARK VINA RESULT:      -8.2      2.038      3.281
REMARK  Name = 
REMARK  1 active torsions:
REMARK  status: ('A' for Active; 'I' for Inactive)
REMARK    1  A    between atoms: C_11  and  C_12
REMARK                            x       y       z     vdW  Elec       q    Type
REMARK                         _______ _______ _______ _____ _____    ______ ____
ROOT
ATOM      1  O   UNL     1       2.745   8.125  17.033  0.00  0.00    +0.000 OA
ATOM      2  C   UNL     1       2.599   7.773  18.195  0.00  0.00    +0.000 C 
ATOM      3  C   UNL     1       1.800   8.613  19.133  0.00  0.00    +0.000 A 
ATOM      4  C   UNL     1       1.510   9.934  18.772  0.00  0.00    +0.000 A 
ATOM      5  C   UNL     1       0.883  10.725  19.713  0.00  0.00    +0.000 A 
ATOM      6  C   UNL     1       0.525  10.236  20.948  0.00  0.00    +0.000 A 
ATOM      7  C   UNL     1       0.769   8.932  21.320  0.00  0.00    +0.000 A 
ATOM      8  C   UNL     1       1.427   8.097  20.402  0.00  0.00    +0.000 A 
ATOM      9  C   UNL     1       1.795   6.699  20.838  0.00  0.00    +0.000 C 
ATOM     10  C   UNL     1       2.239   5.813  19.676  0.00  0.00    +0.000 C 
ATOM     11  C   UNL     1       3.273   6.571  18.848  0.00  0.00    +0.000 C 
ATOM     12  O   UNL     1      -0.048  11.187  21.733  0.00  0.00    +0.000 OA
ATOM     13  C   UNL     1       0.067  12.346  20.884  0.00  0.00    +0.000 C 
ATOM     14  O   UNL     1       0.579  12.041  19.569  0.00  0.00    +0.000 OA
ENDROOT
BRANCH  11  15
ATOM     15  C   UNL     1       4.081   5.658  17.951  0.00  0.00    +0.000 A 
ATOM     16  C   UNL     1       3.623   4.405  17.490  0.00  0.00    +0.000 A 
ATOM     17  C   UNL     1       4.347   3.684  16.531  0.00  0.00    +0.000 A 
ATOM     18  C   UNL     1       5.510   4.247  16.053  0.00  0.00    +0.000 A 
ATOM     19  C   UNL     1       6.000   5.428  16.554  0.00  0.00    +0.000 A 
ATOM     20  C   UNL     1       5.334   6.135  17.523  0.00  0.00    +0.000 A 
ATOM     21  O   UNL     1       7.134   5.835  15.924  0.00  0.00    +0.000 OA
ATOM     22  C   UNL     1       7.108   4.939  14.797  0.00  0.00    +0.000 C 
ATOM     23  O   UNL     1       6.274   3.782  15.025  0.00  0.00    +0.000 OA
ENDBRANCH  11  15
TORSDOF 1
ENDMDL
MODEL 4
REMARK VINA RESULT:      -7.7      1.987      8.034
REMARK  Name = 
REMARK  1 active torsions:
REMARK  status: ('A' for Active; 'I' for Inactive)
REMARK    1  A    between atoms: C_11  and  C_12
REMARK                            x       y       z     vdW  Elec       q    Type
REMARK                         _______ _______ _______ _____ _____    ______ ____
ROOT
ATOM      1  O   UNL     1       3.845   8.697  17.676  0.00  0.00    +0.000 OA
ATOM      2  C   UNL     1       3.482   7.561  17.942  0.00  0.00    +0.000 C 
ATOM      3  C   UNL     1       4.176   6.393  17.326  0.00  0.00    +0.000 A 
ATOM      4  C   UNL     1       5.002   6.610  16.217  0.00  0.00    +0.000 A 
ATOM      5  C   UNL     1       5.526   5.499  15.590  0.00  0.00    +0.000 A 
ATOM      6  C   UNL     1       5.281   4.225  16.047  0.00  0.00    +0.000 A 
ATOM      7  C   UNL     1       4.499   3.982  17.156  0.00  0.00    +0.000 A 
ATOM      8  C   UNL     1       3.924   5.083  17.811  0.00  0.00    +0.000 A 
ATOM      9  C   UNL     1       2.980   4.823  18.961  0.00  0.00    +0.000 C 
ATOM     10  C   UNL     1       2.655   6.083  19.759  0.00  0.00    +0.000 C 
ATOM     11  C   UNL     1       2.266   7.193  18.786  0.00  0.00    +0.000 C 
ATOM     12  O   UNL     1       5.863   3.275  15.268  0.00  0.00    +0.000 OA
ATOM     13  C   UNL     1       6.429   4.091  14.223  0.00  0.00    +0.000 C 
ATOM     14  O   UNL     1       6.292   5.507  14.468  0.00  0.00    +0.000 OA
ENDROOT
BRANCH  11  15
ATOM     15  C   UNL     1       1.525   8.326  19.463  0.00  0.00    +0.000 A 
ATOM     16  C   UNL     1       0.787   9.308  18.767  0.00  0.00    +0.000 A 
ATOM     17  C   UNL     1      -0.012  10.230  19.457  0.00  0.00    +0.000 A 
ATOM     18  C   UNL     1      -0.055  10.135  20.830  0.00  0.00    +0.000 A 
ATOM     19  C   UNL     1       0.721   9.232  21.517  0.00  0.00    +0.000 A 
ATOM     20  C   UNL     1       1.544   8.346  20.870  0.00  0.00    +0.000 A 
ATOM     21  O   UNL     1       0.505   9.269  22.859  0.00  0.00    +0.000 OA
ATOM     22  C   UNL     1      -0.693  10.069  22.879  0.00  0.00    +0.000 C 
ATOM     23  O   UNL     1      -0.873  10.833  21.667  0.00  0.00    +0.000 OA
ENDBRANCH  11  15
TORSDOF 1
ENDMDL
MODEL 5
REMARK VINA RESULT:      -7.6      1.699      7.756
REMARK  Name = 
REMARK  1 active torsions:
REMARK  status: ('A' for Active; 'I' for Inactive)
REMARK    1  A    between atoms: C_11  and  C_12
REMARK                            x       y       z     vdW  Elec       q    Type
REMARK                         _______ _______ _______ _____ _____    ______ ____
ROOT
ATOM      1  O   UNL     1       1.369   6.704  21.083  0.00  0.00    +0.000 OA
ATOM      2  C   UNL     1       1.780   7.414  20.177  0.00  0.00    +0.000 C 
ATOM      3  C   UNL     1       2.749   6.868  19.184  0.00  0.00    +0.000 A 
ATOM      4  C   UNL     1       3.420   5.677  19.483  0.00  0.00    +0.000 A 
ATOM      5  C   UNL     1       4.404   5.266  18.607  0.00  0.00    +0.000 A 
ATOM      6  C   UNL     1       4.699   5.973  17.465  0.00  0.00    +0.000 A 
ATOM      7  C   UNL     1       4.033   7.131  17.127  0.00  0.00    +0.000 A 
ATOM      8  C   UNL     1       3.041   7.601  18.003  0.00  0.00    +0.000 A 
ATOM      9  C   UNL     1       2.380   8.923  17.697  0.00  0.00    +0.000 C 
ATOM     10  C   UNL     1       1.140   9.178  18.551  0.00  0.00    +0.000 C 
ATOM     11  C   UNL     1       1.484   8.901  20.012  0.00  0.00    +0.000 C 
ATOM     12  O   UNL     1       5.719   5.415  16.761  0.00  0.00    +0.000 OA
ATOM     13  C   UNL     1       6.087   4.327  17.632  0.00  0.00    +0.000 C 
ATOM     14  O   UNL     1       5.201   4.177  18.762  0.00  0.00    +0.000 OA
ENDROOT
BRANCH  11  15
ATOM     15  C   UNL     1       0.489   9.519  20.970  0.00  0.00    +0.000 A 
ATOM     16  C   UNL     1       0.408   9.186  22.340  0.00  0.00    +0.000 A 
ATOM     17  C   UNL     1      -0.419   9.912  23.208  0.00  0.00    +0.000 A 
ATOM     18  C   UNL     1      -1.136  10.961  22.678  0.00  0.00    +0.000 A 
ATOM     19  C   UNL     1      -1.120  11.241  21.332  0.00  0.00    +0.000 A 
ATOM     20  C   UNL     1      -0.353  10.521  20.452  0.00  0.00    +0.000 A 
ATOM     21  O   UNL     1      -1.861  12.337  21.016  0.00  0.00    +0.000 OA
ATOM     22  C   UNL     1      -2.076  12.862  22.340  0.00  0.00    +0.000 C 
ATOM     23  O   UNL     1      -1.876  11.872  23.371  0.00  0.00    +0.000 OA
ENDBRANCH  11  15
TORSDOF 1
ENDMDL
MODEL 6
REMARK VINA RESULT:      -7.5      2.363      7.897
REMARK  Name = 
REMARK  1 active torsions:
REMARK  status: ('A' for Active; 'I' for Inactive)
REMARK    1  A    between atoms: C_11  and  C_12
REMARK                            x       y       z     vdW  Elec       q    Type
REMARK                         _______ _______ _______ _____ _____    ______ ____
ROOT
ATOM      1  O   UNL     1       2.431   9.132  17.346  0.00  0.00    +0.000 OA
ATOM      2  C   UNL     1       1.949   8.677  18.373  0.00  0.00    +0.000 C 
ATOM      3  C   UNL     1       2.314   7.303  18.824  0.00  0.00    +0.000 A 
ATOM      4  C   UNL     1       2.932   6.439  17.913  0.00  0.00    +0.000 A 
ATOM      5  C   UNL     1       3.140   5.136  18.316  0.00  0.00    +0.000 A 
ATOM      6  C   UNL     1       2.786   4.700  19.572  0.00  0.00    +0.000 A 
ATOM      7  C   UNL     1       2.205   5.536  20.501  0.00  0.00    +0.000 A 
ATOM      8  C   UNL     1       1.952   6.865  20.125  0.00  0.00    +0.000 A 
ATOM      9  C   UNL     1       1.219   7.759  21.096  0.00  0.00    +0.000 C 
ATOM     10  C   UNL     1       1.262   9.232  20.695  0.00  0.00    +0.000 C 
ATOM     11  C   UNL     1       0.876   9.351  19.223  0.00  0.00    +0.000 C 
ATOM     12  O   UNL     1       3.045   3.378  19.752  0.00  0.00    +0.000 OA
ATOM     13  C   UNL     1       3.522   3.014  18.442  0.00  0.00    +0.000 C 
ATOM     14  O   UNL     1       3.665   4.143  17.553  0.00  0.00    +0.000 OA
ENDROOT
BRANCH  11  15
ATOM     15  C   UNL     1       0.472  10.758  18.840  0.00  0.00    +0.000 A 
ATOM     16  C   UNL     1      -0.828  11.115  18.421  0.00  0.00    +0.000 A 
ATOM     17  C   UNL     1      -1.182  12.459  18.241  0.00  0.00    +0.000 A 
ATOM     18  C   UNL     1      -0.220  13.411  18.496  0.00  0.00    +0.000 A 
ATOM     19  C   UNL     1       1.068  13.067  18.829  0.00  0.00    +0.000 A 
ATOM     20  C   UNL     1       1.453  11.758  18.971  0.00  0.00    +0.000 A 
ATOM     21  O   UNL     1       1.852  14.150  19.079  0.00  0.00    +0.000 OA
ATOM     22  C   UNL     1       0.831  15.163  19.159  0.00  0.00    +0.000 C 
ATOM     23  O   UNL     1      -0.402  14.762  18.523  0.00  0.00    +0.000 OA
ENDBRANCH  11  15
TORSDOF 1
ENDMDL
MODEL 7
REMARK VINA RESULT:      -7.5      1.619      2.516
REMARK  Name = 
REMARK  1 active torsions:
REMARK  status: ('A' for Active; 'I' for Inactive)
REMARK    1  A    between atoms: C_11  and  C_12
REMARK                            x       y       z     vdW  Elec       q    Type
REMARK                         _______ _______ _______ _____ _____    ______ ____
ROOT
ATOM      1  O   UNL     1       2.159   8.349  17.475  0.00  0.00    +0.000 OA
ATOM      2  C   UNL     1       1.954   8.407  18.679  0.00  0.00    +0.000 C 
ATOM      3  C   UNL     1       1.362   9.639  19.275  0.00  0.00    +0.000 A 
ATOM      4  C   UNL     1       1.356  10.816  18.518  0.00  0.00    +0.000 A 
ATOM      5  C   UNL     1       0.922  11.969  19.141  0.00  0.00    +0.000 A 
ATOM      6  C   UNL     1       0.481  11.966  20.444  0.00  0.00    +0.000 A 
ATOM      7  C   UNL     1       0.444  10.817  21.203  0.00  0.00    +0.000 A 
ATOM      8  C   UNL     1       0.901   9.624  20.618  0.00  0.00    +0.000 A 
ATOM      9  C   UNL     1       0.966   8.383  21.474  0.00  0.00    +0.000 C 
ATOM     10  C   UNL     1       1.199   7.112  20.659  0.00  0.00    +0.000 C 
ATOM     11  C   UNL     1       2.362   7.350  19.700  0.00  0.00    +0.000 C 
ATOM     12  O   UNL     1       0.131  13.207  20.873  0.00  0.00    +0.000 OA
ATOM     13  C   UNL     1       0.483  14.001  19.723  0.00  0.00    +0.000 C 
ATOM     14  O   UNL     1       0.904  13.210  18.591  0.00  0.00    +0.000 OA
ENDROOT
BRANCH  11  15
ATOM     15  C   UNL     1       2.948   6.061  19.166  0.00  0.00    +0.000 A 
ATOM     16  C   UNL     1       4.260   5.620  19.446  0.00  0.00    +0.000 A 
ATOM     17  C   UNL     1       4.686   4.342  19.061  0.00  0.00    +0.000 A 
ATOM     18  C   UNL     1       3.778   3.535  18.412  0.00  0.00    +0.000 A 
ATOM     19  C   UNL     1       2.526   3.987  18.069  0.00  0.00    +0.000 A 
ATOM     20  C   UNL     1       2.097   5.248  18.396  0.00  0.00    +0.000 A 
ATOM     21  O   UNL     1       1.769   3.028  17.471  0.00  0.00    +0.000 OA
ATOM     22  C   UNL     1       2.581   1.875  17.762  0.00  0.00    +0.000 C 
ATOM     23  O   UNL     1       3.945   2.222  18.088  0.00  0.00    +0.000 OA
ENDBRANCH  11  15
TORSDOF 1
ENDMDL
MODEL 8
REMARK VINA RESULT:      -7.4      1.856      8.054
REMARK  Name = 
REMARK  1 active torsions:
REMARK  status: ('A' for Active; 'I' for Inactive)
REMARK    1  A    between atoms: C_11  and  C_12
REMARK                            x       y       z     vdW  Elec       q    Type
REMARK                         _______ _______ _______ _____ _____    ______ ____
ROOT
ATOM      1  O   UNL     1       2.482   9.600  17.723  0.00  0.00    +0.000 OA
ATOM      2  C   UNL     1       2.165   8.697  18.484  0.00  0.00    +0.000 C 
ATOM      3  C   UNL     1       2.868   7.383  18.413  0.00  0.00    +0.000 A 
ATOM      4  C   UNL     1       3.638   7.092  17.281  0.00  0.00    +0.000 A 
ATOM      5  C   UNL     1       4.169   5.822  17.185  0.00  0.00    +0.000 A 
ATOM      6  C   UNL     1       3.982   4.882  18.171  0.00  0.00    +0.000 A 
ATOM      7  C   UNL     1       3.257   5.150  19.312  0.00  0.00    +0.000 A 
ATOM      8  C   UNL     1       2.676   6.422  19.441  0.00  0.00    +0.000 A 
ATOM      9  C   UNL     1       1.791   6.691  20.633  0.00  0.00    +0.000 C 
ATOM     10  C   UNL     1       1.462   8.172  20.807  0.00  0.00    +0.000 C 
ATOM     11  C   UNL     1       0.998   8.732  19.465  0.00  0.00    +0.000 C 
ATOM     12  O   UNL     1       4.559   3.690  17.864  0.00  0.00    +0.000 OA
ATOM     13  C   UNL     1       5.055   3.962  16.539  0.00  0.00    +0.000 C 
ATOM     14  O   UNL     1       4.886   5.339  16.137  0.00  0.00    +0.000 OA
ENDROOT
BRANCH  11  15
ATOM     15  C   UNL     1       0.253  10.041  19.608  0.00  0.00    +0.000 A 
ATOM     16  C   UNL     1      -0.896  10.375  18.858  0.00  0.00    +0.000 A 
ATOM     17  C   UNL     1      -1.636  11.528  19.154  0.00  0.00    +0.000 A 
ATOM     18  C   UNL     1      -1.208  12.311  20.203  0.00  0.00    +0.000 A 
ATOM     19  C   UNL     1      -0.048  12.032  20.885  0.00  0.00    +0.000 A 
ATOM     20  C   UNL     1       0.720  10.934  20.590  0.00  0.00    +0.000 A 
ATOM     21  O   UNL     1       0.180  12.898  21.908  0.00  0.00    +0.000 OA
ATOM     22  C   UNL     1      -1.109  13.539  21.961  0.00  0.00    +0.000 C 
ATOM     23  O   UNL     1      -1.861  13.380  20.738  0.00  0.00    +0.000 OA
ENDBRANCH  11  15
TORSDOF 1
ENDMDL
MODEL 9
REMARK VINA RESULT:      -7.3      1.508      2.330
REMARK  Name = 
REMARK  1 active torsions:
REMARK  status: ('A' for Active; 'I' for Inactive)
REMARK    1  A    between atoms: C_11  and  C_12
REMARK                            x       y       z     vdW  Elec       q    Type
REMARK                         _______ _______ _______ _____ _____    ______ ____
ROOT
ATOM      1  O   UNL     1       1.293   9.100  17.323  0.00  0.00    +0.000 OA
ATOM      2  C   UNL     1       1.406   9.010  18.537  0.00  0.00    +0.000 C 
ATOM      3  C   UNL     1       0.815  10.056  19.420  0.00  0.00    +0.000 A 
ATOM      4  C   UNL     1       0.434  11.278  18.853  0.00  0.00    +0.000 A 
ATOM      5  C   UNL     1       0.013  12.272  19.713  0.00  0.00    +0.000 A 
ATOM      6  C   UNL     1      -0.064  12.070  21.072  0.00  0.00    +0.000 A 
ATOM      7  C   UNL     1       0.273  10.868  21.655  0.00  0.00    +0.000 A 
ATOM      8  C   UNL     1       0.731   9.835  20.820  0.00  0.00    +0.000 A 
ATOM      9  C   UNL     1       1.204   8.552  21.458  0.00  0.00    +0.000 C 
ATOM     10  C   UNL     1       1.401   7.424  20.448  0.00  0.00    +0.000 C 
ATOM     11  C   UNL     1       2.221   7.954  19.275  0.00  0.00    +0.000 C 
ATOM     12  O   UNL     1      -0.469  13.184  21.736  0.00  0.00    +0.000 OA
ATOM     13  C   UNL     1      -0.555  14.131  20.653  0.00  0.00    +0.000 C 
ATOM     14  O   UNL     1      -0.334  13.536  19.357  0.00  0.00    +0.000 OA
ENDROOT
BRANCH  11  15
ATOM     15  C   UNL     1       2.831   6.845  18.445  0.00  0.00    +0.000 A 
ATOM     16  C   UNL     1       3.959   7.017  17.612  0.00  0.00    +0.000 A 
ATOM     17  C   UNL     1       4.575   5.917  17.000  0.00  0.00    +0.000 A 
ATOM     18  C   UNL     1       4.048   4.669  17.250  0.00  0.00    +0.000 A 
ATOM     19  C   UNL     1       2.906   4.504  17.997  0.00  0.00    +0.000 A 
ATOM     20  C   UNL     1       2.257   5.566  18.572  0.00  0.00    +0.000 A 
ATOM     21  O   UNL     1       2.571   3.196  18.160  0.00  0.00    +0.000 OA
ATOM     22  C   UNL     1       3.790   2.585  17.694  0.00  0.00    +0.000 C 
ATOM     23  O   UNL     1       4.581   3.473  16.875  0.00  0.00    +0.000 OA
ENDBRANCH  11  15
TORSDOF 1
ENDMDL
