MODEL 1
REMARK VINA RESULT:      -8.2      0.000      0.000
REMARK  Name = 
REMARK  7 active torsions:
REMARK  status: ('A' for Active; 'I' for Inactive)
REMARK    1  A    between atoms: C_1  and  C_2
REMARK    2  A    between atoms: C_2  and  C_18
REMARK    3  A    between atoms: N_3  and  N_4
REMARK    4  A    between atoms: C_5  and  C_7
REMARK    5  A    between atoms: C_7  and  N_8
REMARK    6  A    between atoms: N_8  and  S_9
REMARK    7  A    between atoms: S_9  and  C_12
REMARK                            x       y       z     vdW  Elec       q    Type
REMARK                         _______ _______ _______ _____ _____    ______ ____
ROOT
ATOM      1  N   UNL     1       4.937   3.137  18.899  0.00  0.00    +0.000 N 
ATOM      2  C   UNL     1       4.611   2.174  19.852  0.00  0.00    +0.000 C 
ATOM      3  O   UNL     1       5.021   2.154  21.011  0.00  0.00    +0.000 OA
ATOM      4  H   UNL     1       4.569   3.095  17.956  0.00  0.00    +0.000 HD
ENDROOT
BRANCH   1   7
ATOM      5  C   UNL     1       7.449   5.808  18.842  0.00  0.00    +0.000 C 
ATOM      6  C   UNL     1       6.473   4.766  18.323  0.00  0.00    +0.000 C 
ATOM      7  N   UNL     1       5.747   4.175  19.230  0.00  0.00    +0.000 NA
BRANCH   6   8
ATOM      8  C   UNL     1       6.402   4.592  16.831  0.00  0.00    +0.000 A 
ATOM      9  C   UNL     1       5.290   3.975  16.238  0.00  0.00    +0.000 A 
ATOM     10  C   UNL     1       5.249   3.756  14.855  0.00  0.00    +0.000 A 
ATOM     11  C   UNL     1       6.309   4.171  14.056  0.00  0.00    +0.000 A 
ATOM     12 BR   UNL     1       6.254   3.876  12.190  0.00  0.00    +0.000 Br
ATOM     13  C   UNL     1       7.421   4.781  14.626  0.00  0.00    +0.000 A 
ATOM     14  C   UNL     1       7.477   4.963  16.011  0.00  0.00    +0.000 A 
ENDBRANCH   6   8
ENDBRANCH   1   7
BRANCH   2  15
ATOM     15  C   UNL     1       3.605   1.157  19.326  0.00  0.00    +0.000 C 
BRANCH  15  16
ATOM     16  N   UNL     1       2.560   1.787  18.526  0.00  0.00    +0.000 NA
ATOM     17  H   UNL     1       2.325   1.390  17.614  0.00  0.00    +0.000 HD
BRANCH  16  18
ATOM     18  S   UNL     1       1.309   2.569  19.308  0.00  0.00    +0.000 S 
ATOM     19  O   UNL     1       0.122   2.378  18.505  0.00  0.00    +0.000 OA
ATOM     20  O   UNL     1       1.357   2.173  20.698  0.00  0.00    +0.000 OA
BRANCH  18  21
ATOM     21  C   UNL     1       1.781   4.274  19.180  0.00  0.00    +0.000 A 
ATOM     22  C   UNL     1       1.816   5.063  20.335  0.00  0.00    +0.000 A 
ATOM     23  C   UNL     1       2.161   6.410  20.234  0.00  0.00    +0.000 A 
ATOM     24  C   UNL     1       2.480   6.960  18.991  0.00  0.00    +0.000 A 
ATOM     25  C   UNL     1       2.472   6.162  17.846  0.00  0.00    +0.000 A 
ATOM     26  C   UNL     1       2.128   4.813  17.937  0.00  0.00    +0.000 A 
ENDBRANCH  18  21
ENDBRANCH  16  18
ENDBRANCH  15  16
ENDBRANCH   2  15
TORSDOF 6
ENDMDL
MODEL 2
REMARK VINA RESULT:      -8.0      0.072      1.398
REMARK  Name = 
REMARK  7 active torsions:
REMARK  status: ('A' for Active; 'I' for Inactive)
REMARK    1  A    between atoms: C_1  and  C_2
REMARK    2  A    between atoms: C_2  and  C_18
REMARK    3  A    between atoms: N_3  and  N_4
REMARK    4  A    between atoms: C_5  and  C_7
REMARK    5  A    between atoms: C_7  and  N_8
REMARK    6  A    between atoms: N_8  and  S_9
REMARK    7  A    between atoms: S_9  and  C_12
REMARK                            x       y       z     vdW  Elec       q    Type
REMARK                         _______ _______ _______ _____ _____    ______ ____
ROOT
ATOM      1  N   UNL     1       4.863   3.180  18.944  0.00  0.00    +0.000 N 
ATOM      2  C   UNL     1       4.625   2.169  19.874  0.00  0.00    +0.000 C 
ATOM      3  O   UNL     1       5.113   2.113  21.002  0.00  0.00    +0.000 OA
ATOM      4  H   UNL     1       4.433   3.166  18.026  0.00  0.00    +0.000 HD
ENDROOT
BRANCH   1   7
ATOM      5  C   UNL     1       7.397   5.830  18.880  0.00  0.00    +0.000 C 
ATOM      6  C   UNL     1       6.434   4.773  18.365  0.00  0.00    +0.000 C 
ATOM      7  N   UNL     1       5.667   4.226  19.265  0.00  0.00    +0.000 NA
BRANCH   6   8
ATOM      8  C   UNL     1       6.423   4.538  16.880  0.00  0.00    +0.000 A 
ATOM      9  C   UNL     1       7.480   4.996  16.079  0.00  0.00    +0.000 A 
ATOM     10  C   UNL     1       7.445   4.833  14.688  0.00  0.00    +0.000 A 
ATOM     11  C   UNL     1       6.361   4.193  14.093  0.00  0.00    +0.000 A 
ATOM     12 BR   UNL     1       6.312   3.973  12.217  0.00  0.00    +0.000 Br
ATOM     13  C   UNL     1       5.303   3.736  14.871  0.00  0.00    +0.000 A 
ATOM     14  C   UNL     1       5.323   3.934  16.254  0.00  0.00    +0.000 A 
ENDBRANCH   6   8
ENDBRANCH   1   7
BRANCH   2  15
ATOM     15  C   UNL     1       3.612   1.148  19.373  0.00  0.00    +0.000 C 
BRANCH  15  16
ATOM     16  N   UNL     1       2.584   1.763  18.539  0.00  0.00    +0.000 NA
ATOM     17  H   UNL     1       2.379   1.358  17.623  0.00  0.00    +0.000 HD
BRANCH  16  18
ATOM     18  S   UNL     1       1.304   2.538  19.281  0.00  0.00    +0.000 S 
ATOM     19  O   UNL     1       0.144   2.335  18.443  0.00  0.00    +0.000 OA
ATOM     20  O   UNL     1       1.314   2.147  20.673  0.00  0.00    +0.000 OA
BRANCH  18  21
ATOM     21  C   UNL     1       1.766   4.246  19.161  0.00  0.00    +0.000 A 
ATOM     22  C   UNL     1       2.038   4.795  17.904  0.00  0.00    +0.000 A 
ATOM     23  C   UNL     1       2.426   6.131  17.809  0.00  0.00    +0.000 A 
ATOM     24  C   UNL     1       2.531   6.914  18.960  0.00  0.00    +0.000 A 
ATOM     25  C   UNL     1       2.230   6.369  20.210  0.00  0.00    +0.000 A 
ATOM     26  C   UNL     1       1.841   5.033  20.315  0.00  0.00    +0.000 A 
ENDBRANCH  18  21
ENDBRANCH  16  18
ENDBRANCH  15  16
ENDBRANCH   2  15
TORSDOF 6
ENDMDL
MODEL 3
REMARK VINA RESULT:      -7.7      3.430      6.553
REMARK  Name = 
REMARK  7 active torsions:
REMARK  status: ('A' for Active; 'I' for Inactive)
REMARK    1  A    between atoms: C_1  and  C_2
REMARK    2  A    between atoms: C_2  and  C_18
REMARK    3  A    between atoms: N_3  and  N_4
REMARK    4  A    between atoms: C_5  and  C_7
REMARK    5  A    between atoms: C_7  and  N_8
REMARK    6  A    between atoms: N_8  and  S_9
REMARK    7  A    between atoms: S_9  and  C_12
REMARK                            x       y       z     vdW  Elec       q    Type
REMARK                         _______ _______ _______ _____ _____    ______ ____
ROOT
ATOM      1  N   UNL     1       4.456   3.667  19.806  0.00  0.00    +0.000 N 
ATOM      2  C   UNL     1       4.971   3.641  18.512  0.00  0.00    +0.000 C 
ATOM      3  O   UNL     1       4.394   3.185  17.526  0.00  0.00    +0.000 OA
ATOM      4  H   UNL     1       4.985   4.054  20.580  0.00  0.00    +0.000 HD
ENDROOT
BRANCH   1   7
ATOM      5  C   UNL     1       0.868   3.366  20.506  0.00  0.00    +0.000 C 
ATOM      6  C   UNL     1       2.182   3.992  20.068  0.00  0.00    +0.000 C 
ATOM      7  N   UNL     1       3.208   3.190  20.053  0.00  0.00    +0.000 NA
BRANCH   6   8
ATOM      8  C   UNL     1       2.131   5.431  19.634  0.00  0.00    +0.000 A 
ATOM      9  C   UNL     1       1.874   6.447  20.566  0.00  0.00    +0.000 A 
ATOM     10  C   UNL     1       1.766   7.782  20.156  0.00  0.00    +0.000 A 
ATOM     11  C   UNL     1       1.934   8.110  18.814  0.00  0.00    +0.000 A 
ATOM     12 BR   UNL     1       1.789   9.910  18.259  0.00  0.00    +0.000 Br
ATOM     13  C   UNL     1       2.186   7.115  17.875  0.00  0.00    +0.000 A 
ATOM     14  C   UNL     1       2.255   5.780  18.282  0.00  0.00    +0.000 A 
ENDBRANCH   6   8
ENDBRANCH   1   7
BRANCH   2  15
ATOM     15  C   UNL     1       6.331   4.322  18.417  0.00  0.00    +0.000 C 
BRANCH  15  16
ATOM     16  N   UNL     1       6.859   4.298  17.057  0.00  0.00    +0.000 NA
ATOM     17  H   UNL     1       6.943   3.403  16.572  0.00  0.00    +0.000 HD
BRANCH  16  18
ATOM     18  S   UNL     1       6.602   5.623  16.072  0.00  0.00    +0.000 S 
ATOM     19  O   UNL     1       5.257   6.086  16.328  0.00  0.00    +0.000 OA
ATOM     20  O   UNL     1       7.746   6.495  16.219  0.00  0.00    +0.000 OA
BRANCH  18  21
ATOM     21  C   UNL     1       6.630   4.908  14.449  0.00  0.00    +0.000 A 
ATOM     22  C   UNL     1       5.643   3.984  14.092  0.00  0.00    +0.000 A 
ATOM     23  C   UNL     1       5.677   3.401  12.825  0.00  0.00    +0.000 A 
ATOM     24  C   UNL     1       6.683   3.747  11.921  0.00  0.00    +0.000 A 
ATOM     25  C   UNL     1       7.649   4.693  12.272  0.00  0.00    +0.000 A 
ATOM     26  C   UNL     1       7.623   5.282  13.537  0.00  0.00    +0.000 A 
ENDBRANCH  18  21
ENDBRANCH  16  18
ENDBRANCH  15  16
ENDBRANCH   2  15
TORSDOF 6
ENDMDL
MODEL 4
REMARK VINA RESULT:      -7.7      3.846      7.057
REMARK  Name = 
REMARK  7 active torsions:
REMARK  status: ('A' for Active; 'I' for Inactive)
REMARK    1  A    between atoms: C_1  and  C_2
REMARK    2  A    between atoms: C_2  and  C_18
REMARK    3  A    between atoms: N_3  and  N_4
REMARK    4  A    between atoms: C_5  and  C_7
REMARK    5  A    between atoms: C_7  and  N_8
REMARK    6  A    between atoms: N_8  and  S_9
REMARK    7  A    between atoms: S_9  and  C_12
REMARK                            x       y       z     vdW  Elec       q    Type
REMARK                         _______ _______ _______ _____ _____    ______ ____
ROOT
ATOM      1  N   UNL     1       4.647   5.799  18.533  0.00  0.00    +0.000 N 
ATOM      2  C   UNL     1       6.002   5.901  18.843  0.00  0.00    +0.000 C 
ATOM      3  O   UNL     1       6.541   5.422  19.840  0.00  0.00    +0.000 OA
ATOM      4  H   UNL     1       4.262   6.222  17.696  0.00  0.00    +0.000 HD
ENDROOT
BRANCH   1   7
ATOM      5  C   UNL     1       2.044   4.846  20.933  0.00  0.00    +0.000 C 
ATOM      6  C   UNL     1       2.809   5.693  19.931  0.00  0.00    +0.000 C 
ATOM      7  N   UNL     1       3.813   5.102  19.347  0.00  0.00    +0.000 NA
BRANCH   6   8
ATOM      8  C   UNL     1       2.280   7.077  19.675  0.00  0.00    +0.000 A 
ATOM      9  C   UNL     1       1.625   7.788  20.691  0.00  0.00    +0.000 A 
ATOM     10  C   UNL     1       1.077   9.052  20.439  0.00  0.00    +0.000 A 
ATOM     11  C   UNL     1       1.198   9.620  19.174  0.00  0.00    +0.000 A 
ATOM     12 BR   UNL     1       0.460  11.326  18.833  0.00  0.00    +0.000 Br
ATOM     13  C   UNL     1       1.841   8.928  18.153  0.00  0.00    +0.000 A 
ATOM     14  C   UNL     1       2.353   7.651  18.397  0.00  0.00    +0.000 A 
ENDBRANCH   6   8
ENDBRANCH   1   7
BRANCH   2  15
ATOM     15  C   UNL     1       6.792   6.621  17.757  0.00  0.00    +0.000 C 
BRANCH  15  16
ATOM     16  N   UNL     1       6.472   6.117  16.425  0.00  0.00    +0.000 NA
ATOM     17  H   UNL     1       6.567   6.741  15.622  0.00  0.00    +0.000 HD
BRANCH  16  18
ATOM     18  S   UNL     1       6.705   4.495  16.102  0.00  0.00    +0.000 S 
ATOM     19  O   UNL     1       7.979   4.128  16.679  0.00  0.00    +0.000 OA
ATOM     20  O   UNL     1       5.484   3.807  16.456  0.00  0.00    +0.000 OA
BRANCH  18  21
ATOM     21  C   UNL     1       6.884   4.476  14.337  0.00  0.00    +0.000 A 
ATOM     22  C   UNL     1       6.126   3.575  13.583  0.00  0.00    +0.000 A 
ATOM     23  C   UNL     1       6.283   3.540  12.197  0.00  0.00    +0.000 A 
ATOM     24  C   UNL     1       7.182   4.406  11.572  0.00  0.00    +0.000 A 
ATOM     25  C   UNL     1       7.914   5.324  12.327  0.00  0.00    +0.000 A 
ATOM     26  C   UNL     1       7.764   5.367  13.714  0.00  0.00    +0.000 A 
ENDBRANCH  18  21
ENDBRANCH  16  18
ENDBRANCH  15  16
ENDBRANCH   2  15
TORSDOF 6
ENDMDL
MODEL 5
REMARK VINA RESULT:      -7.7      0.733      1.320
REMARK  Name = 
REMARK  7 active torsions:
REMARK  status: ('A' for Active; 'I' for Inactive)
REMARK    1  A    between atoms: C_1  and  C_2
REMARK    2  A    between atoms: C_2  and  C_18
REMARK    3  A    between atoms: N_3  and  N_4
REMARK    4  A    between atoms: C_5  and  C_7
REMARK    5  A    between atoms: C_7  and  N_8
REMARK    6  A    between atoms: N_8  and  S_9
REMARK    7  A    between atoms: S_9  and  C_12
REMARK                            x       y       z     vdW  Elec       q    Type
REMARK                         _______ _______ _______ _____ _____    ______ ____
ROOT
ATOM      1  N   UNL     1       4.967   3.136  18.655  0.00  0.00    +0.000 N 
ATOM      2  C   UNL     1       4.502   2.297  19.666  0.00  0.00    +0.000 C 
ATOM      3  O   UNL     1       4.729   2.438  20.867  0.00  0.00    +0.000 OA
ATOM      4  H   UNL     1       4.749   2.962  17.680  0.00  0.00    +0.000 HD
ENDROOT
BRANCH   1   7
ATOM      5  C   UNL     1       7.326   5.942  18.551  0.00  0.00    +0.000 C 
ATOM      6  C   UNL     1       6.418   4.831  18.051  0.00  0.00    +0.000 C 
ATOM      7  N   UNL     1       5.712   4.228  18.965  0.00  0.00    +0.000 NA
BRANCH   6   8
ATOM      8  C   UNL     1       6.382   4.608  16.564  0.00  0.00    +0.000 A 
ATOM      9  C   UNL     1       5.261   4.018  15.960  0.00  0.00    +0.000 A 
ATOM     10  C   UNL     1       5.248   3.753  14.584  0.00  0.00    +0.000 A 
ATOM     11  C   UNL     1       6.348   4.094  13.803  0.00  0.00    +0.000 A 
ATOM     12 BR   UNL     1       6.331   3.737  11.947  0.00  0.00    +0.000 Br
ATOM     13  C   UNL     1       7.469   4.676  14.385  0.00  0.00    +0.000 A 
ATOM     14  C   UNL     1       7.495   4.904  15.764  0.00  0.00    +0.000 A 
ENDBRANCH   6   8
ENDBRANCH   1   7
BRANCH   2  15
ATOM     15  C   UNL     1       3.593   1.196  19.132  0.00  0.00    +0.000 C 
BRANCH  15  16
ATOM     16  N   UNL     1       2.182   1.510  19.331  0.00  0.00    +0.000 NA
ATOM     17  H   UNL     1       1.805   1.520  20.281  0.00  0.00    +0.000 HD
BRANCH  16  18
ATOM     18  S   UNL     1       1.426   2.534  18.251  0.00  0.00    +0.000 S 
ATOM     19  O   UNL     1       2.152   2.445  17.004  0.00  0.00    +0.000 OA
ATOM     20  O   UNL     1       0.007   2.263  18.324  0.00  0.00    +0.000 OA
BRANCH  18  21
ATOM     21  C   UNL     1       1.742   4.133  18.949  0.00  0.00    +0.000 A 
ATOM     22  C   UNL     1       2.335   5.121  18.157  0.00  0.00    +0.000 A 
ATOM     23  C   UNL     1       2.608   6.371  18.711  0.00  0.00    +0.000 A 
ATOM     24  C   UNL     1       2.281   6.634  20.042  0.00  0.00    +0.000 A 
ATOM     25  C   UNL     1       1.662   5.654  20.821  0.00  0.00    +0.000 A 
ATOM     26  C   UNL     1       1.385   4.400  20.275  0.00  0.00    +0.000 A 
ENDBRANCH  18  21
ENDBRANCH  16  18
ENDBRANCH  15  16
ENDBRANCH   2  15
TORSDOF 6
ENDMDL
MODEL 6
REMARK VINA RESULT:      -7.5      3.691      6.826
REMARK  Name = 
REMARK  7 active torsions:
REMARK  status: ('A' for Active; 'I' for Inactive)
REMARK    1  A    between atoms: C_1  and  C_2
REMARK    2  A    between atoms: C_2  and  C_18
REMARK    3  A    between atoms: N_3  and  N_4
REMARK    4  A    between atoms: C_5  and  C_7
REMARK    5  A    between atoms: C_7  and  N_8
REMARK    6  A    between atoms: N_8  and  S_9
REMARK    7  A    between atoms: S_9  and  C_12
REMARK                            x       y       z     vdW  Elec       q    Type
REMARK                         _______ _______ _______ _____ _____    ______ ____
ROOT
ATOM      1  N   UNL     1       4.918   5.629  18.791  0.00  0.00    +0.000 N 
ATOM      2  C   UNL     1       6.293   5.582  19.009  0.00  0.00    +0.000 C 
ATOM      3  O   UNL     1       6.849   4.949  19.905  0.00  0.00    +0.000 OA
ATOM      4  H   UNL     1       4.519   6.175  18.036  0.00  0.00    +0.000 HD
ENDROOT
BRANCH   1   7
ATOM      5  C   UNL     1       2.216   4.611  21.053  0.00  0.00    +0.000 C 
ATOM      6  C   UNL     1       2.991   5.458  20.057  0.00  0.00    +0.000 C 
ATOM      7  N   UNL     1       4.077   4.915  19.584  0.00  0.00    +0.000 NA
BRANCH   6   8
ATOM      8  C   UNL     1       2.382   6.779  19.678  0.00  0.00    +0.000 A 
ATOM      9  C   UNL     1       2.483   7.259  18.363  0.00  0.00    +0.000 A 
ATOM     10  C   UNL     1       1.970   8.516  18.020  0.00  0.00    +0.000 A 
ATOM     11  C   UNL     1       1.336   9.292  18.985  0.00  0.00    +0.000 A 
ATOM     12 BR   UNL     1       0.644  10.989  18.523  0.00  0.00    +0.000 Br
ATOM     13  C   UNL     1       1.229   8.835  20.294  0.00  0.00    +0.000 A 
ATOM     14  C   UNL     1       1.776   7.597  20.643  0.00  0.00    +0.000 A 
ENDBRANCH   6   8
ENDBRANCH   1   7
BRANCH   2  15
ATOM     15  C   UNL     1       7.074   6.353  17.951  0.00  0.00    +0.000 C 
BRANCH  15  16
ATOM     16  N   UNL     1       7.208   5.594  16.712  0.00  0.00    +0.000 NA
ATOM     17  H   UNL     1       8.043   5.023  16.567  0.00  0.00    +0.000 HD
BRANCH  16  18
ATOM     18  S   UNL     1       5.826   5.045  15.951  0.00  0.00    +0.000 S 
ATOM     19  O   UNL     1       5.481   3.780  16.561  0.00  0.00    +0.000 OA
ATOM     20  O   UNL     1       4.892   6.148  15.909  0.00  0.00    +0.000 OA
BRANCH  18  21
ATOM     21  C   UNL     1       6.398   4.714  14.305  0.00  0.00    +0.000 A 
ATOM     22  C   UNL     1       5.716   3.781  13.519  0.00  0.00    +0.000 A 
ATOM     23  C   UNL     1       6.179   3.499  12.233  0.00  0.00    +0.000 A 
ATOM     24  C   UNL     1       7.307   4.155  11.736  0.00  0.00    +0.000 A 
ATOM     25  C   UNL     1       7.966   5.108  12.514  0.00  0.00    +0.000 A 
ATOM     26  C   UNL     1       7.511   5.396  13.801  0.00  0.00    +0.000 A 
ENDBRANCH  18  21
ENDBRANCH  16  18
ENDBRANCH  15  16
ENDBRANCH   2  15
TORSDOF 6
ENDMDL
MODEL 7
REMARK VINA RESULT:      -7.3      3.598      6.792
REMARK  Name = 
REMARK  7 active torsions:
REMARK  status: ('A' for Active; 'I' for Inactive)
REMARK    1  A    between atoms: C_1  and  C_2
REMARK    2  A    between atoms: C_2  and  C_18
REMARK    3  A    between atoms: N_3  and  N_4
REMARK    4  A    between atoms: C_5  and  C_7
REMARK    5  A    between atoms: C_7  and  N_8
REMARK    6  A    between atoms: N_8  and  S_9
REMARK    7  A    between atoms: S_9  and  C_12
REMARK                            x       y       z     vdW  Elec       q    Type
REMARK                         _______ _______ _______ _____ _____    ______ ____
ROOT
ATOM      1  N   UNL     1       4.261   4.063  17.973  0.00  0.00    +0.000 N 
ATOM      2  C   UNL     1       5.281   3.796  18.884  0.00  0.00    +0.000 C 
ATOM      3  O   UNL     1       5.210   2.997  19.817  0.00  0.00    +0.000 OA
ATOM      4  H   UNL     1       4.381   4.739  17.227  0.00  0.00    +0.000 HD
ENDROOT
BRANCH   1   7
ATOM      5  C   UNL     1       0.871   2.992  18.872  0.00  0.00    +0.000 C 
ATOM      6  C   UNL     1       2.081   3.899  18.724  0.00  0.00    +0.000 C 
ATOM      7  N   UNL     1       3.081   3.397  18.057  0.00  0.00    +0.000 NA
BRANCH   6   8
ATOM      8  C   UNL     1       1.958   5.286  19.292  0.00  0.00    +0.000 A 
ATOM      9  C   UNL     1       1.455   5.483  20.587  0.00  0.00    +0.000 A 
ATOM     10  C   UNL     1       1.281   6.776  21.096  0.00  0.00    +0.000 A 
ATOM     11  C   UNL     1       1.628   7.879  20.321  0.00  0.00    +0.000 A 
ATOM     12 BR   UNL     1       1.395   9.623  21.008  0.00  0.00    +0.000 Br
ATOM     13  C   UNL     1       2.125   7.703  19.034  0.00  0.00    +0.000 A 
ATOM     14  C   UNL     1       2.261   6.413  18.514  0.00  0.00    +0.000 A 
ENDBRANCH   6   8
ENDBRANCH   1   7
BRANCH   2  15
ATOM     15  C   UNL     1       6.561   4.556  18.560  0.00  0.00    +0.000 C 
BRANCH  15  16
ATOM     16  N   UNL     1       6.924   4.438  17.151  0.00  0.00    +0.000 NA
ATOM     17  H   UNL     1       6.895   3.518  16.707  0.00  0.00    +0.000 HD
BRANCH  16  18
ATOM     18  S   UNL     1       6.637   5.732  16.135  0.00  0.00    +0.000 S 
ATOM     19  O   UNL     1       5.281   6.171  16.382  0.00  0.00    +0.000 OA
ATOM     20  O   UNL     1       7.761   6.633  16.259  0.00  0.00    +0.000 OA
BRANCH  18  21
ATOM     21  C   UNL     1       6.678   4.978  14.530  0.00  0.00    +0.000 A 
ATOM     22  C   UNL     1       7.649   5.384  13.609  0.00  0.00    +0.000 A 
ATOM     23  C   UNL     1       7.668   4.811  12.337  0.00  0.00    +0.000 A 
ATOM     24  C   UNL     1       6.732   3.834  11.995  0.00  0.00    +0.000 A 
ATOM     25  C   UNL     1       5.784   3.411  12.928  0.00  0.00    +0.000 A 
ATOM     26  C   UNL     1       5.757   3.978  14.203  0.00  0.00    +0.000 A 
ENDBRANCH  18  21
ENDBRANCH  16  18
ENDBRANCH  15  16
ENDBRANCH   2  15
TORSDOF 6
ENDMDL
MODEL 8
REMARK VINA RESULT:      -7.1      3.506      6.684
REMARK  Name = 
REMARK  7 active torsions:
REMARK  status: ('A' for Active; 'I' for Inactive)
REMARK    1  A    between atoms: C_1  and  C_2
REMARK    2  A    between atoms: C_2  and  C_18
REMARK    3  A    between atoms: N_3  and  N_4
REMARK    4  A    between atoms: C_5  and  C_7
REMARK    5  A    between atoms: C_7  and  N_8
REMARK    6  A    between atoms: N_8  and  S_9
REMARK    7  A    between atoms: S_9  and  C_12
REMARK                            x       y       z     vdW  Elec       q    Type
REMARK                         _______ _______ _______ _____ _____    ______ ____
ROOT
ATOM      1  N   UNL     1       4.280   4.784  19.391  0.00  0.00    +0.000 N 
ATOM      2  C   UNL     1       5.387   3.954  19.227  0.00  0.00    +0.000 C 
ATOM      3  O   UNL     1       5.400   2.740  19.422  0.00  0.00    +0.000 OA
ATOM      4  H   UNL     1       4.335   5.781  19.219  0.00  0.00    +0.000 HD
ENDROOT
BRANCH   1   7
ATOM      5  C   UNL     1       0.815   4.347  20.510  0.00  0.00    +0.000 C 
ATOM      6  C   UNL     1       2.048   5.029  19.941  0.00  0.00    +0.000 C 
ATOM      7  N   UNL     1       3.085   4.260  19.768  0.00  0.00    +0.000 NA
BRANCH   6   8
ATOM      8  C   UNL     1       1.907   6.481  19.575  0.00  0.00    +0.000 A 
ATOM      9  C   UNL     1       2.211   6.920  18.278  0.00  0.00    +0.000 A 
ATOM     10  C   UNL     1       2.140   8.280  17.950  0.00  0.00    +0.000 A 
ATOM     11  C   UNL     1       1.746   9.205  18.912  0.00  0.00    +0.000 A 
ATOM     12 BR   UNL     1       1.650  11.040  18.470  0.00  0.00    +0.000 Br
ATOM     13  C   UNL     1       1.445   8.788  20.204  0.00  0.00    +0.000 A 
ATOM     14  C   UNL     1       1.554   7.435  20.539  0.00  0.00    +0.000 A 
ENDBRANCH   6   8
ENDBRANCH   1   7
BRANCH   2  15
ATOM     15  C   UNL     1       6.600   4.706  18.693  0.00  0.00    +0.000 C 
BRANCH  15  16
ATOM     16  N   UNL     1       6.780   4.502  17.260  0.00  0.00    +0.000 NA
ATOM     17  H   UNL     1       6.627   3.571  16.867  0.00  0.00    +0.000 HD
BRANCH  16  18
ATOM     18  S   UNL     1       6.476   5.775  16.222  0.00  0.00    +0.000 S 
ATOM     19  O   UNL     1       5.115   6.200  16.462  0.00  0.00    +0.000 OA
ATOM     20  O   UNL     1       7.588   6.692  16.329  0.00  0.00    +0.000 OA
BRANCH  18  21
ATOM     21  C   UNL     1       6.526   4.994  14.630  0.00  0.00    +0.000 A 
ATOM     22  C   UNL     1       5.510   4.103  14.272  0.00  0.00    +0.000 A 
ATOM     23  C   UNL     1       5.560   3.468  13.031  0.00  0.00    +0.000 A 
ATOM     24  C   UNL     1       6.612   3.731  12.152  0.00  0.00    +0.000 A 
ATOM     25  C   UNL     1       7.609   4.645  12.502  0.00  0.00    +0.000 A 
ATOM     26  C   UNL     1       7.567   5.284  13.741  0.00  0.00    +0.000 A 
ENDBRANCH  18  21
ENDBRANCH  16  18
ENDBRANCH  15  16
ENDBRANCH   2  15
TORSDOF 6
ENDMDL
MODEL 9
REMARK VINA RESULT:      -7.0      3.440      6.601
REMARK  Name = 
REMARK  7 active torsions:
REMARK  status: ('A' for Active; 'I' for Inactive)
REMARK    1  A    between atoms: C_1  and  C_2
REMARK    2  A    between atoms: C_2  and  C_18
REMARK    3  A    between atoms: N_3  and  N_4
REMARK    4  A    between atoms: C_5  and  C_7
REMARK    5  A    between atoms: C_7  and  N_8
REMARK    6  A    between atoms: N_8  and  S_9
REMARK    7  A    between atoms: S_9  and  C_12
REMARK                            x       y       z     vdW  Elec       q    Type
REMARK                         _______ _______ _______ _____ _____    ______ ____
ROOT
ATOM      1  N   UNL     1       4.279   3.964  18.355  0.00  0.00    +0.000 N 
ATOM      2  C   UNL     1       5.396   4.077  19.181  0.00  0.00    +0.000 C 
ATOM      3  O   UNL     1       5.445   3.731  20.360  0.00  0.00    +0.000 OA
ATOM      4  H   UNL     1       4.300   4.273  17.390  0.00  0.00    +0.000 HD
ENDROOT
BRANCH   1   7
ATOM      5  C   UNL     1       1.010   3.420  19.926  0.00  0.00    +0.000 C 
ATOM      6  C   UNL     1       2.171   4.160  19.283  0.00  0.00    +0.000 C 
ATOM      7  N   UNL     1       3.134   3.409  18.830  0.00  0.00    +0.000 NA
BRANCH   6   8
ATOM      8  C   UNL     1       2.040   5.655  19.174  0.00  0.00    +0.000 A 
ATOM      9  C   UNL     1       2.203   6.296  17.937  0.00  0.00    +0.000 A 
ATOM     10  C   UNL     1       2.143   7.692  17.842  0.00  0.00    +0.000 A 
ATOM     11  C   UNL     1       1.901   8.454  18.982  0.00  0.00    +0.000 A 
ATOM     12 BR   UNL     1       1.820  10.337  18.856  0.00  0.00    +0.000 Br
ATOM     13  C   UNL     1       1.741   7.836  20.218  0.00  0.00    +0.000 A 
ATOM     14  C   UNL     1       1.840   6.445  20.315  0.00  0.00    +0.000 A 
ENDBRANCH   6   8
ENDBRANCH   1   7
BRANCH   2  15
ATOM     15  C   UNL     1       6.612   4.617  18.438  0.00  0.00    +0.000 C 
BRANCH  15  16
ATOM     16  N   UNL     1       6.539   4.352  17.005  0.00  0.00    +0.000 NA
ATOM     17  H   UNL     1       6.116   3.479  16.683  0.00  0.00    +0.000 HD
BRANCH  16  18
ATOM     18  S   UNL     1       6.404   5.643  15.954  0.00  0.00    +0.000 S 
ATOM     19  O   UNL     1       5.063   6.165  16.095  0.00  0.00    +0.000 OA
ATOM     20  O   UNL     1       7.568   6.478  16.148  0.00  0.00    +0.000 OA
BRANCH  18  21
ATOM     21  C   UNL     1       6.516   4.860  14.367  0.00  0.00    +0.000 A 
ATOM     22  C   UNL     1       7.588   5.172  13.525  0.00  0.00    +0.000 A 
ATOM     23  C   UNL     1       7.665   4.578  12.265  0.00  0.00    +0.000 A 
ATOM     24  C   UNL     1       6.685   3.672  11.857  0.00  0.00    +0.000 A 
ATOM     25  C   UNL     1       5.633   3.341  12.713  0.00  0.00    +0.000 A 
ATOM     26  C   UNL     1       5.547   3.931  13.974  0.00  0.00    +0.000 A 
ENDBRANCH  18  21
ENDBRANCH  16  18
ENDBRANCH  15  16
ENDBRANCH   2  15
TORSDOF 6
ENDMDL
