MODEL 1
REMARK VINA RESULT:      -7.4      0.000      0.000
REMARK  Name = 
REMARK  3 active torsions:
REMARK  status: ('A' for Active; 'I' for Inactive)
REMARK    1  A    between atoms: C_1  and  O_2
REMARK    2  A    between atoms: O_2  and  C_3
REMARK    3  A    between atoms: C_7  and  N_8
REMARK                            x       y       z     vdW  Elec       q    Type
REMARK                         _______ _______ _______ _____ _____    ______ ____
ROOT
ATOM      1  N   UNL     1       2.454   7.169  18.771  0.00  0.00    +0.000 N 
ATOM      2  C   UNL     1       2.444   8.188  17.825  0.00  0.00    +0.000 A 
ATOM      3  C   UNL     1       1.874   9.371  18.071  0.00  0.00    +0.000 A 
ATOM      4  C   UNL     1       1.203   9.598  19.327  0.00  0.00    +0.000 A 
ATOM      5  C   UNL     1       1.174   8.653  20.285  0.00  0.00    +0.000 A 
ATOM      6  N   UNL     1       0.517   8.838  21.491  0.00  0.00    +0.000 NA
ATOM      7  N   UNL     1      -0.096   9.912  21.750  0.00  0.00    +0.000 NA
ATOM      8  C   UNL     1      -0.113  10.934  20.846  0.00  0.00    +0.000 A 
ATOM      9  N   UNL     1      -0.666  12.128  20.899  0.00  0.00    +0.000 NA
ATOM     10  C   UNL     1      -0.330  12.681  19.702  0.00  0.00    +0.000 A 
ATOM     11  N   UNL     1       0.397  11.915  18.890  0.00  0.00    +0.000 NA
ATOM     12  N   UNL     1       0.540  10.782  19.626  0.00  0.00    +0.000 N 
ATOM     13  C   UNL     1       1.861   7.334  20.042  0.00  0.00    +0.000 A 
ATOM     14  O   UNL     1       1.828   6.471  20.920  0.00  0.00    +0.000 OA
ENDROOT
BRANCH   1  19
ATOM     15  C   UNL     1       4.991   4.454  18.406  0.00  0.00    +0.000 A 
ATOM     16  C   UNL     1       4.221   3.458  17.800  0.00  0.00    +0.000 A 
ATOM     17  C   UNL     1       2.871   3.673  17.526  0.00  0.00    +0.000 A 
ATOM     18  C   UNL     1       2.286   4.899  17.838  0.00  0.00    +0.000 A 
ATOM     19  C   UNL     1       3.039   5.901  18.458  0.00  0.00    +0.000 A 
ATOM     20  C   UNL     1       4.391   5.665  18.759  0.00  0.00    +0.000 A 
BRANCH  15  22
ATOM     21  C   UNL     1       7.247   4.752  17.715  0.00  0.00    +0.000 C 
ATOM     22  O   UNL     1       6.308   4.131  18.585  0.00  0.00    +0.000 OA
ENDBRANCH  15  22
ENDBRANCH   1  19
TORSDOF 2
ENDMDL
MODEL 2
REMARK VINA RESULT:      -7.4      1.129      2.048
REMARK  Name = 
REMARK  3 active torsions:
REMARK  status: ('A' for Active; 'I' for Inactive)
REMARK    1  A    between atoms: C_1  and  O_2
REMARK    2  A    between atoms: O_2  and  C_3
REMARK    3  A    between atoms: C_7  and  N_8
REMARK                            x       y       z     vdW  Elec       q    Type
REMARK                         _______ _______ _______ _____ _____    ______ ____
ROOT
ATOM      1  N   UNL     1       2.275   6.954  19.350  0.00  0.00    +0.000 N 
ATOM      2  C   UNL     1       1.735   6.893  20.630  0.00  0.00    +0.000 A 
ATOM      3  C   UNL     1       1.096   7.931  21.175  0.00  0.00    +0.000 A 
ATOM      4  C   UNL     1       0.997   9.174  20.451  0.00  0.00    +0.000 A 
ATOM      5  C   UNL     1       1.500   9.302  19.209  0.00  0.00    +0.000 A 
ATOM      6  N   UNL     1       1.438  10.492  18.502  0.00  0.00    +0.000 NA
ATOM      7  N   UNL     1       0.905  11.526  18.994  0.00  0.00    +0.000 NA
ATOM      8  C   UNL     1       0.356  11.492  20.243  0.00  0.00    +0.000 A 
ATOM      9  N   UNL     1      -0.253  12.423  20.947  0.00  0.00    +0.000 NA
ATOM     10  C   UNL     1      -0.574  11.782  22.104  0.00  0.00    +0.000 A 
ATOM     11  N   UNL     1      -0.204  10.504  22.182  0.00  0.00    +0.000 NA
ATOM     12  N   UNL     1       0.398  10.312  20.980  0.00  0.00    +0.000 N 
ATOM     13  C   UNL     1       2.175   8.121  18.561  0.00  0.00    +0.000 A 
ATOM     14  O   UNL     1       2.637   8.244  17.426  0.00  0.00    +0.000 OA
ENDROOT
BRANCH   1  19
ATOM     15  C   UNL     1       5.064   4.591  18.589  0.00  0.00    +0.000 A 
ATOM     16  C   UNL     1       4.419   3.695  17.733  0.00  0.00    +0.000 A 
ATOM     17  C   UNL     1       3.071   3.859  17.418  0.00  0.00    +0.000 A 
ATOM     18  C   UNL     1       2.362   4.937  17.944  0.00  0.00    +0.000 A 
ATOM     19  C   UNL     1       2.988   5.835  18.814  0.00  0.00    +0.000 A 
ATOM     20  C   UNL     1       4.338   5.645  19.151  0.00  0.00    +0.000 A 
BRANCH  15  22
ATOM     21  C   UNL     1       7.279   4.696  17.730  0.00  0.00    +0.000 C 
ATOM     22  O   UNL     1       6.394   4.340  18.786  0.00  0.00    +0.000 OA
ENDBRANCH  15  22
ENDBRANCH   1  19
TORSDOF 2
ENDMDL
MODEL 3
REMARK VINA RESULT:      -7.2      1.316      2.061
REMARK  Name = 
REMARK  3 active torsions:
REMARK  status: ('A' for Active; 'I' for Inactive)
REMARK    1  A    between atoms: C_1  and  O_2
REMARK    2  A    between atoms: O_2  and  C_3
REMARK    3  A    between atoms: C_7  and  N_8
REMARK                            x       y       z     vdW  Elec       q    Type
REMARK                         _______ _______ _______ _____ _____    ______ ____
ROOT
ATOM      1  N   UNL     1       2.327   7.416  18.615  0.00  0.00    +0.000 N 
ATOM      2  C   UNL     1       2.136   8.525  17.799  0.00  0.00    +0.000 A 
ATOM      3  C   UNL     1       1.595   9.655  18.261  0.00  0.00    +0.000 A 
ATOM      4  C   UNL     1       1.145   9.729  19.629  0.00  0.00    +0.000 A 
ATOM      5  C   UNL     1       1.298   8.691  20.473  0.00  0.00    +0.000 A 
ATOM      6  N   UNL     1       0.853   8.728  21.784  0.00  0.00    +0.000 NA
ATOM      7  N   UNL     1       0.274   9.747  22.256  0.00  0.00    +0.000 NA
ATOM      8  C   UNL     1       0.084  10.855  21.482  0.00  0.00    +0.000 A 
ATOM      9  N   UNL     1      -0.473  12.016  21.753  0.00  0.00    +0.000 NA
ATOM     10  C   UNL     1      -0.358  12.700  20.582  0.00  0.00    +0.000 A 
ATOM     11  N   UNL     1       0.233  12.047  19.583  0.00  0.00    +0.000 NA
ATOM     12  N   UNL     1       0.521  10.852  20.160  0.00  0.00    +0.000 N 
ATOM     13  C   UNL     1       1.957   7.429  19.979  0.00  0.00    +0.000 A 
ATOM     14  O   UNL     1       2.090   6.481  20.753  0.00  0.00    +0.000 OA
ENDROOT
BRANCH   1  19
ATOM     15  C   UNL     1       2.609   3.855  17.531  0.00  0.00    +0.000 A 
ATOM     16  C   UNL     1       3.932   3.822  17.084  0.00  0.00    +0.000 A 
ATOM     17  C   UNL     1       4.723   4.969  17.127  0.00  0.00    +0.000 A 
ATOM     18  C   UNL     1       4.200   6.155  17.638  0.00  0.00    +0.000 A 
ATOM     19  C   UNL     1       2.873   6.208  18.075  0.00  0.00    +0.000 A 
ATOM     20  C   UNL     1       2.073   5.056  18.001  0.00  0.00    +0.000 A 
BRANCH  15  22
ATOM     21  C   UNL     1       1.356   2.187  18.675  0.00  0.00    +0.000 C 
ATOM     22  O   UNL     1       1.954   2.654  17.471  0.00  0.00    +0.000 OA
ENDBRANCH  15  22
ENDBRANCH   1  19
TORSDOF 2
ENDMDL
MODEL 4
REMARK VINA RESULT:      -7.2      1.670      2.767
REMARK  Name = 
REMARK  3 active torsions:
REMARK  status: ('A' for Active; 'I' for Inactive)
REMARK    1  A    between atoms: C_1  and  O_2
REMARK    2  A    between atoms: O_2  and  C_3
REMARK    3  A    between atoms: C_7  and  N_8
REMARK                            x       y       z     vdW  Elec       q    Type
REMARK                         _______ _______ _______ _____ _____    ______ ____
ROOT
ATOM      1  N   UNL     1       2.168   7.467  19.060  0.00  0.00    +0.000 N 
ATOM      2  C   UNL     1       1.836   7.250  20.393  0.00  0.00    +0.000 A 
ATOM      3  C   UNL     1       1.188   8.168  21.115  0.00  0.00    +0.000 A 
ATOM      4  C   UNL     1       0.861   9.444  20.529  0.00  0.00    +0.000 A 
ATOM      5  C   UNL     1       1.156   9.720  19.245  0.00  0.00    +0.000 A 
ATOM      6  N   UNL     1       0.873  10.946  18.665  0.00  0.00    +0.000 NA
ATOM      7  N   UNL     1       0.322  11.875  19.321  0.00  0.00    +0.000 NA
ATOM      8  C   UNL     1      -0.027  11.687  20.626  0.00  0.00    +0.000 A 
ATOM      9  N   UNL     1      -0.610  12.490  21.492  0.00  0.00    +0.000 NA
ATOM     10  C   UNL     1      -0.689  11.731  22.619  0.00  0.00    +0.000 A 
ATOM     11  N   UNL     1      -0.189  10.499  22.527  0.00  0.00    +0.000 NA
ATOM     12  N   UNL     1       0.241  10.466  21.239  0.00  0.00    +0.000 N 
ATOM     13  C   UNL     1       1.837   8.673  18.402  0.00  0.00    +0.000 A 
ATOM     14  O   UNL     1       2.108   8.932  17.229  0.00  0.00    +0.000 OA
ENDROOT
BRANCH   1  19
ATOM     15  C   UNL     1       3.041   4.222  17.433  0.00  0.00    +0.000 A 
ATOM     16  C   UNL     1       4.323   4.506  16.958  0.00  0.00    +0.000 A 
ATOM     17  C   UNL     1       4.893   5.762  17.159  0.00  0.00    +0.000 A 
ATOM     18  C   UNL     1       4.188   6.740  17.858  0.00  0.00    +0.000 A 
ATOM     19  C   UNL     1       2.897   6.477  18.328  0.00  0.00    +0.000 A 
ATOM     20  C   UNL     1       2.318   5.219  18.095  0.00  0.00    +0.000 A 
BRANCH  15  22
ATOM     21  C   UNL     1       3.114   1.933  18.073  0.00  0.00    +0.000 C 
ATOM     22  O   UNL     1       2.614   2.942  17.204  0.00  0.00    +0.000 OA
ENDBRANCH  15  22
ENDBRANCH   1  19
TORSDOF 2
ENDMDL
MODEL 5
REMARK VINA RESULT:      -7.2      1.614      2.436
REMARK  Name = 
REMARK  3 active torsions:
REMARK  status: ('A' for Active; 'I' for Inactive)
REMARK    1  A    between atoms: C_1  and  O_2
REMARK    2  A    between atoms: O_2  and  C_3
REMARK    3  A    between atoms: C_7  and  N_8
REMARK                            x       y       z     vdW  Elec       q    Type
REMARK                         _______ _______ _______ _____ _____    ______ ____
ROOT
ATOM      1  N   UNL     1       2.485   6.946  18.895  0.00  0.00    +0.000 N 
ATOM      2  C   UNL     1       2.123   6.569  20.184  0.00  0.00    +0.000 A 
ATOM      3  C   UNL     1       1.427   7.380  20.985  0.00  0.00    +0.000 A 
ATOM      4  C   UNL     1       1.075   8.704  20.537  0.00  0.00    +0.000 A 
ATOM      5  C   UNL     1       1.397   9.133  19.302  0.00  0.00    +0.000 A 
ATOM      6  N   UNL     1       1.091  10.409  18.855  0.00  0.00    +0.000 NA
ATOM      7  N   UNL     1       0.493  11.241  19.594  0.00  0.00    +0.000 NA
ATOM      8  C   UNL     1       0.114  10.895  20.859  0.00  0.00    +0.000 A 
ATOM      9  N   UNL     1      -0.518  11.577  21.791  0.00  0.00    +0.000 NA
ATOM     10  C   UNL     1      -0.604  10.693  22.822  0.00  0.00    +0.000 A 
ATOM     11  N   UNL     1      -0.063   9.494  22.607  0.00  0.00    +0.000 NA
ATOM     12  N   UNL     1       0.403   9.620  21.338  0.00  0.00    +0.000 N 
ATOM     13  C   UNL     1       2.134   8.209  18.368  0.00  0.00    +0.000 A 
ATOM     14  O   UNL     1       2.430   8.607  17.241  0.00  0.00    +0.000 OA
ENDROOT
BRANCH   1  19
ATOM     15  C   UNL     1       5.211   5.697  16.671  0.00  0.00    +0.000 A 
ATOM     16  C   UNL     1       4.776   4.391  16.434  0.00  0.00    +0.000 A 
ATOM     17  C   UNL     1       3.599   3.919  17.013  0.00  0.00    +0.000 A 
ATOM     18  C   UNL     1       2.836   4.761  17.820  0.00  0.00    +0.000 A 
ATOM     19  C   UNL     1       3.266   6.066  18.080  0.00  0.00    +0.000 A 
ATOM     20  C   UNL     1       4.468   6.524  17.517  0.00  0.00    +0.000 A 
BRANCH  15  22
ATOM     21  C   UNL     1       6.944   5.061  15.171  0.00  0.00    +0.000 C 
ATOM     22  O   UNL     1       6.359   6.047  16.013  0.00  0.00    +0.000 OA
ENDBRANCH  15  22
ENDBRANCH   1  19
TORSDOF 2
ENDMDL
MODEL 6
REMARK VINA RESULT:      -7.1      1.439      1.455
REMARK  Name = 
REMARK  3 active torsions:
REMARK  status: ('A' for Active; 'I' for Inactive)
REMARK    1  A    between atoms: C_1  and  O_2
REMARK    2  A    between atoms: O_2  and  C_3
REMARK    3  A    between atoms: C_7  and  N_8
REMARK                            x       y       z     vdW  Elec       q    Type
REMARK                         _______ _______ _______ _____ _____    ______ ____
ROOT
ATOM      1  N   UNL     1       2.781   7.287  18.258  0.00  0.00    +0.000 N 
ATOM      2  C   UNL     1       2.439   8.415  17.518  0.00  0.00    +0.000 A 
ATOM      3  C   UNL     1       1.707   9.402  18.039  0.00  0.00    +0.000 A 
ATOM      4  C   UNL     1       1.205   9.292  19.386  0.00  0.00    +0.000 A 
ATOM      5  C   UNL     1       1.497   8.227  20.156  0.00  0.00    +0.000 A 
ATOM      6  N   UNL     1       1.008   8.086  21.445  0.00  0.00    +0.000 NA
ATOM      7  N   UNL     1       0.255   8.958  21.965  0.00  0.00    +0.000 NA
ATOM      8  C   UNL     1      -0.086  10.080  21.267  0.00  0.00    +0.000 A 
ATOM      9  N   UNL     1      -0.834  11.112  21.599  0.00  0.00    +0.000 NA
ATOM     10  C   UNL     1      -0.792  11.898  20.490  0.00  0.00    +0.000 A 
ATOM     11  N   UNL     1      -0.070  11.431  19.472  0.00  0.00    +0.000 NA
ATOM     12  N   UNL     1       0.389  10.254  19.971  0.00  0.00    +0.000 N 
ATOM     13  C   UNL     1       2.368   7.131  19.600  0.00  0.00    +0.000 A 
ATOM     14  O   UNL     1       2.628   6.156  20.307  0.00  0.00    +0.000 OA
ENDROOT
BRANCH   1  19
ATOM     15  C   UNL     1       5.458   5.510  16.358  0.00  0.00    +0.000 A 
ATOM     16  C   UNL     1       4.989   4.196  16.416  0.00  0.00    +0.000 A 
ATOM     17  C   UNL     1       3.806   3.893  17.087  0.00  0.00    +0.000 A 
ATOM     18  C   UNL     1       3.070   4.911  17.691  0.00  0.00    +0.000 A 
ATOM     19  C   UNL     1       3.533   6.230  17.655  0.00  0.00    +0.000 A 
ATOM     20  C   UNL     1       4.742   6.522  17.002  0.00  0.00    +0.000 A 
BRANCH  15  22
ATOM     21  C   UNL     1       6.785   4.836  14.503  0.00  0.00    +0.000 C 
ATOM     22  O   UNL     1       6.609   5.677  15.637  0.00  0.00    +0.000 OA
ENDBRANCH  15  22
ENDBRANCH   1  19
TORSDOF 2
ENDMDL
MODEL 7
REMARK VINA RESULT:      -6.7      1.691      2.922
REMARK  Name = 
REMARK  3 active torsions:
REMARK  status: ('A' for Active; 'I' for Inactive)
REMARK    1  A    between atoms: C_1  and  O_2
REMARK    2  A    between atoms: O_2  and  C_3
REMARK    3  A    between atoms: C_7  and  N_8
REMARK                            x       y       z     vdW  Elec       q    Type
REMARK                         _______ _______ _______ _____ _____    ______ ____
ROOT
ATOM      1  N   UNL     1       2.186   7.134  19.576  0.00  0.00    +0.000 N 
ATOM      2  C   UNL     1       1.697   7.225  20.875  0.00  0.00    +0.000 A 
ATOM      3  C   UNL     1       1.125   8.340  21.335  0.00  0.00    +0.000 A 
ATOM      4  C   UNL     1       1.047   9.509  20.493  0.00  0.00    +0.000 A 
ATOM      5  C   UNL     1       1.504   9.489  19.226  0.00  0.00    +0.000 A 
ATOM      6  N   UNL     1       1.462  10.605  18.405  0.00  0.00    +0.000 NA
ATOM      7  N   UNL     1       0.993  11.705  18.810  0.00  0.00    +0.000 NA
ATOM      8  C   UNL     1       0.494  11.821  20.075  0.00  0.00    +0.000 A 
ATOM      9  N   UNL     1      -0.046  12.844  20.704  0.00  0.00    +0.000 NA
ATOM     10  C   UNL     1      -0.345  12.336  21.930  0.00  0.00    +0.000 A 
ATOM     11  N   UNL     1      -0.026  11.057  22.124  0.00  0.00    +0.000 NA
ATOM     12  N   UNL     1       0.518  10.719  20.926  0.00  0.00    +0.000 N 
ATOM     13  C   UNL     1       2.102   8.221  18.677  0.00  0.00    +0.000 A 
ATOM     14  O   UNL     1       2.522   8.210  17.519  0.00  0.00    +0.000 OA
ENDROOT
BRANCH   1  19
ATOM     15  C   UNL     1       2.665   3.650  18.325  0.00  0.00    +0.000 A 
ATOM     16  C   UNL     1       4.059   3.566  18.315  0.00  0.00    +0.000 A 
ATOM     17  C   UNL     1       4.838   4.654  18.704  0.00  0.00    +0.000 A 
ATOM     18  C   UNL     1       4.225   5.831  19.127  0.00  0.00    +0.000 A 
ATOM     19  C   UNL     1       2.830   5.936  19.130  0.00  0.00    +0.000 A 
ATOM     20  C   UNL     1       2.053   4.846  18.707  0.00  0.00    +0.000 A 
BRANCH  15  22
ATOM     21  C   UNL     1       0.864   2.144  18.708  0.00  0.00    +0.000 C 
ATOM     22  O   UNL     1       2.019   2.501  17.958  0.00  0.00    +0.000 OA
ENDBRANCH  15  22
ENDBRANCH   1  19
TORSDOF 2
ENDMDL
MODEL 8
REMARK VINA RESULT:      -6.7      1.151      1.308
REMARK  Name = 
REMARK  3 active torsions:
REMARK  status: ('A' for Active; 'I' for Inactive)
REMARK    1  A    between atoms: C_1  and  O_2
REMARK    2  A    between atoms: O_2  and  C_3
REMARK    3  A    between atoms: C_7  and  N_8
REMARK                            x       y       z     vdW  Elec       q    Type
REMARK                         _______ _______ _______ _____ _____    ______ ____
ROOT
ATOM      1  N   UNL     1       2.234   6.963  18.917  0.00  0.00    +0.000 N 
ATOM      2  C   UNL     1       2.343   7.885  17.881  0.00  0.00    +0.000 A 
ATOM      3  C   UNL     1       2.022   9.171  18.047  0.00  0.00    +0.000 A 
ATOM      4  C   UNL     1       1.499   9.624  19.312  0.00  0.00    +0.000 A 
ATOM      5  C   UNL     1       1.366   8.783  20.355  0.00  0.00    +0.000 A 
ATOM      6  N   UNL     1       0.845   9.188  21.574  0.00  0.00    +0.000 NA
ATOM      7  N   UNL     1       0.462  10.377  21.765  0.00  0.00    +0.000 NA
ATOM      8  C   UNL     1       0.568  11.306  20.772  0.00  0.00    +0.000 A 
ATOM      9  N   UNL     1       0.252  12.584  20.743  0.00  0.00    +0.000 NA
ATOM     10  C   UNL     1       0.595  12.963  19.482  0.00  0.00    +0.000 A 
ATOM     11  N   UNL     1       1.105  12.008  18.705  0.00  0.00    +0.000 NA
ATOM     12  N   UNL     1       1.090  10.934  19.536  0.00  0.00    +0.000 N 
ATOM     13  C   UNL     1       1.777   7.342  20.199  0.00  0.00    +0.000 A 
ATOM     14  O   UNL     1       1.649   6.576  21.155  0.00  0.00    +0.000 OA
ENDROOT
BRANCH   1  19
ATOM     15  C   UNL     1       3.975   3.668  19.133  0.00  0.00    +0.000 A 
ATOM     16  C   UNL     1       3.225   2.918  18.225  0.00  0.00    +0.000 A 
ATOM     17  C   UNL     1       2.144   3.488  17.555  0.00  0.00    +0.000 A 
ATOM     18  C   UNL     1       1.817   4.825  17.775  0.00  0.00    +0.000 A 
ATOM     19  C   UNL     1       2.549   5.586  18.692  0.00  0.00    +0.000 A 
ATOM     20  C   UNL     1       3.618   4.995  19.385  0.00  0.00    +0.000 A 
BRANCH  15  22
ATOM     21  C   UNL     1       4.726   1.856  20.478  0.00  0.00    +0.000 C 
ATOM     22  O   UNL     1       5.031   3.002  19.692  0.00  0.00    +0.000 OA
ENDBRANCH  15  22
ENDBRANCH   1  19
TORSDOF 2
ENDMDL
MODEL 9
REMARK VINA RESULT:      -6.7      2.541      7.138
REMARK  Name = 
REMARK  3 active torsions:
REMARK  status: ('A' for Active; 'I' for Inactive)
REMARK    1  A    between atoms: C_1  and  O_2
REMARK    2  A    between atoms: O_2  and  C_3
REMARK    3  A    between atoms: C_7  and  N_8
REMARK                            x       y       z     vdW  Elec       q    Type
REMARK                         _______ _______ _______ _____ _____    ______ ____
ROOT
ATOM      1  N   UNL     1       2.007   7.911  19.357  0.00  0.00    +0.000 N 
ATOM      2  C   UNL     1       2.549   8.491  18.215  0.00  0.00    +0.000 A 
ATOM      3  C   UNL     1       3.343   7.808  17.387  0.00  0.00    +0.000 A 
ATOM      4  C   UNL     1       3.700   6.445  17.696  0.00  0.00    +0.000 A 
ATOM      5  C   UNL     1       3.213   5.824  18.786  0.00  0.00    +0.000 A 
ATOM      6  N   UNL     1       3.559   4.524  19.117  0.00  0.00    +0.000 NA
ATOM      7  N   UNL     1       4.359   3.853  18.406  0.00  0.00    +0.000 NA
ATOM      8  C   UNL     1       4.896   4.391  17.273  0.00  0.00    +0.000 A 
ATOM      9  N   UNL     1       5.728   3.889  16.385  0.00  0.00    +0.000 NA
ATOM     10  C   UNL     1       5.885   4.904  15.493  0.00  0.00    +0.000 A 
ATOM     11  N   UNL     1       5.209   6.022  15.758  0.00  0.00    +0.000 NA
ATOM     12  N   UNL     1       4.567   5.694  16.910  0.00  0.00    +0.000 N 
ATOM     13  C   UNL     1       2.272   6.566  19.699  0.00  0.00    +0.000 A 
ATOM     14  O   UNL     1       1.832   5.995  20.698  0.00  0.00    +0.000 OA
ENDROOT
BRANCH   1  19
ATOM     15  C   UNL     1      -0.418  10.475  20.574  0.00  0.00    +0.000 A 
ATOM     16  C   UNL     1      -0.361  10.254  21.952  0.00  0.00    +0.000 A 
ATOM     17  C   UNL     1       0.461   9.257  22.478  0.00  0.00    +0.000 A 
ATOM     18  C   UNL     1       1.249   8.486  21.625  0.00  0.00    +0.000 A 
ATOM     19  C   UNL     1       1.193   8.686  20.242  0.00  0.00    +0.000 A 
ATOM     20  C   UNL     1       0.340   9.671  19.719  0.00  0.00    +0.000 A 
BRANCH  15  22
ATOM     21  C   UNL     1      -1.897  11.372  18.942  0.00  0.00    +0.000 C 
ATOM     22  O   UNL     1      -1.232  11.507  20.193  0.00  0.00    +0.000 OA
ENDBRANCH  15  22
ENDBRANCH   1  19
TORSDOF 2
ENDMDL
