MODEL 1
REMARK VINA RESULT:      -8.4      0.000      0.000
REMARK  Name = 
REMARK  11 active torsions:
REMARK  status: ('A' for Active; 'I' for Inactive)
REMARK    1  A    between atoms: C_1  and  O_2
REMARK    2  A    between atoms: O_2  and  C_3
REMARK    3  A    between atoms: C_5  and  C_6
REMARK    4  A    between atoms: C_6  and  C_7
REMARK    5  A    between atoms: C_6  and  C_8
REMARK    6  A    between atoms: C_9  and  C_10
REMARK    7  A    between atoms: C_11  and  C_12
REMARK    8  A    between atoms: C_17  and  N_18
REMARK    9  A    between atoms: C_21  and  C_22
REMARK   10  A    between atoms: C_23  and  C_24
REMARK   11  A    between atoms: C_28  and  C_29
REMARK                            x       y       z     vdW  Elec       q    Type
REMARK                         _______ _______ _______ _____ _____    ______ ____
ROOT
ATOM      1  C   UNL     1       0.482  10.332  20.130  0.00  0.00    +0.000 C 
ATOM      2  C   UNL     1       1.285  11.638  20.093  0.00  0.00    +0.000 C 
ENDROOT
BRANCH   1   5
ATOM      3  C   UNL     1       2.413   7.000  19.747  0.00  0.00    +0.000 A 
ATOM      4  C   UNL     1       1.680   8.068  20.306  0.00  0.00    +0.000 A 
ATOM      5  C   UNL     1       1.358   9.219  19.575  0.00  0.00    +0.000 A 
ATOM      6  C   UNL     1       1.771   9.279  18.250  0.00  0.00    +0.000 A 
ATOM      7  C   UNL     1       2.374   8.170  17.654  0.00  0.00    +0.000 A 
ATOM      8  C   UNL     1       2.741   7.001  18.367  0.00  0.00    +0.000 A 
BRANCH   8   9
ATOM      9  C   UNL     1       3.413   5.872  17.604  0.00  0.00    +0.000 A 
ATOM     10  C   UNL     1       2.735   4.621  17.393  0.00  0.00    +0.000 A 
ATOM     11  C   UNL     1       1.285   4.344  17.727  0.00  0.00    +0.000 C 
ATOM     12  C   UNL     1       3.414   3.502  16.858  0.00  0.00    +0.000 A 
ATOM     13  C   UNL     1       4.723   3.594  16.426  0.00  0.00    +0.000 A 
ATOM     14  C   UNL     1       5.378   4.806  16.535  0.00  0.00    +0.000 A 
ATOM     15  C   UNL     1       4.768   5.932  17.140  0.00  0.00    +0.000 A 
ATOM     16  C   UNL     1       5.660   7.148  17.195  0.00  0.00    +0.000 C 
ENDBRANCH   8   9
BRANCH   3  18
ATOM     17  C   UNL     1       1.871   5.019  21.020  0.00  0.00    +0.000 C 
ATOM     18  O   UNL     1       2.830   5.939  20.507  0.00  0.00    +0.000 OA
ENDBRANCH   3  18
ENDBRANCH   1   5
BRANCH   1  19
ATOM     19  C   UNL     1      -0.788  10.509  19.400  0.00  0.00    +0.000 C 
ATOM     20  C   UNL     1      -1.832  10.743  18.851  0.00  0.00    +0.000 C 
BRANCH  20  21
ATOM     21  C   UNL     1      -3.082  11.129  18.270  0.00  0.00    +0.000 A 
ATOM     22  C   UNL     1      -3.455  10.769  16.986  0.00  0.00    +0.000 A 
ATOM     23  C   UNL     1      -2.603   9.910  16.097  0.00  0.00    +0.000 C 
ATOM     24  N   UNL     1      -4.626  11.171  16.437  0.00  0.00    +0.000 NA
ATOM     25  C   UNL     1      -5.408  11.964  17.175  0.00  0.00    +0.000 A 
ATOM     26  N   UNL     1      -6.601  12.369  16.616  0.00  0.00    +0.000 N 
ATOM     27  N   UNL     1      -5.135  12.366  18.417  0.00  0.00    +0.000 NA
ATOM     28  C   UNL     1      -3.972  11.960  18.945  0.00  0.00    +0.000 A 
ATOM     29  H   UNL     1      -6.889  11.705  15.910  0.00  0.00    +0.000 HD
ATOM     30  H   UNL     1      -7.265  12.581  17.348  0.00  0.00    +0.000 HD
BRANCH  28  31
ATOM     31  N   UNL     1      -3.724  12.408  20.249  0.00  0.00    +0.000 N 
ATOM     32  H   UNL     1      -4.571  12.857  20.586  0.00  0.00    +0.000 HD
ATOM     33  H   UNL     1      -2.919  13.025  20.286  0.00  0.00    +0.000 HD
ENDBRANCH  28  31
ENDBRANCH  20  21
ENDBRANCH   1  19
TORSDOF 6
ENDMDL
MODEL 2
REMARK VINA RESULT:      -8.2      5.083      9.061
REMARK  Name = 
REMARK  11 active torsions:
REMARK  status: ('A' for Active; 'I' for Inactive)
REMARK    1  A    between atoms: C_1  and  O_2
REMARK    2  A    between atoms: O_2  and  C_3
REMARK    3  A    between atoms: C_5  and  C_6
REMARK    4  A    between atoms: C_6  and  C_7
REMARK    5  A    between atoms: C_6  and  C_8
REMARK    6  A    between atoms: C_9  and  C_10
REMARK    7  A    between atoms: C_11  and  C_12
REMARK    8  A    between atoms: C_17  and  N_18
REMARK    9  A    between atoms: C_21  and  C_22
REMARK   10  A    between atoms: C_23  and  C_24
REMARK   11  A    between atoms: C_28  and  C_29
REMARK                            x       y       z     vdW  Elec       q    Type
REMARK                         _______ _______ _______ _____ _____    ______ ____
ROOT
ATOM      1  C   UNL     1       2.972   5.911  20.157  0.00  0.00    +0.000 C 
ATOM      2  C   UNL     1       2.033   4.700  20.190  0.00  0.00    +0.000 C 
ENDROOT
BRANCH   1   5
ATOM      3  C   UNL     1       0.611   8.922  20.741  0.00  0.00    +0.000 A 
ATOM      4  C   UNL     1       1.310   7.711  20.928  0.00  0.00    +0.000 A 
ATOM      5  C   UNL     1       2.132   7.159  19.936  0.00  0.00    +0.000 A 
ATOM      6  C   UNL     1       2.258   7.857  18.741  0.00  0.00    +0.000 A 
ATOM      7  C   UNL     1       1.680   9.121  18.605  0.00  0.00    +0.000 A 
ATOM      8  C   UNL     1       0.821   9.697  19.573  0.00  0.00    +0.000 A 
BRANCH   8   9
ATOM      9  C   UNL     1       0.237  11.072  19.292  0.00  0.00    +0.000 A 
ATOM     10  C   UNL     1      -0.936  11.220  18.472  0.00  0.00    +0.000 A 
ATOM     11  C   UNL     1      -1.795  10.083  17.961  0.00  0.00    +0.000 C 
ATOM     12  C   UNL     1      -1.375  12.493  18.044  0.00  0.00    +0.000 A 
ATOM     13  C   UNL     1      -0.755  13.650  18.477  0.00  0.00    +0.000 A 
ATOM     14  C   UNL     1       0.324  13.548  19.335  0.00  0.00    +0.000 A 
ATOM     15  C   UNL     1       0.851  12.292  19.725  0.00  0.00    +0.000 A 
ATOM     16  C   UNL     1       2.050  12.395  20.636  0.00  0.00    +0.000 C 
ENDBRANCH   8   9
BRANCH   3  18
ATOM     17  C   UNL     1       0.124   9.556  23.021  0.00  0.00    +0.000 C 
ATOM     18  O   UNL     1      -0.286   9.383  21.668  0.00  0.00    +0.000 OA
ENDBRANCH   3  18
ENDBRANCH   1   5
BRANCH   1  19
ATOM     19  C   UNL     1       4.013   5.706  19.132  0.00  0.00    +0.000 C 
ATOM     20  C   UNL     1       4.790   5.558  18.226  0.00  0.00    +0.000 C 
BRANCH  20  21
ATOM     21  C   UNL     1       5.615   5.399  17.067  0.00  0.00    +0.000 A 
ATOM     22  C   UNL     1       6.776   6.126  16.869  0.00  0.00    +0.000 A 
ATOM     23  C   UNL     1       7.300   7.122  17.863  0.00  0.00    +0.000 C 
ATOM     24  N   UNL     1       7.528   5.990  15.750  0.00  0.00    +0.000 NA
ATOM     25  C   UNL     1       7.091   5.139  14.817  0.00  0.00    +0.000 A 
ATOM     26  N   UNL     1       7.859   4.999  13.682  0.00  0.00    +0.000 N 
ATOM     27  N   UNL     1       5.986   4.398  14.916  0.00  0.00    +0.000 NA
ATOM     28  C   UNL     1       5.253   4.546  16.029  0.00  0.00    +0.000 A 
ATOM     29  H   UNL     1       8.817   5.248  13.887  0.00  0.00    +0.000 HD
ATOM     30  H   UNL     1       7.696   4.090  13.271  0.00  0.00    +0.000 HD
BRANCH  28  31
ATOM     31  N   UNL     1       4.101   3.752  16.089  0.00  0.00    +0.000 N 
ATOM     32  H   UNL     1       3.873   3.467  15.141  0.00  0.00    +0.000 HD
ATOM     33  H   UNL     1       3.334   4.238  16.541  0.00  0.00    +0.000 HD
ENDBRANCH  28  31
ENDBRANCH  20  21
ENDBRANCH   1  19
TORSDOF 6
ENDMDL
MODEL 3
REMARK VINA RESULT:      -8.0      3.754      4.548
REMARK  Name = 
REMARK  11 active torsions:
REMARK  status: ('A' for Active; 'I' for Inactive)
REMARK    1  A    between atoms: C_1  and  O_2
REMARK    2  A    between atoms: O_2  and  C_3
REMARK    3  A    between atoms: C_5  and  C_6
REMARK    4  A    between atoms: C_6  and  C_7
REMARK    5  A    between atoms: C_6  and  C_8
REMARK    6  A    between atoms: C_9  and  C_10
REMARK    7  A    between atoms: C_11  and  C_12
REMARK    8  A    between atoms: C_17  and  N_18
REMARK    9  A    between atoms: C_21  and  C_22
REMARK   10  A    between atoms: C_23  and  C_24
REMARK   11  A    between atoms: C_28  and  C_29
REMARK                            x       y       z     vdW  Elec       q    Type
REMARK                         _______ _______ _______ _____ _____    ______ ____
ROOT
ATOM      1  C   UNL     1       0.451   9.450  20.472  0.00  0.00    +0.000 C 
ATOM      2  C   UNL     1       0.420   9.162  21.978  0.00  0.00    +0.000 C 
ENDROOT
BRANCH   1   5
ATOM      3  C   UNL     1       2.672   6.361  19.763  0.00  0.00    +0.000 A 
ATOM      4  C   UNL     1       1.828   7.283  20.417  0.00  0.00    +0.000 A 
ATOM      5  C   UNL     1       1.441   8.493  19.825  0.00  0.00    +0.000 A 
ATOM      6  C   UNL     1       1.903   8.762  18.543  0.00  0.00    +0.000 A 
ATOM      7  C   UNL     1       2.623   7.793  17.841  0.00  0.00    +0.000 A 
ATOM      8  C   UNL     1       3.058   6.572  18.415  0.00  0.00    +0.000 A 
BRANCH   8   9
ATOM      9  C   UNL     1       3.855   5.612  17.548  0.00  0.00    +0.000 A 
ATOM     10  C   UNL     1       3.325   4.321  17.201  0.00  0.00    +0.000 A 
ATOM     11  C   UNL     1       1.915   3.848  17.486  0.00  0.00    +0.000 C 
ATOM     12  C   UNL     1       4.127   3.347  16.563  0.00  0.00    +0.000 A 
ATOM     13  C   UNL     1       5.418   3.631  16.160  0.00  0.00    +0.000 A 
ATOM     14  C   UNL     1       5.930   4.892  16.401  0.00  0.00    +0.000 A 
ATOM     15  C   UNL     1       5.194   5.873  17.111  0.00  0.00    +0.000 A 
ATOM     16  C   UNL     1       5.942   7.170  17.302  0.00  0.00    +0.000 C 
ENDBRANCH   8   9
BRANCH   3  18
ATOM     17  C   UNL     1       2.243   4.402  21.111  0.00  0.00    +0.000 C 
ATOM     18  O   UNL     1       3.146   5.244  20.401  0.00  0.00    +0.000 OA
ENDBRANCH   3  18
ENDBRANCH   1   5
BRANCH   1  19
ATOM     19  C   UNL     1       0.765  10.873  20.244  0.00  0.00    +0.000 C 
ATOM     20  C   UNL     1       1.100  12.003  20.002  0.00  0.00    +0.000 C 
BRANCH  20  21
ATOM     21  C   UNL     1       1.603  13.298  19.654  0.00  0.00    +0.000 A 
ATOM     22  C   UNL     1       1.394  14.418  20.440  0.00  0.00    +0.000 A 
ATOM     23  C   UNL     1       0.656  14.377  21.746  0.00  0.00    +0.000 C 
ATOM     24  N   UNL     1       1.846  15.643  20.080  0.00  0.00    +0.000 NA
ATOM     25  C   UNL     1       2.484  15.742  18.910  0.00  0.00    +0.000 A 
ATOM     26  N   UNL     1       2.947  16.988  18.547  0.00  0.00    +0.000 N 
ATOM     27  N   UNL     1       2.731  14.723  18.085  0.00  0.00    +0.000 NA
ATOM     28  C   UNL     1       2.276  13.518  18.456  0.00  0.00    +0.000 A 
ATOM     29  H   UNL     1       3.087  17.553  19.374  0.00  0.00    +0.000 HD
ATOM     30  H   UNL     1       3.730  16.890  17.917  0.00  0.00    +0.000 HD
BRANCH  28  31
ATOM     31  N   UNL     1       2.553  12.478  17.559  0.00  0.00    +0.000 N 
ATOM     32  H   UNL     1       1.782  12.426  16.900  0.00  0.00    +0.000 HD
ATOM     33  H   UNL     1       2.709  11.599  18.042  0.00  0.00    +0.000 HD
ENDBRANCH  28  31
ENDBRANCH  20  21
ENDBRANCH   1  19
TORSDOF 6
ENDMDL
MODEL 4
REMARK VINA RESULT:      -8.0      2.782      4.267
REMARK  Name = 
REMARK  11 active torsions:
REMARK  status: ('A' for Active; 'I' for Inactive)
REMARK    1  A    between atoms: C_1  and  O_2
REMARK    2  A    between atoms: O_2  and  C_3
REMARK    3  A    between atoms: C_5  and  C_6
REMARK    4  A    between atoms: C_6  and  C_7
REMARK    5  A    between atoms: C_6  and  C_8
REMARK    6  A    between atoms: C_9  and  C_10
REMARK    7  A    between atoms: C_11  and  C_12
REMARK    8  A    between atoms: C_17  and  N_18
REMARK    9  A    between atoms: C_21  and  C_22
REMARK   10  A    between atoms: C_23  and  C_24
REMARK   11  A    between atoms: C_28  and  C_29
REMARK                            x       y       z     vdW  Elec       q    Type
REMARK                         _______ _______ _______ _____ _____    ______ ____
ROOT
ATOM      1  C   UNL     1       0.751   9.062  19.934  0.00  0.00    +0.000 C 
ATOM      2  C   UNL     1       0.740   8.879  21.457  0.00  0.00    +0.000 C 
ENDROOT
BRANCH   1   5
ATOM      3  C   UNL     1       3.258   6.171  19.354  0.00  0.00    +0.000 A 
ATOM      4  C   UNL     1       2.286   7.003  19.949  0.00  0.00    +0.000 A 
ATOM      5  C   UNL     1       1.868   8.205  19.360  0.00  0.00    +0.000 A 
ATOM      6  C   UNL     1       2.433   8.556  18.140  0.00  0.00    +0.000 A 
ATOM      7  C   UNL     1       3.289   7.670  17.484  0.00  0.00    +0.000 A 
ATOM      8  C   UNL     1       3.756   6.462  18.059  0.00  0.00    +0.000 A 
BRANCH   8   9
ATOM      9  C   UNL     1       4.705   5.596  17.247  0.00  0.00    +0.000 A 
ATOM     10  C   UNL     1       6.026   6.061  16.917  0.00  0.00    +0.000 A 
ATOM     11  C   UNL     1       6.669   7.321  17.455  0.00  0.00    +0.000 C 
ATOM     12  C   UNL     1       6.843   5.356  16.006  0.00  0.00    +0.000 A 
ATOM     13  C   UNL     1       6.448   4.143  15.473  0.00  0.00    +0.000 A 
ATOM     14  C   UNL     1       5.219   3.625  15.836  0.00  0.00    +0.000 A 
ATOM     15  C   UNL     1       4.330   4.334  16.680  0.00  0.00    +0.000 A 
ATOM     16  C   UNL     1       3.026   3.615  16.928  0.00  0.00    +0.000 C 
ENDBRANCH   8   9
BRANCH   3  18
ATOM     17  C   UNL     1       2.847   4.112  20.551  0.00  0.00    +0.000 C 
ATOM     18  O   UNL     1       3.749   5.067  20.000  0.00  0.00    +0.000 OA
ENDBRANCH   3  18
ENDBRANCH   1   5
BRANCH   1  19
ATOM     19  C   UNL     1       0.873  10.495  19.607  0.00  0.00    +0.000 C 
ATOM     20  C   UNL     1       0.905  11.682  19.413  0.00  0.00    +0.000 C 
BRANCH  20  21
ATOM     21  C   UNL     1       0.849  13.105  19.272  0.00  0.00    +0.000 A 
ATOM     22  C   UNL     1       1.695  13.960  19.958  0.00  0.00    +0.000 A 
ATOM     23  C   UNL     1       2.773  13.477  20.884  0.00  0.00    +0.000 C 
ATOM     24  N   UNL     1       1.607  15.306  19.840  0.00  0.00    +0.000 NA
ATOM     25  C   UNL     1       0.644  15.791  19.051  0.00  0.00    +0.000 A 
ATOM     26  N   UNL     1       0.558  17.161  18.930  0.00  0.00    +0.000 N 
ATOM     27  N   UNL     1      -0.218  15.051  18.354  0.00  0.00    +0.000 NA
ATOM     28  C   UNL     1      -0.118  13.720  18.482  0.00  0.00    +0.000 A 
ATOM     29  H   UNL     1       1.458  17.577  19.129  0.00  0.00    +0.000 HD
ATOM     30  H   UNL     1       0.125  17.398  18.048  0.00  0.00    +0.000 HD
BRANCH  28  31
ATOM     31  N   UNL     1      -1.045  12.981  17.735  0.00  0.00    +0.000 N 
ATOM     32  H   UNL     1      -0.678  12.892  16.792  0.00  0.00    +0.000 HD
ATOM     33  H   UNL     1      -1.965  13.407  17.753  0.00  0.00    +0.000 HD
ENDBRANCH  28  31
ENDBRANCH  20  21
ENDBRANCH   1  19
TORSDOF 6
ENDMDL
MODEL 5
REMARK VINA RESULT:      -8.0      3.699      4.698
REMARK  Name = 
REMARK  11 active torsions:
REMARK  status: ('A' for Active; 'I' for Inactive)
REMARK    1  A    between atoms: C_1  and  O_2
REMARK    2  A    between atoms: O_2  and  C_3
REMARK    3  A    between atoms: C_5  and  C_6
REMARK    4  A    between atoms: C_6  and  C_7
REMARK    5  A    between atoms: C_6  and  C_8
REMARK    6  A    between atoms: C_9  and  C_10
REMARK    7  A    between atoms: C_11  and  C_12
REMARK    8  A    between atoms: C_17  and  N_18
REMARK    9  A    between atoms: C_21  and  C_22
REMARK   10  A    between atoms: C_23  and  C_24
REMARK   11  A    between atoms: C_28  and  C_29
REMARK                            x       y       z     vdW  Elec       q    Type
REMARK                         _______ _______ _______ _____ _____    ______ ____
ROOT
ATOM      1  C   UNL     1       0.776   8.975  20.026  0.00  0.00    +0.000 C 
ATOM      2  C   UNL     1       0.758   8.751  21.543  0.00  0.00    +0.000 C 
ENDROOT
BRANCH   1   5
ATOM      3  C   UNL     1       3.252   6.072  19.377  0.00  0.00    +0.000 A 
ATOM      4  C   UNL     1       2.289   6.900  19.991  0.00  0.00    +0.000 A 
ATOM      5  C   UNL     1       1.885   8.120  19.432  0.00  0.00    +0.000 A 
ATOM      6  C   UNL     1       2.455   8.496  18.222  0.00  0.00    +0.000 A 
ATOM      7  C   UNL     1       3.302   7.616  17.544  0.00  0.00    +0.000 A 
ATOM      8  C   UNL     1       3.755   6.390  18.090  0.00  0.00    +0.000 A 
BRANCH   8   9
ATOM      9  C   UNL     1       4.695   5.534  17.258  0.00  0.00    +0.000 A 
ATOM     10  C   UNL     1       6.012   6.004  16.918  0.00  0.00    +0.000 A 
ATOM     11  C   UNL     1       6.660   7.259  17.462  0.00  0.00    +0.000 C 
ATOM     12  C   UNL     1       6.820   5.310  15.989  0.00  0.00    +0.000 A 
ATOM     13  C   UNL     1       6.419   4.103  15.448  0.00  0.00    +0.000 A 
ATOM     14  C   UNL     1       5.195   3.579  15.819  0.00  0.00    +0.000 A 
ATOM     15  C   UNL     1       4.315   4.278  16.681  0.00  0.00    +0.000 A 
ATOM     16  C   UNL     1       3.015   3.555  16.935  0.00  0.00    +0.000 C 
ENDBRANCH   8   9
BRANCH   3  18
ATOM     17  C   UNL     1       2.824   4.049  20.627  0.00  0.00    +0.000 C 
ATOM     18  O   UNL     1       3.731   4.948  19.996  0.00  0.00    +0.000 OA
ENDBRANCH   3  18
ENDBRANCH   1   5
BRANCH   1  19
ATOM     19  C   UNL     1       0.916  10.415  19.738  0.00  0.00    +0.000 C 
ATOM     20  C   UNL     1       1.092  11.595  19.584  0.00  0.00    +0.000 C 
BRANCH  20  21
ATOM     21  C   UNL     1       1.368  12.998  19.512  0.00  0.00    +0.000 A 
ATOM     22  C   UNL     1       0.915  13.899  20.460  0.00  0.00    +0.000 A 
ATOM     23  C   UNL     1       0.125  13.490  21.669  0.00  0.00    +0.000 C 
ATOM     24  N   UNL     1       1.154  15.229  20.361  0.00  0.00    +0.000 NA
ATOM     25  C   UNL     1       1.827  15.652  19.286  0.00  0.00    +0.000 A 
ATOM     26  N   UNL     1       2.073  17.004  19.188  0.00  0.00    +0.000 N 
ATOM     27  N   UNL     1       2.300  14.863  18.321  0.00  0.00    +0.000 NA
ATOM     28  C   UNL     1       2.053  13.550  18.434  0.00  0.00    +0.000 A 
ATOM     29  H   UNL     1       2.062  17.419  20.110  0.00  0.00    +0.000 HD
ATOM     30  H   UNL     1       2.895  17.160  18.621  0.00  0.00    +0.000 HD
BRANCH  28  31
ATOM     31  N   UNL     1       2.565  12.758  17.397  0.00  0.00    +0.000 N 
ATOM     32  H   UNL     1       1.822  12.623  16.719  0.00  0.00    +0.000 HD
ATOM     33  H   UNL     1       2.936  11.880  17.745  0.00  0.00    +0.000 HD
ENDBRANCH  28  31
ENDBRANCH  20  21
ENDBRANCH   1  19
TORSDOF 6
ENDMDL
MODEL 6
REMARK VINA RESULT:      -8.0      5.080      9.203
REMARK  Name = 
REMARK  11 active torsions:
REMARK  status: ('A' for Active; 'I' for Inactive)
REMARK    1  A    between atoms: C_1  and  O_2
REMARK    2  A    between atoms: O_2  and  C_3
REMARK    3  A    between atoms: C_5  and  C_6
REMARK    4  A    between atoms: C_6  and  C_7
REMARK    5  A    between atoms: C_6  and  C_8
REMARK    6  A    between atoms: C_9  and  C_10
REMARK    7  A    between atoms: C_11  and  C_12
REMARK    8  A    between atoms: C_17  and  N_18
REMARK    9  A    between atoms: C_21  and  C_22
REMARK   10  A    between atoms: C_23  and  C_24
REMARK   11  A    between atoms: C_28  and  C_29
REMARK                            x       y       z     vdW  Elec       q    Type
REMARK                         _______ _______ _______ _____ _____    ______ ____
ROOT
ATOM      1  C   UNL     1       3.031   5.895  20.171  0.00  0.00    +0.000 C 
ATOM      2  C   UNL     1       2.128   4.657  20.237  0.00  0.00    +0.000 C 
ENDROOT
BRANCH   1   5
ATOM      3  C   UNL     1       0.573   8.834  20.716  0.00  0.00    +0.000 A 
ATOM      4  C   UNL     1       1.310   7.648  20.918  0.00  0.00    +0.000 A 
ATOM      5  C   UNL     1       2.153   7.113  19.934  0.00  0.00    +0.000 A 
ATOM      6  C   UNL     1       2.261   7.803  18.733  0.00  0.00    +0.000 A 
ATOM      7  C   UNL     1       1.644   9.046  18.581  0.00  0.00    +0.000 A 
ATOM      8  C   UNL     1       0.763   9.605  19.541  0.00  0.00    +0.000 A 
BRANCH   8   9
ATOM      9  C   UNL     1       0.137  10.957  19.244  0.00  0.00    +0.000 A 
ATOM     10  C   UNL     1       0.673  12.160  19.823  0.00  0.00    +0.000 A 
ATOM     11  C   UNL     1       1.961  12.252  20.613  0.00  0.00    +0.000 C 
ATOM     12  C   UNL     1      -0.010  13.392  19.713  0.00  0.00    +0.000 A 
ATOM     13  C   UNL     1      -1.164  13.511  18.963  0.00  0.00    +0.000 A 
ATOM     14  C   UNL     1      -1.661  12.392  18.321  0.00  0.00    +0.000 A 
ATOM     15  C   UNL     1      -1.059  11.118  18.469  0.00  0.00    +0.000 A 
ATOM     16  C   UNL     1      -1.772  10.020  17.718  0.00  0.00    +0.000 C 
ENDBRANCH   8   9
BRANCH   3  18
ATOM     17  C   UNL     1       0.095   9.668  22.933  0.00  0.00    +0.000 C 
ATOM     18  O   UNL     1      -0.342   9.276  21.635  0.00  0.00    +0.000 OA
ENDBRANCH   3  18
ENDBRANCH   1   5
BRANCH   1  19
ATOM     19  C   UNL     1       4.068   5.700  19.139  0.00  0.00    +0.000 C 
ATOM     20  C   UNL     1       4.840   5.556  18.229  0.00  0.00    +0.000 C 
BRANCH  20  21
ATOM     21  C   UNL     1       5.658   5.397  17.064  0.00  0.00    +0.000 A 
ATOM     22  C   UNL     1       6.818   6.124  16.859  0.00  0.00    +0.000 A 
ATOM     23  C   UNL     1       7.349   7.118  17.850  0.00  0.00    +0.000 C 
ATOM     24  N   UNL     1       7.563   5.987  15.736  0.00  0.00    +0.000 NA
ATOM     25  C   UNL     1       7.120   5.136  14.806  0.00  0.00    +0.000 A 
ATOM     26  N   UNL     1       7.881   4.996  13.666  0.00  0.00    +0.000 N 
ATOM     27  N   UNL     1       6.015   4.396  14.911  0.00  0.00    +0.000 NA
ATOM     28  C   UNL     1       5.289   4.544  16.028  0.00  0.00    +0.000 A 
ATOM     29  H   UNL     1       8.841   5.244  13.865  0.00  0.00    +0.000 HD
ATOM     30  H   UNL     1       7.714   4.087  13.256  0.00  0.00    +0.000 HD
BRANCH  28  31
ATOM     31  N   UNL     1       4.136   3.750  16.096  0.00  0.00    +0.000 N 
ATOM     32  H   UNL     1       3.988   3.346  15.176  0.00  0.00    +0.000 HD
ATOM     33  H   UNL     1       3.334   4.282  16.418  0.00  0.00    +0.000 HD
ENDBRANCH  28  31
ENDBRANCH  20  21
ENDBRANCH   1  19
TORSDOF 6
ENDMDL
MODEL 7
REMARK VINA RESULT:      -8.0      0.361      1.672
REMARK  Name = 
REMARK  11 active torsions:
REMARK  status: ('A' for Active; 'I' for Inactive)
REMARK    1  A    between atoms: C_1  and  O_2
REMARK    2  A    between atoms: O_2  and  C_3
REMARK    3  A    between atoms: C_5  and  C_6
REMARK    4  A    between atoms: C_6  and  C_7
REMARK    5  A    between atoms: C_6  and  C_8
REMARK    6  A    between atoms: C_9  and  C_10
REMARK    7  A    between atoms: C_11  and  C_12
REMARK    8  A    between atoms: C_17  and  N_18
REMARK    9  A    between atoms: C_21  and  C_22
REMARK   10  A    between atoms: C_23  and  C_24
REMARK   11  A    between atoms: C_28  and  C_29
REMARK                            x       y       z     vdW  Elec       q    Type
REMARK                         _______ _______ _______ _____ _____    ______ ____
ROOT
ATOM      1  C   UNL     1       0.329   9.887  20.457  0.00  0.00    +0.000 C 
ATOM      2  C   UNL     1       1.141  11.151  20.765  0.00  0.00    +0.000 C 
ENDROOT
BRANCH   1   5
ATOM      3  C   UNL     1       2.464   6.708  19.897  0.00  0.00    +0.000 A 
ATOM      4  C   UNL     1       1.673   7.699  20.514  0.00  0.00    +0.000 A 
ATOM      5  C   UNL     1       1.265   8.859  19.841  0.00  0.00    +0.000 A 
ATOM      6  C   UNL     1       1.651   9.004  18.514  0.00  0.00    +0.000 A 
ATOM      7  C   UNL     1       2.314   7.963  17.860  0.00  0.00    +0.000 A 
ATOM      8  C   UNL     1       2.768   6.791  18.514  0.00  0.00    +0.000 A 
BRANCH   8   9
ATOM      9  C   UNL     1       3.499   5.743  17.691  0.00  0.00    +0.000 A 
ATOM     10  C   UNL     1       4.814   6.003  17.169  0.00  0.00    +0.000 A 
ATOM     11  C   UNL     1       5.665   7.210  17.502  0.00  0.00    +0.000 C 
ATOM     12  C   UNL     1       5.422   5.122  16.247  0.00  0.00    +0.000 A 
ATOM     13  C   UNL     1       4.822   3.930  15.886  0.00  0.00    +0.000 A 
ATOM     14  C   UNL     1       3.595   3.609  16.436  0.00  0.00    +0.000 A 
ATOM     15  C   UNL     1       2.908   4.497  17.300  0.00  0.00    +0.000 A 
ATOM     16  C   UNL     1       1.570   3.977  17.764  0.00  0.00    +0.000 C 
ENDBRANCH   8   9
BRANCH   3  18
ATOM     17  C   UNL     1       2.066   4.703  21.186  0.00  0.00    +0.000 C 
ATOM     18  O   UNL     1       2.962   5.644  20.602  0.00  0.00    +0.000 OA
ENDBRANCH   3  18
ENDBRANCH   1   5
BRANCH   1  19
ATOM     19  C   UNL     1      -0.822  10.231  19.601  0.00  0.00    +0.000 C 
ATOM     20  C   UNL     1      -1.799  10.563  18.982  0.00  0.00    +0.000 C 
BRANCH  20  21
ATOM     21  C   UNL     1      -3.005  11.012  18.356  0.00  0.00    +0.000 A 
ATOM     22  C   UNL     1      -3.350  10.664  17.061  0.00  0.00    +0.000 A 
ATOM     23  C   UNL     1      -2.516   9.756  16.206  0.00  0.00    +0.000 C 
ATOM     24  N   UNL     1      -4.478  11.125  16.469  0.00  0.00    +0.000 NA
ATOM     25  C   UNL     1      -5.243  11.963  17.175  0.00  0.00    +0.000 A 
ATOM     26  N   UNL     1      -6.392  12.428  16.573  0.00  0.00    +0.000 N 
ATOM     27  N   UNL     1      -4.993  12.358  18.424  0.00  0.00    +0.000 NA
ATOM     28  C   UNL     1      -3.872  11.893  18.995  0.00  0.00    +0.000 A 
ATOM     29  H   UNL     1      -6.689  11.776  15.860  0.00  0.00    +0.000 HD
ATOM     30  H   UNL     1      -7.068  12.680  17.280  0.00  0.00    +0.000 HD
BRANCH  28  31
ATOM     31  N   UNL     1      -3.647  12.335  20.306  0.00  0.00    +0.000 N 
ATOM     32  H   UNL     1      -2.982  11.698  20.735  0.00  0.00    +0.000 HD
ATOM     33  H   UNL     1      -4.512  12.403  20.831  0.00  0.00    +0.000 HD
ENDBRANCH  28  31
ENDBRANCH  20  21
ENDBRANCH   1  19
TORSDOF 6
ENDMDL
MODEL 8
REMARK VINA RESULT:      -7.9      0.625      2.287
REMARK  Name = 
REMARK  11 active torsions:
REMARK  status: ('A' for Active; 'I' for Inactive)
REMARK    1  A    between atoms: C_1  and  O_2
REMARK    2  A    between atoms: O_2  and  C_3
REMARK    3  A    between atoms: C_5  and  C_6
REMARK    4  A    between atoms: C_6  and  C_7
REMARK    5  A    between atoms: C_6  and  C_8
REMARK    6  A    between atoms: C_9  and  C_10
REMARK    7  A    between atoms: C_11  and  C_12
REMARK    8  A    between atoms: C_17  and  N_18
REMARK    9  A    between atoms: C_21  and  C_22
REMARK   10  A    between atoms: C_23  and  C_24
REMARK   11  A    between atoms: C_28  and  C_29
REMARK                            x       y       z     vdW  Elec       q    Type
REMARK                         _______ _______ _______ _____ _____    ______ ____
ROOT
ATOM      1  C   UNL     1       0.374  10.012  20.427  0.00  0.00    +0.000 C 
ATOM      2  C   UNL     1       1.213  11.263  20.712  0.00  0.00    +0.000 C 
ENDROOT
BRANCH   1   5
ATOM      3  C   UNL     1       2.416   6.766  19.905  0.00  0.00    +0.000 A 
ATOM      4  C   UNL     1       1.648   7.783  20.509  0.00  0.00    +0.000 A 
ATOM      5  C   UNL     1       1.287   8.953  19.827  0.00  0.00    +0.000 A 
ATOM      6  C   UNL     1       1.697   9.083  18.506  0.00  0.00    +0.000 A 
ATOM      7  C   UNL     1       2.337   8.021  17.864  0.00  0.00    +0.000 A 
ATOM      8  C   UNL     1       2.744   6.836  18.528  0.00  0.00    +0.000 A 
BRANCH   8   9
ATOM      9  C   UNL     1       3.453   5.764  17.718  0.00  0.00    +0.000 A 
ATOM     10  C   UNL     1       4.747   6.013  17.141  0.00  0.00    +0.000 A 
ATOM     11  C   UNL     1       5.600   7.237  17.399  0.00  0.00    +0.000 C 
ATOM     12  C   UNL     1       5.330   5.103  16.230  0.00  0.00    +0.000 A 
ATOM     13  C   UNL     1       4.727   3.895  15.935  0.00  0.00    +0.000 A 
ATOM     14  C   UNL     1       3.523   3.586  16.538  0.00  0.00    +0.000 A 
ATOM     15  C   UNL     1       2.860   4.500  17.393  0.00  0.00    +0.000 A 
ATOM     16  C   UNL     1       1.542   3.988  17.922  0.00  0.00    +0.000 C 
ENDBRANCH   8   9
BRANCH   3  18
ATOM     17  C   UNL     1       1.936   4.758  21.161  0.00  0.00    +0.000 C 
ATOM     18  O   UNL     1       2.870   5.689  20.621  0.00  0.00    +0.000 OA
ENDBRANCH   3  18
ENDBRANCH   1   5
BRANCH   1  19
ATOM     19  C   UNL     1      -0.771  10.366  19.567  0.00  0.00    +0.000 C 
ATOM     20  C   UNL     1      -1.744  10.703  18.945  0.00  0.00    +0.000 C 
BRANCH  20  21
ATOM     21  C   UNL     1      -2.949  11.153  18.317  0.00  0.00    +0.000 A 
ATOM     22  C   UNL     1      -3.849  11.999  18.943  0.00  0.00    +0.000 A 
ATOM     23  C   UNL     1      -3.631  12.554  20.320  0.00  0.00    +0.000 C 
ATOM     24  N   UNL     1      -5.002  12.389  18.349  0.00  0.00    +0.000 NA
ATOM     25  C   UNL     1      -5.262  11.899  17.133  0.00  0.00    +0.000 A 
ATOM     26  N   UNL     1      -6.433  12.300  16.529  0.00  0.00    +0.000 N 
ATOM     27  N   UNL     1      -4.461  11.078  16.452  0.00  0.00    +0.000 NA
ATOM     28  C   UNL     1      -3.324  10.702  17.055  0.00  0.00    +0.000 A 
ATOM     29  H   UNL     1      -6.725  13.191  16.908  0.00  0.00    +0.000 HD
ATOM     30  H   UNL     1      -6.338  12.234  15.525  0.00  0.00    +0.000 HD
BRANCH  28  31
ATOM     31  N   UNL     1      -2.514   9.837  16.306  0.00  0.00    +0.000 N 
ATOM     32  H   UNL     1      -2.093   9.175  16.951  0.00  0.00    +0.000 HD
ATOM     33  H   UNL     1      -1.821  10.346  15.768  0.00  0.00    +0.000 HD
ENDBRANCH  28  31
ENDBRANCH  20  21
ENDBRANCH   1  19
TORSDOF 6
ENDMDL
MODEL 9
REMARK VINA RESULT:      -7.9      2.758      3.764
REMARK  Name = 
REMARK  11 active torsions:
REMARK  status: ('A' for Active; 'I' for Inactive)
REMARK    1  A    between atoms: C_1  and  O_2
REMARK    2  A    between atoms: O_2  and  C_3
REMARK    3  A    between atoms: C_5  and  C_6
REMARK    4  A    between atoms: C_6  and  C_7
REMARK    5  A    between atoms: C_6  and  C_8
REMARK    6  A    between atoms: C_9  and  C_10
REMARK    7  A    between atoms: C_11  and  C_12
REMARK    8  A    between atoms: C_17  and  N_18
REMARK    9  A    between atoms: C_21  and  C_22
REMARK   10  A    between atoms: C_23  and  C_24
REMARK   11  A    between atoms: C_28  and  C_29
REMARK                            x       y       z     vdW  Elec       q    Type
REMARK                         _______ _______ _______ _____ _____    ______ ____
ROOT
ATOM      1  C   UNL     1       0.344   9.751  20.256  0.00  0.00    +0.000 C 
ATOM      2  C   UNL     1       0.519   9.766  21.780  0.00  0.00    +0.000 C 
ENDROOT
BRANCH   1   5
ATOM      3  C   UNL     1       2.591   6.642  19.742  0.00  0.00    +0.000 A 
ATOM      4  C   UNL     1       1.737   7.595  20.336  0.00  0.00    +0.000 A 
ATOM      5  C   UNL     1       1.344   8.765  19.672  0.00  0.00    +0.000 A 
ATOM      6  C   UNL     1       1.812   8.962  18.378  0.00  0.00    +0.000 A 
ATOM      7  C   UNL     1       2.542   7.958  17.739  0.00  0.00    +0.000 A 
ATOM      8  C   UNL     1       2.982   6.777  18.386  0.00  0.00    +0.000 A 
BRANCH   8   9
ATOM      9  C   UNL     1       3.791   5.773  17.581  0.00  0.00    +0.000 A 
ATOM     10  C   UNL     1       3.251   4.477  17.264  0.00  0.00    +0.000 A 
ATOM     11  C   UNL     1       1.825   4.037  17.521  0.00  0.00    +0.000 C 
ATOM     12  C   UNL     1       4.057   3.469  16.689  0.00  0.00    +0.000 A 
ATOM     13  C   UNL     1       5.365   3.718  16.318  0.00  0.00    +0.000 A 
ATOM     14  C   UNL     1       5.889   4.979  16.529  0.00  0.00    +0.000 A 
ATOM     15  C   UNL     1       5.148   5.997  17.178  0.00  0.00    +0.000 A 
ATOM     16  C   UNL     1       5.910   7.289  17.345  0.00  0.00    +0.000 C 
ENDBRANCH   8   9
BRANCH   3  18
ATOM     17  C   UNL     1       2.154   4.669  21.067  0.00  0.00    +0.000 C 
ATOM     18  O   UNL     1       3.068   5.568  20.446  0.00  0.00    +0.000 OA
ENDBRANCH   3  18
ENDBRANCH   1   5
BRANCH   1  19
ATOM     19  C   UNL     1       0.482  11.121  19.727  0.00  0.00    +0.000 C 
ATOM     20  C   UNL     1       0.576  12.272  19.389  0.00  0.00    +0.000 C 
BRANCH  20  21
ATOM     21  C   UNL     1       0.652  13.674  19.108  0.00  0.00    +0.000 A 
ATOM     22  C   UNL     1       1.810  14.286  18.660  0.00  0.00    +0.000 A 
ATOM     23  C   UNL     1       3.082  13.536  18.389  0.00  0.00    +0.000 C 
ATOM     24  N   UNL     1       1.877  15.620  18.431  0.00  0.00    +0.000 NA
ATOM     25  C   UNL     1       0.780  16.340  18.685  0.00  0.00    +0.000 A 
ATOM     26  N   UNL     1       0.849  17.696  18.449  0.00  0.00    +0.000 N 
ATOM     27  N   UNL     1      -0.378  15.843  19.121  0.00  0.00    +0.000 NA
ATOM     28  C   UNL     1      -0.426  14.522  19.343  0.00  0.00    +0.000 A 
ATOM     29  H   UNL     1       1.564  17.886  17.759  0.00  0.00    +0.000 HD
ATOM     30  H   UNL     1      -0.077  18.057  18.265  0.00  0.00    +0.000 HD
BRANCH  28  31
ATOM     31  N   UNL     1      -1.660  14.043  19.803  0.00  0.00    +0.000 N 
ATOM     32  H   UNL     1      -1.921  14.596  20.614  0.00  0.00    +0.000 HD
ATOM     33  H   UNL     1      -1.623  13.050  20.008  0.00  0.00    +0.000 HD
ENDBRANCH  28  31
ENDBRANCH  20  21
ENDBRANCH   1  19
TORSDOF 6
ENDMDL
