MODEL 1
REMARK VINA RESULT:      -8.1      0.000      0.000
REMARK  Name = 
REMARK  3 active torsions:
REMARK  status: ('A' for Active; 'I' for Inactive)
REMARK    1  A    between atoms: C_1  and  C_2
REMARK    2  A    between atoms: C_7  and  C_9
REMARK    3  A    between atoms: C_19  and  C_20
REMARK                            x       y       z     vdW  Elec       q    Type
REMARK                         _______ _______ _______ _____ _____    ______ ____
ROOT
ATOM      1  C   UNL     1       4.481   5.705  17.372  0.00  0.00    +0.000 A 
ATOM      2  C   UNL     1       4.583   4.790  18.423  0.00  0.00    +0.000 A 
ATOM      3  C   UNL     1       3.846   4.967  19.607  0.00  0.00    +0.000 A 
ATOM      4  C   UNL     1       3.011   6.091  19.705  0.00  0.00    +0.000 A 
ATOM      5  N   UNL     1       2.212   6.529  20.742  0.00  0.00    +0.000 N 
ATOM      6  C   UNL     1       1.613   7.707  20.397  0.00  0.00    +0.000 A 
ATOM      7  C   UNL     1       2.000   8.037  19.116  0.00  0.00    +0.000 A 
ATOM      8  C   UNL     1       2.891   7.021  18.671  0.00  0.00    +0.000 A 
ATOM      9  C   UNL     1       3.636   6.824  17.495  0.00  0.00    +0.000 A 
ATOM     10  C   UNL     1       1.579   9.298  18.436  0.00  0.00    +0.000 C 
ATOM     11  C   UNL     1       0.540  10.104  19.260  0.00  0.00    +0.000 C 
ATOM     12  C   UNL     1       0.562  11.572  18.831  0.00  0.00    +0.000 C 
ATOM     13  C   UNL     1       0.759   9.983  20.790  0.00  0.00    +0.000 C 
ATOM     14  C   UNL     1       0.715   8.517  21.264  0.00  0.00    +0.000 C 
ATOM     15  H   UNL     1       2.120   6.062  21.634  0.00  0.00    +0.000 HD
ENDROOT
BRANCH   1  22
ATOM     16  C   UNL     1       6.064   2.233  11.182  0.00  0.00    +0.000 C 
ATOM     17  C   UNL     1       6.320   3.208  12.273  0.00  0.00    +0.000 A 
ATOM     18  C   UNL     1       7.329   4.152  12.293  0.00  0.00    +0.000 A 
ATOM     19  S   UNL     1       7.226   5.083  13.718  0.00  0.00    +0.000 S 
ATOM     20  C   UNL     1       5.846   4.199  14.199  0.00  0.00    +0.000 A 
ATOM     21  N   UNL     1       5.176   4.460  15.378  0.00  0.00    +0.000 N 
ATOM     22  C   UNL     1       5.304   5.612  16.127  0.00  0.00    +0.000 C 
ATOM     23  O   UNL     1       5.994   6.587  15.845  0.00  0.00    +0.000 OA
ATOM     24  N   UNL     1       5.495   3.220  13.395  0.00  0.00    +0.000 NA
ATOM     25  H   UNL     1       4.438   3.800  15.576  0.00  0.00    +0.000 HD
ENDBRANCH   1  22
TORSDOF 1
ENDMDL
MODEL 2
REMARK VINA RESULT:      -7.6      4.093      8.318
REMARK  Name = 
REMARK  3 active torsions:
REMARK  status: ('A' for Active; 'I' for Inactive)
REMARK    1  A    between atoms: C_1  and  C_2
REMARK    2  A    between atoms: C_7  and  C_9
REMARK    3  A    between atoms: C_19  and  C_20
REMARK                            x       y       z     vdW  Elec       q    Type
REMARK                         _______ _______ _______ _____ _____    ______ ____
ROOT
ATOM      1  C   UNL     1       2.576   8.210  18.078  0.00  0.00    +0.000 A 
ATOM      2  C   UNL     1       3.695   8.124  17.244  0.00  0.00    +0.000 A 
ATOM      3  C   UNL     1       4.418   6.925  17.128  0.00  0.00    +0.000 A 
ATOM      4  C   UNL     1       3.988   5.818  17.877  0.00  0.00    +0.000 A 
ATOM      5  N   UNL     1       4.515   4.546  17.985  0.00  0.00    +0.000 N 
ATOM      6  C   UNL     1       3.780   3.816  18.875  0.00  0.00    +0.000 A 
ATOM      7  C   UNL     1       2.748   4.602  19.341  0.00  0.00    +0.000 A 
ATOM      8  C   UNL     1       2.875   5.875  18.718  0.00  0.00    +0.000 A 
ATOM      9  C   UNL     1       2.165   7.085  18.818  0.00  0.00    +0.000 A 
ATOM     10  C   UNL     1       1.777   4.143  20.377  0.00  0.00    +0.000 C 
ATOM     11  C   UNL     1       1.957   2.647  20.746  0.00  0.00    +0.000 C 
ATOM     12  C   UNL     1       1.365   2.377  22.130  0.00  0.00    +0.000 C 
ATOM     13  C   UNL     1       3.436   2.186  20.688  0.00  0.00    +0.000 C 
ATOM     14  C   UNL     1       4.058   2.417  19.297  0.00  0.00    +0.000 C 
ATOM     15  H   UNL     1       5.344   4.224  17.503  0.00  0.00    +0.000 HD
ENDROOT
BRANCH   1  22
ATOM     16  C   UNL     1      -1.908  12.154  22.226  0.00  0.00    +0.000 C 
ATOM     17  C   UNL     1      -1.174  11.837  20.974  0.00  0.00    +0.000 A 
ATOM     18  C   UNL     1      -1.080  12.655  19.864  0.00  0.00    +0.000 A 
ATOM     19  S   UNL     1      -0.110  11.911  18.675  0.00  0.00    +0.000 S 
ATOM     20  C   UNL     1       0.141  10.576  19.711  0.00  0.00    +0.000 A 
ATOM     21  N   UNL     1       0.918   9.495  19.346  0.00  0.00    +0.000 N 
ATOM     22  C   UNL     1       1.822   9.482  18.304  0.00  0.00    +0.000 C 
ATOM     23  O   UNL     1       2.101  10.427  17.573  0.00  0.00    +0.000 OA
ATOM     24  N   UNL     1      -0.498  10.626  20.859  0.00  0.00    +0.000 NA
ATOM     25  H   UNL     1       0.901   8.742  20.019  0.00  0.00    +0.000 HD
ENDBRANCH   1  22
TORSDOF 1
ENDMDL
MODEL 3
REMARK VINA RESULT:      -7.6      3.850      8.527
REMARK  Name = 
REMARK  3 active torsions:
REMARK  status: ('A' for Active; 'I' for Inactive)
REMARK    1  A    between atoms: C_1  and  C_2
REMARK    2  A    between atoms: C_7  and  C_9
REMARK    3  A    between atoms: C_19  and  C_20
REMARK                            x       y       z     vdW  Elec       q    Type
REMARK                         _______ _______ _______ _____ _____    ______ ____
ROOT
ATOM      1  C   UNL     1       1.427   8.896  19.315  0.00  0.00    +0.000 A 
ATOM      2  C   UNL     1       1.049   8.189  20.460  0.00  0.00    +0.000 A 
ATOM      3  C   UNL     1       1.588   6.921  20.735  0.00  0.00    +0.000 A 
ATOM      4  C   UNL     1       2.512   6.383  19.825  0.00  0.00    +0.000 A 
ATOM      5  N   UNL     1       3.167   5.167  19.822  0.00  0.00    +0.000 N 
ATOM      6  C   UNL     1       3.941   5.063  18.702  0.00  0.00    +0.000 A 
ATOM      7  C   UNL     1       3.816   6.225  17.972  0.00  0.00    +0.000 A 
ATOM      8  C   UNL     1       2.908   7.067  18.674  0.00  0.00    +0.000 A 
ATOM      9  C   UNL     1       2.356   8.335  18.419  0.00  0.00    +0.000 A 
ATOM     10  C   UNL     1       4.481   6.436  16.653  0.00  0.00    +0.000 C 
ATOM     11  C   UNL     1       5.447   5.281  16.278  0.00  0.00    +0.000 C 
ATOM     12  C   UNL     1       5.658   5.251  14.764  0.00  0.00    +0.000 C 
ATOM     13  C   UNL     1       4.959   3.899  16.785  0.00  0.00    +0.000 C 
ATOM     14  C   UNL     1       4.761   3.884  18.313  0.00  0.00    +0.000 C 
ATOM     15  H   UNL     1       3.054   4.451  20.527  0.00  0.00    +0.000 HD
ENDROOT
BRANCH   1  22
ATOM     16  C   UNL     1       1.781  16.159  19.278  0.00  0.00    +0.000 C 
ATOM     17  C   UNL     1       1.096  14.851  19.112  0.00  0.00    +0.000 A 
ATOM     18  C   UNL     1      -0.167  14.662  18.586  0.00  0.00    +0.000 A 
ATOM     19  S   UNL     1      -0.538  12.997  18.547  0.00  0.00    +0.000 S 
ATOM     20  C   UNL     1       0.999  12.637  19.201  0.00  0.00    +0.000 A 
ATOM     21  N   UNL     1       1.411  11.343  19.450  0.00  0.00    +0.000 N 
ATOM     22  C   UNL     1       0.823  10.209  18.930  0.00  0.00    +0.000 C 
ATOM     23  O   UNL     1      -0.120  10.174  18.145  0.00  0.00    +0.000 OA
ATOM     24  N   UNL     1       1.743  13.680  19.499  0.00  0.00    +0.000 NA
ATOM     25  H   UNL     1       2.302  11.289  19.922  0.00  0.00    +0.000 HD
ENDBRANCH   1  22
TORSDOF 1
ENDMDL
MODEL 4
REMARK VINA RESULT:      -7.5      5.226     10.158
REMARK  Name = 
REMARK  3 active torsions:
REMARK  status: ('A' for Active; 'I' for Inactive)
REMARK    1  A    between atoms: C_1  and  C_2
REMARK    2  A    between atoms: C_7  and  C_9
REMARK    3  A    between atoms: C_19  and  C_20
REMARK                            x       y       z     vdW  Elec       q    Type
REMARK                         _______ _______ _______ _____ _____    ______ ____
ROOT
ATOM      1  C   UNL     1       0.865  10.798  20.072  0.00  0.00    +0.000 A 
ATOM      2  C   UNL     1       1.366  11.248  18.847  0.00  0.00    +0.000 A 
ATOM      3  C   UNL     1       1.972  10.357  17.944  0.00  0.00    +0.000 A 
ATOM      4  C   UNL     1       2.063   9.005  18.310  0.00  0.00    +0.000 A 
ATOM      5  N   UNL     1       2.625   7.931  17.649  0.00  0.00    +0.000 N 
ATOM      6  C   UNL     1       2.516   6.808  18.418  0.00  0.00    +0.000 A 
ATOM      7  C   UNL     1       1.858   7.135  19.584  0.00  0.00    +0.000 A 
ATOM      8  C   UNL     1       1.570   8.528  19.527  0.00  0.00    +0.000 A 
ATOM      9  C   UNL     1       0.968   9.437  20.415  0.00  0.00    +0.000 A 
ATOM     10  C   UNL     1       1.615   6.159  20.686  0.00  0.00    +0.000 C 
ATOM     11  C   UNL     1       2.036   4.714  20.309  0.00  0.00    +0.000 C 
ATOM     12  C   UNL     1       2.290   3.899  21.578  0.00  0.00    +0.000 C 
ATOM     13  C   UNL     1       3.275   4.671  19.378  0.00  0.00    +0.000 C 
ATOM     14  C   UNL     1       3.043   5.459  18.075  0.00  0.00    +0.000 C 
ATOM     15  H   UNL     1       3.082   7.985  16.749  0.00  0.00    +0.000 HD
ENDROOT
BRANCH   1  22
ATOM     16  C   UNL     1      -4.531  12.414  24.670  0.00  0.00    +0.000 C 
ATOM     17  C   UNL     1      -3.302  12.712  23.891  0.00  0.00    +0.000 A 
ATOM     18  C   UNL     1      -2.528  13.851  24.008  0.00  0.00    +0.000 A 
ATOM     19  S   UNL     1      -1.192  13.756  22.951  0.00  0.00    +0.000 S 
ATOM     20  C   UNL     1      -1.709  12.213  22.431  0.00  0.00    +0.000 A 
ATOM     21  N   UNL     1      -1.015  11.481  21.489  0.00  0.00    +0.000 N 
ATOM     22  C   UNL     1       0.289  11.715  21.104  0.00  0.00    +0.000 C 
ATOM     23  O   UNL     1       1.038  12.574  21.560  0.00  0.00    +0.000 OA
ATOM     24  N   UNL     1      -2.841  11.793  22.952  0.00  0.00    +0.000 NA
ATOM     25  H   UNL     1      -1.487  10.632  21.212  0.00  0.00    +0.000 HD
ENDBRANCH   1  22
TORSDOF 1
ENDMDL
MODEL 5
REMARK VINA RESULT:      -7.5      4.436      6.903
REMARK  Name = 
REMARK  3 active torsions:
REMARK  status: ('A' for Active; 'I' for Inactive)
REMARK    1  A    between atoms: C_1  and  C_2
REMARK    2  A    between atoms: C_7  and  C_9
REMARK    3  A    between atoms: C_19  and  C_20
REMARK                            x       y       z     vdW  Elec       q    Type
REMARK                         _______ _______ _______ _____ _____    ______ ____
ROOT
ATOM      1  C   UNL     1       7.048   6.495  17.533  0.00  0.00    +0.000 A 
ATOM      2  C   UNL     1       7.433   5.792  16.387  0.00  0.00    +0.000 A 
ATOM      3  C   UNL     1       6.710   4.667  15.955  0.00  0.00    +0.000 A 
ATOM      4  C   UNL     1       5.594   4.268  16.707  0.00  0.00    +0.000 A 
ATOM      5  N   UNL     1       4.732   3.202  16.541  0.00  0.00    +0.000 N 
ATOM      6  C   UNL     1       3.815   3.188  17.553  0.00  0.00    +0.000 A 
ATOM      7  C   UNL     1       4.057   4.264  18.380  0.00  0.00    +0.000 A 
ATOM      8  C   UNL     1       5.186   4.952  17.855  0.00  0.00    +0.000 A 
ATOM      9  C   UNL     1       5.924   6.075  18.269  0.00  0.00    +0.000 A 
ATOM     10  C   UNL     1       3.278   4.527  19.626  0.00  0.00    +0.000 C 
ATOM     11  C   UNL     1       2.077   3.559  19.797  0.00  0.00    +0.000 C 
ATOM     12  C   UNL     1       1.671   3.489  21.269  0.00  0.00    +0.000 C 
ATOM     13  C   UNL     1       2.364   2.140  19.243  0.00  0.00    +0.000 C 
ATOM     14  C   UNL     1       2.749   2.169  17.752  0.00  0.00    +0.000 C 
ATOM     15  H   UNL     1       4.800   2.517  15.801  0.00  0.00    +0.000 HD
ENDROOT
BRANCH   1  22
ATOM     16  C   UNL     1       8.308  13.653  17.753  0.00  0.00    +0.000 C 
ATOM     17  C   UNL     1       8.634  12.228  18.015  0.00  0.00    +0.000 A 
ATOM     18  C   UNL     1       9.679  11.768  18.793  0.00  0.00    +0.000 A 
ATOM     19  S   UNL     1       9.655  10.063  18.851  0.00  0.00    +0.000 S 
ATOM     20  C   UNL     1       8.257  10.047  17.870  0.00  0.00    +0.000 A 
ATOM     21  N   UNL     1       7.634   8.875  17.492  0.00  0.00    +0.000 N 
ATOM     22  C   UNL     1       7.829   7.644  18.085  0.00  0.00    +0.000 C 
ATOM     23  O   UNL     1       8.547   7.411  19.052  0.00  0.00    +0.000 OA
ATOM     24  N   UNL     1       7.844  11.226  17.457  0.00  0.00    +0.000 NA
ATOM     25  H   UNL     1       6.877   9.014  16.838  0.00  0.00    +0.000 HD
ENDBRANCH   1  22
TORSDOF 1
ENDMDL
MODEL 6
REMARK VINA RESULT:      -7.5      0.896      1.009
REMARK  Name = 
REMARK  3 active torsions:
REMARK  status: ('A' for Active; 'I' for Inactive)
REMARK    1  A    between atoms: C_1  and  C_2
REMARK    2  A    between atoms: C_7  and  C_9
REMARK    3  A    between atoms: C_19  and  C_20
REMARK                            x       y       z     vdW  Elec       q    Type
REMARK                         _______ _______ _______ _____ _____    ______ ____
ROOT
ATOM      1  C   UNL     1       4.009   6.241  17.940  0.00  0.00    +0.000 A 
ATOM      2  C   UNL     1       3.840   5.352  19.006  0.00  0.00    +0.000 A 
ATOM      3  C   UNL     1       2.963   5.652  20.063  0.00  0.00    +0.000 A 
ATOM      4  C   UNL     1       2.267   6.870  20.019  0.00  0.00    +0.000 A 
ATOM      5  N   UNL     1       1.382   7.432  20.918  0.00  0.00    +0.000 N 
ATOM      6  C   UNL     1       0.989   8.661  20.472  0.00  0.00    +0.000 A 
ATOM      7  C   UNL     1       1.600   8.904  19.260  0.00  0.00    +0.000 A 
ATOM      8  C   UNL     1       2.416   7.776  18.967  0.00  0.00    +0.000 A 
ATOM      9  C   UNL     1       3.298   7.456  17.920  0.00  0.00    +0.000 A 
ATOM     10  C   UNL     1       1.442  10.185  18.509  0.00  0.00    +0.000 C 
ATOM     11  C   UNL     1       0.399  11.134  19.156  0.00  0.00    +0.000 C 
ATOM     12  C   UNL     1       0.664  12.574  18.717  0.00  0.00    +0.000 C 
ATOM     13  C   UNL     1       0.371  11.034  20.703  0.00  0.00    +0.000 C 
ATOM     14  C   UNL     1       0.078   9.599  21.182  0.00  0.00    +0.000 C 
ATOM     15  H   UNL     1       1.101   7.007  21.792  0.00  0.00    +0.000 HD
ENDROOT
BRANCH   1  22
ATOM     16  C   UNL     1       5.776   2.823  11.770  0.00  0.00    +0.000 C 
ATOM     17  C   UNL     1       6.062   3.643  12.976  0.00  0.00    +0.000 A 
ATOM     18  C   UNL     1       7.247   4.302  13.242  0.00  0.00    +0.000 A 
ATOM     19  S   UNL     1       7.121   5.151  14.716  0.00  0.00    +0.000 S 
ATOM     20  C   UNL     1       5.508   4.616  14.890  0.00  0.00    +0.000 A 
ATOM     21  N   UNL     1       4.725   4.971  15.970  0.00  0.00    +0.000 N 
ATOM     22  C   UNL     1       4.991   6.013  16.835  0.00  0.00    +0.000 C 
ATOM     23  O   UNL     1       5.930   6.798  16.759  0.00  0.00    +0.000 OA
ATOM     24  N   UNL     1       5.081   3.800  13.951  0.00  0.00    +0.000 NA
ATOM     25  H   UNL     1       3.829   4.507  15.986  0.00  0.00    +0.000 HD
ENDBRANCH   1  22
TORSDOF 1
ENDMDL
MODEL 7
REMARK VINA RESULT:      -7.4      3.810      8.983
REMARK  Name = 
REMARK  3 active torsions:
REMARK  status: ('A' for Active; 'I' for Inactive)
REMARK    1  A    between atoms: C_1  and  C_2
REMARK    2  A    between atoms: C_7  and  C_9
REMARK    3  A    between atoms: C_19  and  C_20
REMARK                            x       y       z     vdW  Elec       q    Type
REMARK                         _______ _______ _______ _____ _____    ______ ____
ROOT
ATOM      1  C   UNL     1       1.564   8.171  20.000  0.00  0.00    +0.000 A 
ATOM      2  C   UNL     1       1.119   7.239  20.944  0.00  0.00    +0.000 A 
ATOM      3  C   UNL     1       1.575   5.910  20.915  0.00  0.00    +0.000 A 
ATOM      4  C   UNL     1       2.485   5.544  19.911  0.00  0.00    +0.000 A 
ATOM      5  N   UNL     1       3.066   4.325  19.625  0.00  0.00    +0.000 N 
ATOM      6  C   UNL     1       3.857   4.438  18.518  0.00  0.00    +0.000 A 
ATOM      7  C   UNL     1       3.818   5.745  18.083  0.00  0.00    +0.000 A 
ATOM      8  C   UNL     1       2.946   6.454  18.957  0.00  0.00    +0.000 A 
ATOM      9  C   UNL     1       2.477   7.779  19.004  0.00  0.00    +0.000 A 
ATOM     10  C   UNL     1       4.524   6.218  16.855  0.00  0.00    +0.000 C 
ATOM     11  C   UNL     1       5.426   5.125  16.225  0.00  0.00    +0.000 C 
ATOM     12  C   UNL     1       5.670   5.439  14.748  0.00  0.00    +0.000 C 
ATOM     13  C   UNL     1       4.846   3.696  16.388  0.00  0.00    +0.000 C 
ATOM     14  C   UNL     1       4.614   3.335  17.868  0.00  0.00    +0.000 C 
ATOM     15  H   UNL     1       2.895   3.471  20.140  0.00  0.00    +0.000 HD
ENDROOT
BRANCH   1  22
ATOM     16  C   UNL     1      -1.145  13.998  23.404  0.00  0.00    +0.000 C 
ATOM     17  C   UNL     1      -0.821  13.174  22.210  0.00  0.00    +0.000 A 
ATOM     18  C   UNL     1      -0.944  13.577  20.894  0.00  0.00    +0.000 A 
ATOM     19  S   UNL     1      -0.426  12.329  19.854  0.00  0.00    +0.000 S 
ATOM     20  C   UNL     1      -0.051  11.354  21.206  0.00  0.00    +0.000 A 
ATOM     21  N   UNL     1       0.471  10.082  21.077  0.00  0.00    +0.000 N 
ATOM     22  C   UNL     1       1.048   9.573  19.932  0.00  0.00    +0.000 C 
ATOM     23  O   UNL     1       1.219  10.174  18.876  0.00  0.00    +0.000 OA
ATOM     24  N   UNL     1      -0.342  11.878  22.376  0.00  0.00    +0.000 NA
ATOM     25  H   UNL     1       0.554   9.591  21.955  0.00  0.00    +0.000 HD
ENDBRANCH   1  22
TORSDOF 1
ENDMDL
MODEL 8
REMARK VINA RESULT:      -7.3      4.814      9.481
REMARK  Name = 
REMARK  3 active torsions:
REMARK  status: ('A' for Active; 'I' for Inactive)
REMARK    1  A    between atoms: C_1  and  C_2
REMARK    2  A    between atoms: C_7  and  C_9
REMARK    3  A    between atoms: C_19  and  C_20
REMARK                            x       y       z     vdW  Elec       q    Type
REMARK                         _______ _______ _______ _____ _____    ______ ____
ROOT
ATOM      1  C   UNL     1       1.227   9.339  19.742  0.00  0.00    +0.000 A 
ATOM      2  C   UNL     1       1.836   9.708  18.539  0.00  0.00    +0.000 A 
ATOM      3  C   UNL     1       2.517   8.762  17.756  0.00  0.00    +0.000 A 
ATOM      4  C   UNL     1       2.574   7.437  18.218  0.00  0.00    +0.000 A 
ATOM      5  N   UNL     1       3.191   6.324  17.684  0.00  0.00    +0.000 N 
ATOM      6  C   UNL     1       3.013   5.254  18.514  0.00  0.00    +0.000 A 
ATOM      7  C   UNL     1       2.254   5.657  19.592  0.00  0.00    +0.000 A 
ATOM      8  C   UNL     1       1.975   7.041  19.416  0.00  0.00    +0.000 A 
ATOM      9  C   UNL     1       1.297   8.005  20.184  0.00  0.00    +0.000 A 
ATOM     10  C   UNL     1       1.913   4.755  20.732  0.00  0.00    +0.000 C 
ATOM     11  C   UNL     1       2.364   3.290  20.491  0.00  0.00    +0.000 C 
ATOM     12  C   UNL     1       2.503   2.563  21.829  0.00  0.00    +0.000 C 
ATOM     13  C   UNL     1       3.680   3.190  19.679  0.00  0.00    +0.000 C 
ATOM     14  C   UNL     1       3.566   3.888  18.310  0.00  0.00    +0.000 C 
ATOM     15  H   UNL     1       3.726   6.319  16.825  0.00  0.00    +0.000 HD
ENDROOT
BRANCH   1  22
ATOM     16  C   UNL     1      -4.347  13.802  21.119  0.00  0.00    +0.000 C 
ATOM     17  C   UNL     1      -2.983  13.254  21.341  0.00  0.00    +0.000 A 
ATOM     18  C   UNL     1      -2.153  13.562  22.401  0.00  0.00    +0.000 A 
ATOM     19  S   UNL     1      -0.700  12.675  22.277  0.00  0.00    +0.000 S 
ATOM     20  C   UNL     1      -1.274  11.929  20.852  0.00  0.00    +0.000 A 
ATOM     21  N   UNL     1      -0.531  10.996  20.156  0.00  0.00    +0.000 N 
ATOM     22  C   UNL     1       0.563  10.320  20.655  0.00  0.00    +0.000 C 
ATOM     23  O   UNL     1       1.017  10.413  21.792  0.00  0.00    +0.000 OA
ATOM     24  N   UNL     1      -2.451  12.342  20.434  0.00  0.00    +0.000 NA
ATOM     25  H   UNL     1      -0.957  10.712  19.286  0.00  0.00    +0.000 HD
ENDBRANCH   1  22
TORSDOF 1
ENDMDL
MODEL 9
REMARK VINA RESULT:      -7.3      4.249      8.024
REMARK  Name = 
REMARK  3 active torsions:
REMARK  status: ('A' for Active; 'I' for Inactive)
REMARK    1  A    between atoms: C_1  and  C_2
REMARK    2  A    between atoms: C_7  and  C_9
REMARK    3  A    between atoms: C_19  and  C_20
REMARK                            x       y       z     vdW  Elec       q    Type
REMARK                         _______ _______ _______ _____ _____    ______ ____
ROOT
ATOM      1  C   UNL     1       2.505   8.265  17.910  0.00  0.00    +0.000 A 
ATOM      2  C   UNL     1       3.674   8.201  17.145  0.00  0.00    +0.000 A 
ATOM      3  C   UNL     1       4.446   7.027  17.104  0.00  0.00    +0.000 A 
ATOM      4  C   UNL     1       4.012   5.924  17.857  0.00  0.00    +0.000 A 
ATOM      5  N   UNL     1       4.576   4.676  18.029  0.00  0.00    +0.000 N 
ATOM      6  C   UNL     1       3.816   3.941  18.894  0.00  0.00    +0.000 A 
ATOM      7  C   UNL     1       2.731   4.699  19.277  0.00  0.00    +0.000 A 
ATOM      8  C   UNL     1       2.849   5.960  18.629  0.00  0.00    +0.000 A 
ATOM      9  C   UNL     1       2.092   7.145  18.655  0.00  0.00    +0.000 A 
ATOM     10  C   UNL     1       1.717   4.230  20.267  0.00  0.00    +0.000 C 
ATOM     11  C   UNL     1       1.929   2.750  20.686  0.00  0.00    +0.000 C 
ATOM     12  C   UNL     1       1.266   2.494  22.039  0.00  0.00    +0.000 C 
ATOM     13  C   UNL     1       3.424   2.345  20.727  0.00  0.00    +0.000 C 
ATOM     14  C   UNL     1       4.119   2.564  19.369  0.00  0.00    +0.000 C 
ATOM     15  H   UNL     1       5.443   4.373  17.606  0.00  0.00    +0.000 HD
ENDROOT
BRANCH   1  22
ATOM     16  C   UNL     1       2.250  15.506  18.522  0.00  0.00    +0.000 C 
ATOM     17  C   UNL     1       1.681  14.136  18.596  0.00  0.00    +0.000 A 
ATOM     18  C   UNL     1       0.351  13.823  18.803  0.00  0.00    +0.000 A 
ATOM     19  S   UNL     1       0.142  12.130  18.776  0.00  0.00    +0.000 S 
ATOM     20  C   UNL     1       1.810  11.925  18.469  0.00  0.00    +0.000 A 
ATOM     21  N   UNL     1       2.385  10.680  18.312  0.00  0.00    +0.000 N 
ATOM     22  C   UNL     1       1.694   9.513  18.057  0.00  0.00    +0.000 C 
ATOM     23  O   UNL     1       0.483   9.408  17.893  0.00  0.00    +0.000 OA
ATOM     24  N   UNL     1       2.518  13.033  18.444  0.00  0.00    +0.000 NA
ATOM     25  H   UNL     1       3.391  10.709  18.230  0.00  0.00    +0.000 HD
ENDBRANCH   1  22
TORSDOF 1
ENDMDL
