MODEL 1
REMARK VINA RESULT:      -8.7      0.000      0.000
REMARK  Name = 
REMARK  6 active torsions:
REMARK  status: ('A' for Active; 'I' for Inactive)
REMARK    1  A    between atoms: C_1  and  O_2
REMARK    2  A    between atoms: O_2  and  C_3
REMARK    3  A    between atoms: C_6  and  S_7
REMARK    4  A    between atoms: S_7  and  C_9
REMARK    5  A    between atoms: N_14  and  C_15
REMARK    6  A    between atoms: C_15  and  C_16
REMARK                            x       y       z     vdW  Elec       q    Type
REMARK                         _______ _______ _______ _____ _____    ______ ____
ROOT
ATOM      1  C   UNL     1       0.920   9.755  19.553  0.00  0.00    +0.000 A 
ATOM      2  C   UNL     1       0.797   9.140  20.732  0.00  0.00    +0.000 A 
ATOM      3 CL   UNL     1      -0.022   9.696  22.134  0.00  0.00    +0.000 Cl
ATOM      4  C   UNL     1       1.467   7.836  20.873  0.00  0.00    +0.000 A 
ATOM      5  N   UNL     1       2.183   7.247  19.972  0.00  0.00    +0.000 NA
ATOM      6  N   UNL     1       2.301   7.881  18.758  0.00  0.00    +0.000 N 
ATOM      7  C   UNL     1       1.678   9.088  18.453  0.00  0.00    +0.000 A 
ATOM      8  O   UNL     1       1.752   9.628  17.353  0.00  0.00    +0.000 OA
ENDROOT
BRANCH   1   9
ATOM      9  S   UNL     1       0.349  11.406  19.209  0.00  0.00    +0.000 S 
ATOM     10  O   UNL     1       0.350  12.220  20.552  0.00  0.00    +0.000 OA
BRANCH   9  14
ATOM     11  C   UNL     1      -4.029  10.921  17.807  0.00  0.00    +0.000 A 
ATOM     12  C   UNL     1      -3.700  11.853  18.793  0.00  0.00    +0.000 A 
ATOM     13  C   UNL     1      -2.384  11.976  19.246  0.00  0.00    +0.000 A 
ATOM     14  C   UNL     1      -1.377  11.149  18.736  0.00  0.00    +0.000 A 
ATOM     15  C   UNL     1      -1.713  10.198  17.763  0.00  0.00    +0.000 A 
ATOM     16  C   UNL     1      -3.033  10.083  17.304  0.00  0.00    +0.000 A 
BRANCH  11  18
ATOM     17  C   UNL     1      -6.291  11.095  18.487  0.00  0.00    +0.000 C 
ATOM     18  O   UNL     1      -5.345  10.902  17.440  0.00  0.00    +0.000 OA
ENDBRANCH  11  18
ENDBRANCH   9  14
ENDBRANCH   1   9
BRANCH   6  19
ATOM     19  C   UNL     1       3.206   7.265  17.782  0.00  0.00    +0.000 C 
BRANCH  19  20
ATOM     20  C   UNL     1       3.844   5.972  18.254  0.00  0.00    +0.000 A 
ATOM     21  C   UNL     1       5.190   6.025  18.669  0.00  0.00    +0.000 A 
ATOM     22  C   UNL     1       5.840   4.892  19.146  0.00  0.00    +0.000 A 
ATOM     23  C   UNL     1       5.165   3.676  19.186  0.00  0.00    +0.000 A 
ATOM     24  C   UNL     1       3.836   3.577  18.754  0.00  0.00    +0.000 A 
ATOM     25  C   UNL     1       3.194   2.326  18.768  0.00  0.00    +0.000 A 
ATOM     26  C   UNL     1       1.867   2.197  18.366  0.00  0.00    +0.000 A 
ATOM     27  C   UNL     1       1.159   3.321  17.966  0.00  0.00    +0.000 A 
ATOM     28  C   UNL     1       1.789   4.569  17.931  0.00  0.00    +0.000 A 
ATOM     29  C   UNL     1       3.145   4.731  18.302  0.00  0.00    +0.000 A 
ENDBRANCH  19  20
ENDBRANCH   6  19
TORSDOF 5
ENDMDL
MODEL 2
REMARK VINA RESULT:      -8.4      1.330      2.254
REMARK  Name = 
REMARK  6 active torsions:
REMARK  status: ('A' for Active; 'I' for Inactive)
REMARK    1  A    between atoms: C_1  and  O_2
REMARK    2  A    between atoms: O_2  and  C_3
REMARK    3  A    between atoms: C_6  and  S_7
REMARK    4  A    between atoms: S_7  and  C_9
REMARK    5  A    between atoms: N_14  and  C_15
REMARK    6  A    between atoms: C_15  and  C_16
REMARK                            x       y       z     vdW  Elec       q    Type
REMARK                         _______ _______ _______ _____ _____    ______ ____
ROOT
ATOM      1  C   UNL     1       0.721   9.960  19.450  0.00  0.00    +0.000 A 
ATOM      2  C   UNL     1       0.498   9.271  20.572  0.00  0.00    +0.000 A 
ATOM      3 CL   UNL     1      -0.525   9.689  21.885  0.00  0.00    +0.000 Cl
ATOM      4  C   UNL     1       1.239   8.008  20.733  0.00  0.00    +0.000 A 
ATOM      5  N   UNL     1       2.102   7.521  19.902  0.00  0.00    +0.000 NA
ATOM      6  N   UNL     1       2.321   8.230  18.745  0.00  0.00    +0.000 N 
ATOM      7  C   UNL     1       1.654   9.409  18.424  0.00  0.00    +0.000 A 
ATOM      8  O   UNL     1       1.823  10.015  17.370  0.00  0.00    +0.000 OA
ENDROOT
BRANCH   1   9
ATOM      9  S   UNL     1       0.077  11.587  19.118  0.00  0.00    +0.000 S 
ATOM     10  O   UNL     1       0.183  12.438  20.434  0.00  0.00    +0.000 OA
BRANCH   9  14
ATOM     11  C   UNL     1      -4.398  10.957  18.146  0.00  0.00    +0.000 A 
ATOM     12  C   UNL     1      -4.002  11.937  19.058  0.00  0.00    +0.000 A 
ATOM     13  C   UNL     1      -2.653  12.105  19.383  0.00  0.00    +0.000 A 
ATOM     14  C   UNL     1      -1.678  11.276  18.817  0.00  0.00    +0.000 A 
ATOM     15  C   UNL     1      -2.079  10.277  17.920  0.00  0.00    +0.000 A 
ATOM     16  C   UNL     1      -3.433  10.117  17.589  0.00  0.00    +0.000 A 
BRANCH  11  18
ATOM     17  C   UNL     1      -6.492  10.026  18.742  0.00  0.00    +0.000 C 
ATOM     18  O   UNL     1      -5.741  10.897  17.903  0.00  0.00    +0.000 OA
ENDBRANCH  11  18
ENDBRANCH   9  14
ENDBRANCH   1   9
BRANCH   6  19
ATOM     19  C   UNL     1       3.382   7.732  17.862  0.00  0.00    +0.000 C 
BRANCH  19  20
ATOM     20  C   UNL     1       3.339   6.236  17.620  0.00  0.00    +0.000 A 
ATOM     21  C   UNL     1       2.193   5.540  18.053  0.00  0.00    +0.000 A 
ATOM     22  C   UNL     1       2.060   4.172  17.841  0.00  0.00    +0.000 A 
ATOM     23  C   UNL     1       3.087   3.468  17.222  0.00  0.00    +0.000 A 
ATOM     24  C   UNL     1       4.255   4.118  16.804  0.00  0.00    +0.000 A 
ATOM     25  C   UNL     1       5.293   3.373  16.219  0.00  0.00    +0.000 A 
ATOM     26  C   UNL     1       6.458   3.992  15.773  0.00  0.00    +0.000 A 
ATOM     27  C   UNL     1       6.590   5.369  15.888  0.00  0.00    +0.000 A 
ATOM     28  C   UNL     1       5.574   6.121  16.484  0.00  0.00    +0.000 A 
ATOM     29  C   UNL     1       4.390   5.521  16.976  0.00  0.00    +0.000 A 
ENDBRANCH  19  20
ENDBRANCH   6  19
TORSDOF 5
ENDMDL
MODEL 3
REMARK VINA RESULT:      -8.3      1.482      2.097
REMARK  Name = 
REMARK  6 active torsions:
REMARK  status: ('A' for Active; 'I' for Inactive)
REMARK    1  A    between atoms: C_1  and  O_2
REMARK    2  A    between atoms: O_2  and  C_3
REMARK    3  A    between atoms: C_6  and  S_7
REMARK    4  A    between atoms: S_7  and  C_9
REMARK    5  A    between atoms: N_14  and  C_15
REMARK    6  A    between atoms: C_15  and  C_16
REMARK                            x       y       z     vdW  Elec       q    Type
REMARK                         _______ _______ _______ _____ _____    ______ ____
ROOT
ATOM      1  C   UNL     1       0.456   9.964  19.753  0.00  0.00    +0.000 A 
ATOM      2  C   UNL     1       0.120   9.851  21.041  0.00  0.00    +0.000 A 
ATOM      3 CL   UNL     1      -0.879  10.893  21.969  0.00  0.00    +0.000 Cl
ATOM      4  C   UNL     1       0.694   8.712  21.778  0.00  0.00    +0.000 A 
ATOM      5  N   UNL     1       1.511   7.831  21.302  0.00  0.00    +0.000 NA
ATOM      6  N   UNL     1       1.848   7.948  19.974  0.00  0.00    +0.000 N 
ATOM      7  C   UNL     1       1.342   8.935  19.133  0.00  0.00    +0.000 A 
ATOM      8  O   UNL     1       1.613   9.009  17.938  0.00  0.00    +0.000 OA
ENDROOT
BRANCH   1   9
ATOM      9  S   UNL     1       0.028  11.345  18.715  0.00  0.00    +0.000 S 
ATOM     10  O   UNL     1       0.246  12.667  19.535  0.00  0.00    +0.000 OA
BRANCH   9  14
ATOM     11  C   UNL     1      -4.507  10.974  17.904  0.00  0.00    +0.000 A 
ATOM     12  C   UNL     1      -4.014  11.997  18.716  0.00  0.00    +0.000 A 
ATOM     13  C   UNL     1      -2.648  12.090  18.994  0.00  0.00    +0.000 A 
ATOM     14  C   UNL     1      -1.753  11.143  18.482  0.00  0.00    +0.000 A 
ATOM     15  C   UNL     1      -2.252  10.104  17.687  0.00  0.00    +0.000 A 
ATOM     16  C   UNL     1      -3.623  10.019  17.402  0.00  0.00    +0.000 A 
BRANCH  11  18
ATOM     17  C   UNL     1      -6.666  10.558  18.785  0.00  0.00    +0.000 C 
ATOM     18  O   UNL     1      -5.858  10.995  17.698  0.00  0.00    +0.000 OA
ENDBRANCH  11  18
ENDBRANCH   9  14
ENDBRANCH   1   9
BRANCH   6  19
ATOM     19  C   UNL     1       2.862   7.015  19.471  0.00  0.00    +0.000 C 
BRANCH  19  20
ATOM     20  C   UNL     1       2.308   5.678  19.018  0.00  0.00    +0.000 A 
ATOM     21  C   UNL     1       1.975   5.540  17.656  0.00  0.00    +0.000 A 
ATOM     22  C   UNL     1       1.491   4.337  17.152  0.00  0.00    +0.000 A 
ATOM     23  C   UNL     1       1.300   3.259  18.010  0.00  0.00    +0.000 A 
ATOM     24  C   UNL     1       1.591   3.366  19.376  0.00  0.00    +0.000 A 
ATOM     25  C   UNL     1       1.348   2.272  20.225  0.00  0.00    +0.000 A 
ATOM     26  C   UNL     1       1.647   2.338  21.583  0.00  0.00    +0.000 A 
ATOM     27  C   UNL     1       2.213   3.492  22.106  0.00  0.00    +0.000 A 
ATOM     28  C   UNL     1       2.444   4.595  21.277  0.00  0.00    +0.000 A 
ATOM     29  C   UNL     1       2.123   4.573  19.899  0.00  0.00    +0.000 A 
ENDBRANCH  19  20
ENDBRANCH   6  19
TORSDOF 5
ENDMDL
MODEL 4
REMARK VINA RESULT:      -8.2      1.279      1.919
REMARK  Name = 
REMARK  6 active torsions:
REMARK  status: ('A' for Active; 'I' for Inactive)
REMARK    1  A    between atoms: C_1  and  O_2
REMARK    2  A    between atoms: O_2  and  C_3
REMARK    3  A    between atoms: C_6  and  S_7
REMARK    4  A    between atoms: S_7  and  C_9
REMARK    5  A    between atoms: N_14  and  C_15
REMARK    6  A    between atoms: C_15  and  C_16
REMARK                            x       y       z     vdW  Elec       q    Type
REMARK                         _______ _______ _______ _____ _____    ______ ____
ROOT
ATOM      1  C   UNL     1       0.492  10.143  19.831  0.00  0.00    +0.000 A 
ATOM      2  C   UNL     1       0.252  10.049  21.142  0.00  0.00    +0.000 A 
ATOM      3 CL   UNL     1      -0.655  11.119  22.130  0.00  0.00    +0.000 Cl
ATOM      4  C   UNL     1       0.860   8.907  21.847  0.00  0.00    +0.000 A 
ATOM      5  N   UNL     1       1.623   8.007  21.321  0.00  0.00    +0.000 NA
ATOM      6  N   UNL     1       1.861   8.104  19.971  0.00  0.00    +0.000 N 
ATOM      7  C   UNL     1       1.311   9.091  19.158  0.00  0.00    +0.000 A 
ATOM      8  O   UNL     1       1.493   9.148  17.945  0.00  0.00    +0.000 OA
ENDROOT
BRANCH   1   9
ATOM      9  S   UNL     1       0.012  11.521  18.812  0.00  0.00    +0.000 S 
ATOM     10  O   UNL     1       0.151  12.836  19.660  0.00  0.00    +0.000 OA
BRANCH   9  14
ATOM     11  C   UNL     1      -4.491  10.960  17.935  0.00  0.00    +0.000 A 
ATOM     12  C   UNL     1      -4.064  11.911  18.864  0.00  0.00    +0.000 A 
ATOM     13  C   UNL     1      -2.705  12.057  19.159  0.00  0.00    +0.000 A 
ATOM     14  C   UNL     1      -1.753  11.235  18.546  0.00  0.00    +0.000 A 
ATOM     15  C   UNL     1      -2.185  10.266  17.632  0.00  0.00    +0.000 A 
ATOM     16  C   UNL     1      -3.549  10.128  17.330  0.00  0.00    +0.000 A 
BRANCH  11  18
ATOM     17  C   UNL     1      -6.660  11.001  18.885  0.00  0.00    +0.000 C 
ATOM     18  O   UNL     1      -5.841  10.919  17.724  0.00  0.00    +0.000 OA
ENDBRANCH  11  18
ENDBRANCH   9  14
ENDBRANCH   1   9
BRANCH   6  19
ATOM     19  C   UNL     1       2.818   7.148  19.403  0.00  0.00    +0.000 C 
BRANCH  19  20
ATOM     20  C   UNL     1       2.366   5.701  19.468  0.00  0.00    +0.000 A 
ATOM     21  C   UNL     1       1.406   5.363  20.442  0.00  0.00    +0.000 A 
ATOM     22  C   UNL     1       0.914   4.067  20.548  0.00  0.00    +0.000 A 
ATOM     23  C   UNL     1       1.398   3.076  19.702  0.00  0.00    +0.000 A 
ATOM     24  C   UNL     1       2.375   3.365  18.740  0.00  0.00    +0.000 A 
ATOM     25  C   UNL     1       2.876   2.333  17.927  0.00  0.00    +0.000 A 
ATOM     26  C   UNL     1       3.831   2.591  16.947  0.00  0.00    +0.000 A 
ATOM     27  C   UNL     1       4.281   3.890  16.753  0.00  0.00    +0.000 A 
ATOM     28  C   UNL     1       3.806   4.923  17.565  0.00  0.00    +0.000 A 
ATOM     29  C   UNL     1       2.859   4.691  18.592  0.00  0.00    +0.000 A 
ENDBRANCH  19  20
ENDBRANCH   6  19
TORSDOF 5
ENDMDL
MODEL 5
REMARK VINA RESULT:      -8.2      1.031      2.375
REMARK  Name = 
REMARK  6 active torsions:
REMARK  status: ('A' for Active; 'I' for Inactive)
REMARK    1  A    between atoms: C_1  and  O_2
REMARK    2  A    between atoms: O_2  and  C_3
REMARK    3  A    between atoms: C_6  and  S_7
REMARK    4  A    between atoms: S_7  and  C_9
REMARK    5  A    between atoms: N_14  and  C_15
REMARK    6  A    between atoms: C_15  and  C_16
REMARK                            x       y       z     vdW  Elec       q    Type
REMARK                         _______ _______ _______ _____ _____    ______ ____
ROOT
ATOM      1  C   UNL     1       0.727   9.918  19.818  0.00  0.00    +0.000 A 
ATOM      2  C   UNL     1       0.662   9.127  20.893  0.00  0.00    +0.000 A 
ATOM      3 CL   UNL     1      -0.153   9.420  22.374  0.00  0.00    +0.000 Cl
ATOM      4  C   UNL     1       1.401   7.855  20.825  0.00  0.00    +0.000 A 
ATOM      5  N   UNL     1       2.126   7.447  19.836  0.00  0.00    +0.000 NA
ATOM      6  N   UNL     1       2.184   8.262  18.730  0.00  0.00    +0.000 N 
ATOM      7  C   UNL     1       1.494   9.466  18.620  0.00  0.00    +0.000 A 
ATOM      8  O   UNL     1       1.516  10.168  17.613  0.00  0.00    +0.000 OA
ENDROOT
BRANCH   1   9
ATOM      9  S   UNL     1       0.064  11.568  19.736  0.00  0.00    +0.000 S 
ATOM     10  O   UNL     1      -0.032  12.136  21.197  0.00  0.00    +0.000 OA
BRANCH   9  14
ATOM     11  C   UNL     1      -4.200  11.035  18.035  0.00  0.00    +0.000 A 
ATOM     12  C   UNL     1      -3.928  12.044  18.960  0.00  0.00    +0.000 A 
ATOM     13  C   UNL     1      -2.649  12.184  19.506  0.00  0.00    +0.000 A 
ATOM     14  C   UNL     1      -1.625  11.299  19.151  0.00  0.00    +0.000 A 
ATOM     15  C   UNL     1      -1.905  10.273  18.239  0.00  0.00    +0.000 A 
ATOM     16  C   UNL     1      -3.188  10.140  17.687  0.00  0.00    +0.000 A 
BRANCH  11  18
ATOM     17  C   UNL     1      -6.119  12.269  17.397  0.00  0.00    +0.000 C 
ATOM     18  O   UNL     1      -5.484  11.006  17.567  0.00  0.00    +0.000 OA
ENDBRANCH  11  18
ENDBRANCH   9  14
ENDBRANCH   1   9
BRANCH   6  19
ATOM     19  C   UNL     1       3.098   7.849  17.659  0.00  0.00    +0.000 C 
BRANCH  19  20
ATOM     20  C   UNL     1       3.502   6.388  17.714  0.00  0.00    +0.000 A 
ATOM     21  C   UNL     1       2.474   5.434  17.846  0.00  0.00    +0.000 A 
ATOM     22  C   UNL     1       2.756   4.072  17.872  0.00  0.00    +0.000 A 
ATOM     23  C   UNL     1       4.075   3.641  17.800  0.00  0.00    +0.000 A 
ATOM     24  C   UNL     1       5.128   4.559  17.699  0.00  0.00    +0.000 A 
ATOM     25  C   UNL     1       6.454   4.095  17.670  0.00  0.00    +0.000 A 
ATOM     26  C   UNL     1       7.522   4.980  17.547  0.00  0.00    +0.000 A 
ATOM     27  C   UNL     1       7.276   6.341  17.430  0.00  0.00    +0.000 A 
ATOM     28  C   UNL     1       5.963   6.819  17.475  0.00  0.00    +0.000 A 
ATOM     29  C   UNL     1       4.856   5.951  17.630  0.00  0.00    +0.000 A 
ENDBRANCH  19  20
ENDBRANCH   6  19
TORSDOF 5
ENDMDL
MODEL 6
REMARK VINA RESULT:      -8.2      0.887      1.004
REMARK  Name = 
REMARK  6 active torsions:
REMARK  status: ('A' for Active; 'I' for Inactive)
REMARK    1  A    between atoms: C_1  and  O_2
REMARK    2  A    between atoms: O_2  and  C_3
REMARK    3  A    between atoms: C_6  and  S_7
REMARK    4  A    between atoms: S_7  and  C_9
REMARK    5  A    between atoms: N_14  and  C_15
REMARK    6  A    between atoms: C_15  and  C_16
REMARK                            x       y       z     vdW  Elec       q    Type
REMARK                         _______ _______ _______ _____ _____    ______ ____
ROOT
ATOM      1  C   UNL     1       1.143   9.885  19.821  0.00  0.00    +0.000 A 
ATOM      2  C   UNL     1       0.956   9.209  20.957  0.00  0.00    +0.000 A 
ATOM      3 CL   UNL     1       0.285   9.779  22.430  0.00  0.00    +0.000 Cl
ATOM      4  C   UNL     1       1.403   7.805  20.974  0.00  0.00    +0.000 A 
ATOM      5  N   UNL     1       1.983   7.179  20.004  0.00  0.00    +0.000 NA
ATOM      6  N   UNL     1       2.166   7.878  18.834  0.00  0.00    +0.000 N 
ATOM      7  C   UNL     1       1.745   9.191  18.644  0.00  0.00    +0.000 A 
ATOM      8  O   UNL     1       1.874   9.796  17.584  0.00  0.00    +0.000 OA
ENDROOT
BRANCH   1   9
ATOM      9  S   UNL     1       0.845  11.629  19.622  0.00  0.00    +0.000 S 
ATOM     10  O   UNL     1       1.272  12.358  20.946  0.00  0.00    +0.000 OA
BRANCH   9  14
ATOM     11  C   UNL     1      -3.735  12.092  19.207  0.00  0.00    +0.000 A 
ATOM     12  C   UNL     1      -3.070  12.608  20.320  0.00  0.00    +0.000 A 
ATOM     13  C   UNL     1      -1.690  12.437  20.467  0.00  0.00    +0.000 A 
ATOM     14  C   UNL     1      -0.957  11.723  19.513  0.00  0.00    +0.000 A 
ATOM     15  C   UNL     1      -1.630  11.186  18.408  0.00  0.00    +0.000 A 
ATOM     16  C   UNL     1      -3.014  11.367  18.258  0.00  0.00    +0.000 A 
BRANCH  11  18
ATOM     17  C   UNL     1      -5.610  13.100  20.246  0.00  0.00    +0.000 C 
ATOM     18  O   UNL     1      -5.080  12.332  19.171  0.00  0.00    +0.000 OA
ENDBRANCH  11  18
ENDBRANCH   9  14
ENDBRANCH   1   9
BRANCH   6  19
ATOM     19  C   UNL     1       2.926   7.200  17.777  0.00  0.00    +0.000 C 
BRANCH  19  20
ATOM     20  C   UNL     1       3.683   5.972  18.246  0.00  0.00    +0.000 A 
ATOM     21  C   UNL     1       5.041   6.135  18.583  0.00  0.00    +0.000 A 
ATOM     22  C   UNL     1       5.799   5.067  19.052  0.00  0.00    +0.000 A 
ATOM     23  C   UNL     1       5.220   3.807  19.159  0.00  0.00    +0.000 A 
ATOM     24  C   UNL     1       3.881   3.598  18.805  0.00  0.00    +0.000 A 
ATOM     25  C   UNL     1       3.336   2.305  18.885  0.00  0.00    +0.000 A 
ATOM     26  C   UNL     1       2.003   2.067  18.561  0.00  0.00    +0.000 A 
ATOM     27  C   UNL     1       1.192   3.124  18.174  0.00  0.00    +0.000 A 
ATOM     28  C   UNL     1       1.724   4.413  18.073  0.00  0.00    +0.000 A 
ATOM     29  C   UNL     1       3.082   4.685  18.363  0.00  0.00    +0.000 A 
ENDBRANCH  19  20
ENDBRANCH   6  19
TORSDOF 5
ENDMDL
MODEL 7
REMARK VINA RESULT:      -8.1      1.576      2.664
REMARK  Name = 
REMARK  6 active torsions:
REMARK  status: ('A' for Active; 'I' for Inactive)
REMARK    1  A    between atoms: C_1  and  O_2
REMARK    2  A    between atoms: O_2  and  C_3
REMARK    3  A    between atoms: C_6  and  S_7
REMARK    4  A    between atoms: S_7  and  C_9
REMARK    5  A    between atoms: N_14  and  C_15
REMARK    6  A    between atoms: C_15  and  C_16
REMARK                            x       y       z     vdW  Elec       q    Type
REMARK                         _______ _______ _______ _____ _____    ______ ____
ROOT
ATOM      1  C   UNL     1       0.454   9.654  20.077  0.00  0.00    +0.000 A 
ATOM      2  C   UNL     1       0.392   8.848  21.140  0.00  0.00    +0.000 A 
ATOM      3 CL   UNL     1      -0.525   9.059  22.575  0.00  0.00    +0.000 Cl
ATOM      4  C   UNL     1       1.232   7.639  21.104  0.00  0.00    +0.000 A 
ATOM      5  N   UNL     1       2.041   7.301  20.155  0.00  0.00    +0.000 NA
ATOM      6  N   UNL     1       2.095   8.130  19.059  0.00  0.00    +0.000 N 
ATOM      7  C   UNL     1       1.319   9.278  18.920  0.00  0.00    +0.000 A 
ATOM      8  O   UNL     1       1.341   9.992  17.921  0.00  0.00    +0.000 OA
ENDROOT
BRANCH   1   9
ATOM      9  S   UNL     1      -0.331  11.249  19.970  0.00  0.00    +0.000 S 
ATOM     10  O   UNL     1      -1.131  11.496  21.299  0.00  0.00    +0.000 OA
BRANCH   9  14
ATOM     11  C   UNL     1      -3.249  10.516  16.461  0.00  0.00    +0.000 A 
ATOM     12  C   UNL     1      -2.440  11.653  16.483  0.00  0.00    +0.000 A 
ATOM     13  C   UNL     1      -1.584  11.897  17.561  0.00  0.00    +0.000 A 
ATOM     14  C   UNL     1      -1.543  11.017  18.648  0.00  0.00    +0.000 A 
ATOM     15  C   UNL     1      -2.373   9.888  18.635  0.00  0.00    +0.000 A 
ATOM     16  C   UNL     1      -3.224   9.641  17.548  0.00  0.00    +0.000 A 
BRANCH  11  18
ATOM     17  C   UNL     1      -3.360  10.053  14.141  0.00  0.00    +0.000 C 
ATOM     18  O   UNL     1      -4.035  10.382  15.350  0.00  0.00    +0.000 OA
ENDBRANCH  11  18
ENDBRANCH   9  14
ENDBRANCH   1   9
BRANCH   6  19
ATOM     19  C   UNL     1       3.097   7.804  18.038  0.00  0.00    +0.000 C 
BRANCH  19  20
ATOM     20  C   UNL     1       3.196   6.325  17.715  0.00  0.00    +0.000 A 
ATOM     21  C   UNL     1       2.069   5.524  17.984  0.00  0.00    +0.000 A 
ATOM     22  C   UNL     1       2.064   4.165  17.687  0.00  0.00    +0.000 A 
ATOM     23  C   UNL     1       3.201   3.576  17.146  0.00  0.00    +0.000 A 
ATOM     24  C   UNL     1       4.353   4.332  16.891  0.00  0.00    +0.000 A 
ATOM     25  C   UNL     1       5.500   3.700  16.383  0.00  0.00    +0.000 A 
ATOM     26  C   UNL     1       6.653   4.427  16.098  0.00  0.00    +0.000 A 
ATOM     27  C   UNL     1       6.666   5.800  16.299  0.00  0.00    +0.000 A 
ATOM     28  C   UNL     1       5.538   6.440  16.821  0.00  0.00    +0.000 A 
ATOM     29  C   UNL     1       4.360   5.728  17.151  0.00  0.00    +0.000 A 
ENDBRANCH  19  20
ENDBRANCH   6  19
TORSDOF 5
ENDMDL
MODEL 8
REMARK VINA RESULT:      -7.9      1.092      1.295
REMARK  Name = 
REMARK  6 active torsions:
REMARK  status: ('A' for Active; 'I' for Inactive)
REMARK    1  A    between atoms: C_1  and  O_2
REMARK    2  A    between atoms: O_2  and  C_3
REMARK    3  A    between atoms: C_6  and  S_7
REMARK    4  A    between atoms: S_7  and  C_9
REMARK    5  A    between atoms: N_14  and  C_15
REMARK    6  A    between atoms: C_15  and  C_16
REMARK                            x       y       z     vdW  Elec       q    Type
REMARK                         _______ _______ _______ _____ _____    ______ ____
ROOT
ATOM      1  C   UNL     1       0.879   9.654  19.735  0.00  0.00    +0.000 A 
ATOM      2  C   UNL     1       0.799   8.949  20.866  0.00  0.00    +0.000 A 
ATOM      3 CL   UNL     1      -0.016   9.365  22.318  0.00  0.00    +0.000 Cl
ATOM      4  C   UNL     1       1.520   7.664  20.899  0.00  0.00    +0.000 A 
ATOM      5  N   UNL     1       2.242   7.173  19.946  0.00  0.00    +0.000 NA
ATOM      6  N   UNL     1       2.315   7.900  18.781  0.00  0.00    +0.000 N 
ATOM      7  C   UNL     1       1.642   9.101  18.578  0.00  0.00    +0.000 A 
ATOM      8  O   UNL     1       1.677   9.725  17.520  0.00  0.00    +0.000 OA
ENDROOT
BRANCH   1   9
ATOM      9  S   UNL     1       0.240  11.303  19.525  0.00  0.00    +0.000 S 
ATOM     10  O   UNL     1      -0.333  11.791  20.904  0.00  0.00    +0.000 OA
BRANCH   9  14
ATOM     11  C   UNL     1      -3.195  10.535  16.530  0.00  0.00    +0.000 A 
ATOM     12  C   UNL     1      -2.413  11.686  16.430  0.00  0.00    +0.000 A 
ATOM     13  C   UNL     1      -1.398  11.941  17.356  0.00  0.00    +0.000 A 
ATOM     14  C   UNL     1      -1.166  11.056  18.415  0.00  0.00    +0.000 A 
ATOM     15  C   UNL     1      -1.967   9.912  18.528  0.00  0.00    +0.000 A 
ATOM     16  C   UNL     1      -2.979   9.655  17.591  0.00  0.00    +0.000 A 
BRANCH  11  18
ATOM     17  C   UNL     1      -3.671  10.130  14.245  0.00  0.00    +0.000 C 
ATOM     18  O   UNL     1      -4.148  10.393  15.560  0.00  0.00    +0.000 OA
ENDBRANCH  11  18
ENDBRANCH   9  14
ENDBRANCH   1   9
BRANCH   6  19
ATOM     19  C   UNL     1       3.226   7.394  17.749  0.00  0.00    +0.000 C 
BRANCH  19  20
ATOM     20  C   UNL     1       3.933   6.104  18.120  0.00  0.00    +0.000 A 
ATOM     21  C   UNL     1       5.299   6.184  18.453  0.00  0.00    +0.000 A 
ATOM     22  C   UNL     1       6.013   5.054  18.836  0.00  0.00    +0.000 A 
ATOM     23  C   UNL     1       5.382   3.816  18.860  0.00  0.00    +0.000 A 
ATOM     24  C   UNL     1       4.032   3.690  18.506  0.00  0.00    +0.000 A 
ATOM     25  C   UNL     1       3.432   2.419  18.500  0.00  0.00    +0.000 A 
ATOM     26  C   UNL     1       2.087   2.262  18.174  0.00  0.00    +0.000 A 
ATOM     27  C   UNL     1       1.320   3.378  17.872  0.00  0.00    +0.000 A 
ATOM     28  C   UNL     1       1.907   4.647  17.857  0.00  0.00    +0.000 A 
ATOM     29  C   UNL     1       3.277   4.839  18.152  0.00  0.00    +0.000 A 
ENDBRANCH  19  20
ENDBRANCH   6  19
TORSDOF 5
ENDMDL
MODEL 9
REMARK VINA RESULT:      -7.8      2.711      4.501
REMARK  Name = 
REMARK  6 active torsions:
REMARK  status: ('A' for Active; 'I' for Inactive)
REMARK    1  A    between atoms: C_1  and  O_2
REMARK    2  A    between atoms: O_2  and  C_3
REMARK    3  A    between atoms: C_6  and  S_7
REMARK    4  A    between atoms: S_7  and  C_9
REMARK    5  A    between atoms: N_14  and  C_15
REMARK    6  A    between atoms: C_15  and  C_16
REMARK                            x       y       z     vdW  Elec       q    Type
REMARK                         _______ _______ _______ _____ _____    ______ ____
ROOT
ATOM      1  C   UNL     1       0.354   9.688  20.019  0.00  0.00    +0.000 A 
ATOM      2  C   UNL     1       0.402   8.972  21.145  0.00  0.00    +0.000 A 
ATOM      3 CL   UNL     1      -0.454   9.242  22.608  0.00  0.00    +0.000 Cl
ATOM      4  C   UNL     1       1.321   7.821  21.160  0.00  0.00    +0.000 A 
ATOM      5  N   UNL     1       2.103   7.458  20.197  0.00  0.00    +0.000 NA
ATOM      6  N   UNL     1       2.044   8.194  19.037  0.00  0.00    +0.000 N 
ATOM      7  C   UNL     1       1.185   9.273  18.850  0.00  0.00    +0.000 A 
ATOM      8  O   UNL     1       1.107   9.900  17.797  0.00  0.00    +0.000 OA
ENDROOT
BRANCH   1   9
ATOM      9  S   UNL     1      -0.544  11.213  19.828  0.00  0.00    +0.000 S 
ATOM     10  O   UNL     1      -1.324  11.160  18.466  0.00  0.00    +0.000 OA
BRANCH   9  14
ATOM     11  C   UNL     1       2.659  14.527  19.479  0.00  0.00    +0.000 A 
ATOM     12  C   UNL     1       1.777  14.282  18.426  0.00  0.00    +0.000 A 
ATOM     13  C   UNL     1       0.831  13.255  18.513  0.00  0.00    +0.000 A 
ATOM     14  C   UNL     1       0.771  12.440  19.649  0.00  0.00    +0.000 A 
ATOM     15  C   UNL     1       1.673  12.672  20.696  0.00  0.00    +0.000 A 
ATOM     16  C   UNL     1       2.614  13.709  20.609  0.00  0.00    +0.000 A 
BRANCH  11  18
ATOM     17  C   UNL     1       3.894  15.824  17.930  0.00  0.00    +0.000 C 
ATOM     18  O   UNL     1       3.529  15.562  19.280  0.00  0.00    +0.000 OA
ENDBRANCH  11  18
ENDBRANCH   9  14
ENDBRANCH   1   9
BRANCH   6  19
ATOM     19  C   UNL     1       3.014   7.849  17.992  0.00  0.00    +0.000 C 
BRANCH  19  20
ATOM     20  C   UNL     1       3.123   6.362  17.711  0.00  0.00    +0.000 A 
ATOM     21  C   UNL     1       1.993   5.565  17.980  0.00  0.00    +0.000 A 
ATOM     22  C   UNL     1       1.998   4.199  17.721  0.00  0.00    +0.000 A 
ATOM     23  C   UNL     1       3.147   3.598  17.219  0.00  0.00    +0.000 A 
ATOM     24  C   UNL     1       4.301   4.350  16.966  0.00  0.00    +0.000 A 
ATOM     25  C   UNL     1       5.460   3.708  16.498  0.00  0.00    +0.000 A 
ATOM     26  C   UNL     1       6.617   4.430  16.217  0.00  0.00    +0.000 A 
ATOM     27  C   UNL     1       6.622   5.809  16.380  0.00  0.00    +0.000 A 
ATOM     28  C   UNL     1       5.482   6.460  16.861  0.00  0.00    +0.000 A 
ATOM     29  C   UNL     1       4.300   5.753  17.187  0.00  0.00    +0.000 A 
ENDBRANCH  19  20
ENDBRANCH   6  19
TORSDOF 5
ENDMDL
