MODEL 1
REMARK VINA RESULT:      -6.8      0.000      0.000
REMARK  Name = 
REMARK  2 active torsions:
REMARK  status: ('A' for Active; 'I' for Inactive)
REMARK    1  A    between atoms: C_11  and  C_12
REMARK    2  A    between atoms: C_12  and  N_13
REMARK                            x       y       z     vdW  Elec       q    Type
REMARK                         _______ _______ _______ _____ _____    ______ ____
ROOT
ATOM      1  O   UNL     1       3.549   3.806  16.586  0.00  0.00    +0.000 OA
ATOM      2  C   UNL     1       3.356   4.466  17.601  0.00  0.00    +0.000 C 
ATOM      3  C   UNL     1       2.455   3.965  18.665  0.00  0.00    +0.000 A 
ATOM      4  C   UNL     1       2.204   2.593  18.763  0.00  0.00    +0.000 A 
ATOM      5  C   UNL     1       1.425   2.106  19.810  0.00  0.00    +0.000 A 
ATOM      6  C   UNL     1       0.884   2.990  20.743  0.00  0.00    +0.000 A 
ATOM      7  C   UNL     1       1.124   4.363  20.636  0.00  0.00    +0.000 A 
ATOM      8  C   UNL     1       1.912   4.871  19.596  0.00  0.00    +0.000 A 
ATOM      9  C   UNL     1       2.211   6.348  19.537  0.00  0.00    +0.000 C 
ATOM     10  C   UNL     1       2.930   6.786  18.256  0.00  0.00    +0.000 C 
ATOM     11  C   UNL     1       4.036   5.790  17.904  0.00  0.00    +0.000 C 
ENDROOT
BRANCH  11  12
ATOM     12  C   UNL     1       4.925   6.228  16.730  0.00  0.00    +0.000 C 
BRANCH  12  13
ATOM     13  N   UNL     1       6.338   6.509  17.080  0.00  0.00    +0.000 NA
ATOM     14  C   UNL     1       6.600   7.953  17.213  0.00  0.00    +0.000 C 
ATOM     15  C   UNL     1       8.046   8.242  17.619  0.00  0.00    +0.000 C 
ATOM     16  C   UNL     1       8.414   7.519  18.907  0.00  0.00    +0.000 C 
ATOM     17  C   UNL     1       8.113   6.034  18.769  0.00  0.00    +0.000 C 
ATOM     18  C   UNL     1       6.664   5.804  18.337  0.00  0.00    +0.000 C 
ENDBRANCH  12  13
ENDBRANCH  11  12
TORSDOF 2
ENDMDL
MODEL 2
REMARK VINA RESULT:      -6.7      2.559      4.032
REMARK  Name = 
REMARK  2 active torsions:
REMARK  status: ('A' for Active; 'I' for Inactive)
REMARK    1  A    between atoms: C_11  and  C_12
REMARK    2  A    between atoms: C_12  and  N_13
REMARK                            x       y       z     vdW  Elec       q    Type
REMARK                         _______ _______ _______ _____ _____    ______ ____
ROOT
ATOM      1  O   UNL     1       2.102   5.806  20.285  0.00  0.00    +0.000 OA
ATOM      2  C   UNL     1       2.248   6.869  19.692  0.00  0.00    +0.000 C 
ATOM      3  C   UNL     1       1.612   8.108  20.198  0.00  0.00    +0.000 A 
ATOM      4  C   UNL     1       1.260   8.197  21.548  0.00  0.00    +0.000 A 
ATOM      5  C   UNL     1       0.738   9.387  22.049  0.00  0.00    +0.000 A 
ATOM      6  C   UNL     1       0.551  10.476  21.199  0.00  0.00    +0.000 A 
ATOM      7  C   UNL     1       0.890  10.382  19.847  0.00  0.00    +0.000 A 
ATOM      8  C   UNL     1       1.425   9.197  19.326  0.00  0.00    +0.000 A 
ATOM      9  C   UNL     1       1.844   9.138  17.878  0.00  0.00    +0.000 C 
ATOM     10  C   UNL     1       2.242   7.737  17.402  0.00  0.00    +0.000 C 
ATOM     11  C   UNL     1       3.112   7.049  18.455  0.00  0.00    +0.000 C 
ENDROOT
BRANCH  11  12
ATOM     12  C   UNL     1       3.701   5.704  18.002  0.00  0.00    +0.000 C 
BRANCH  12  13
ATOM     13  N   UNL     1       5.180   5.669  17.894  0.00  0.00    +0.000 NA
ATOM     14  C   UNL     1       5.718   6.877  17.243  0.00  0.00    +0.000 C 
ATOM     15  C   UNL     1       7.245   6.862  17.172  0.00  0.00    +0.000 C 
ATOM     16  C   UNL     1       7.862   6.690  18.553  0.00  0.00    +0.000 C 
ATOM     17  C   UNL     1       7.279   5.456  19.227  0.00  0.00    +0.000 C 
ATOM     18  C   UNL     1       5.751   5.511  19.247  0.00  0.00    +0.000 C 
ENDBRANCH  12  13
ENDBRANCH  11  12
TORSDOF 2
ENDMDL
MODEL 3
REMARK VINA RESULT:      -6.6      2.809      4.456
REMARK  Name = 
REMARK  2 active torsions:
REMARK  status: ('A' for Active; 'I' for Inactive)
REMARK    1  A    between atoms: C_11  and  C_12
REMARK    2  A    between atoms: C_12  and  N_13
REMARK                            x       y       z     vdW  Elec       q    Type
REMARK                         _______ _______ _______ _____ _____    ______ ____
ROOT
ATOM      1  O   UNL     1       1.862   6.003  20.544  0.00  0.00    +0.000 OA
ATOM      2  C   UNL     1       2.034   7.054  19.937  0.00  0.00    +0.000 C 
ATOM      3  C   UNL     1       1.382   8.304  20.395  0.00  0.00    +0.000 A 
ATOM      4  C   UNL     1       0.979   8.419  21.729  0.00  0.00    +0.000 A 
ATOM      5  C   UNL     1       0.441   9.620  22.186  0.00  0.00    +0.000 A 
ATOM      6  C   UNL     1       0.290  10.693  21.309  0.00  0.00    +0.000 A 
ATOM      7  C   UNL     1       0.681  10.572  19.973  0.00  0.00    +0.000 A 
ATOM      8  C   UNL     1       1.232   9.376  19.495  0.00  0.00    +0.000 A 
ATOM      9  C   UNL     1       1.707   9.289  18.066  0.00  0.00    +0.000 C 
ATOM     10  C   UNL     1       2.119   7.878  17.633  0.00  0.00    +0.000 C 
ATOM     11  C   UNL     1       2.946   7.208  18.732  0.00  0.00    +0.000 C 
ENDROOT
BRANCH  11  12
ATOM     12  C   UNL     1       3.549   5.854  18.328  0.00  0.00    +0.000 C 
BRANCH  12  13
ATOM     13  N   UNL     1       4.986   5.887  17.964  0.00  0.00    +0.000 NA
ATOM     14  C   UNL     1       5.851   5.479  19.086  0.00  0.00    +0.000 C 
ATOM     15  C   UNL     1       7.331   5.468  18.698  0.00  0.00    +0.000 C 
ATOM     16  C   UNL     1       7.580   4.577  17.490  0.00  0.00    +0.000 C 
ATOM     17  C   UNL     1       6.662   4.989  16.348  0.00  0.00    +0.000 C 
ATOM     18  C   UNL     1       5.200   5.007  16.797  0.00  0.00    +0.000 C 
ENDBRANCH  12  13
ENDBRANCH  11  12
TORSDOF 2
ENDMDL
MODEL 4
REMARK VINA RESULT:      -6.6      2.830      3.926
REMARK  Name = 
REMARK  2 active torsions:
REMARK  status: ('A' for Active; 'I' for Inactive)
REMARK    1  A    between atoms: C_11  and  C_12
REMARK    2  A    between atoms: C_12  and  N_13
REMARK                            x       y       z     vdW  Elec       q    Type
REMARK                         _______ _______ _______ _____ _____    ______ ____
ROOT
ATOM      1  O   UNL     1       4.521   3.054  17.390  0.00  0.00    +0.000 OA
ATOM      2  C   UNL     1       4.579   4.263  17.585  0.00  0.00    +0.000 C 
ATOM      3  C   UNL     1       3.587   4.933  18.460  0.00  0.00    +0.000 A 
ATOM      4  C   UNL     1       2.902   4.184  19.421  0.00  0.00    +0.000 A 
ATOM      5  C   UNL     1       2.031   4.821  20.301  0.00  0.00    +0.000 A 
ATOM      6  C   UNL     1       1.832   6.198  20.207  0.00  0.00    +0.000 A 
ATOM      7  C   UNL     1       2.508   6.944  19.238  0.00  0.00    +0.000 A 
ATOM      8  C   UNL     1       3.395   6.324  18.350  0.00  0.00    +0.000 A 
ATOM      9  C   UNL     1       4.163   7.157  17.353  0.00  0.00    +0.000 C 
ATOM     10  C   UNL     1       4.955   6.333  16.333  0.00  0.00    +0.000 C 
ATOM     11  C   UNL     1       5.663   5.170  17.029  0.00  0.00    +0.000 C 
ENDROOT
BRANCH  11  12
ATOM     12  C   UNL     1       6.619   4.382  16.121  0.00  0.00    +0.000 C 
BRANCH  12  13
ATOM     13  N   UNL     1       6.457   4.631  14.668  0.00  0.00    +0.000 NA
ATOM     14  C   UNL     1       7.726   5.022  14.027  0.00  0.00    +0.000 C 
ATOM     15  C   UNL     1       7.569   5.235  12.521  0.00  0.00    +0.000 C 
ATOM     16  C   UNL     1       6.997   3.997  11.844  0.00  0.00    +0.000 C 
ATOM     17  C   UNL     1       5.703   3.586  12.531  0.00  0.00    +0.000 C 
ATOM     18  C   UNL     1       5.911   3.412  14.036  0.00  0.00    +0.000 C 
ENDBRANCH  12  13
ENDBRANCH  11  12
TORSDOF 2
ENDMDL
MODEL 5
REMARK VINA RESULT:      -6.5      3.118      4.631
REMARK  Name = 
REMARK  2 active torsions:
REMARK  status: ('A' for Active; 'I' for Inactive)
REMARK    1  A    between atoms: C_11  and  C_12
REMARK    2  A    between atoms: C_12  and  N_13
REMARK                            x       y       z     vdW  Elec       q    Type
REMARK                         _______ _______ _______ _____ _____    ______ ____
ROOT
ATOM      1  O   UNL     1       5.707   7.527  16.382  0.00  0.00    +0.000 OA
ATOM      2  C   UNL     1       5.415   6.501  16.985  0.00  0.00    +0.000 C 
ATOM      3  C   UNL     1       4.331   6.503  17.996  0.00  0.00    +0.000 A 
ATOM      4  C   UNL     1       3.342   7.489  17.940  0.00  0.00    +0.000 A 
ATOM      5  C   UNL     1       2.276   7.450  18.835  0.00  0.00    +0.000 A 
ATOM      6  C   UNL     1       2.210   6.439  19.793  0.00  0.00    +0.000 A 
ATOM      7  C   UNL     1       3.206   5.461  19.857  0.00  0.00    +0.000 A 
ATOM      8  C   UNL     1       4.282   5.478  18.960  0.00  0.00    +0.000 A 
ATOM      9  C   UNL     1       5.311   4.376  19.004  0.00  0.00    +0.000 C 
ATOM     10  C   UNL     1       6.519   4.617  18.092  0.00  0.00    +0.000 C 
ATOM     11  C   UNL     1       6.058   5.147  16.734  0.00  0.00    +0.000 C 
ENDROOT
BRANCH  11  12
ATOM     12  C   UNL     1       7.180   5.262  15.691  0.00  0.00    +0.000 C 
BRANCH  12  13
ATOM     13  N   UNL     1       6.755   5.066  14.284  0.00  0.00    +0.000 NA
ATOM     14  C   UNL     1       7.902   5.029  13.358  0.00  0.00    +0.000 C 
ATOM     15  C   UNL     1       7.468   4.781  11.913  0.00  0.00    +0.000 C 
ATOM     16  C   UNL     1       6.653   3.501  11.791  0.00  0.00    +0.000 C 
ATOM     17  C   UNL     1       5.489   3.537  12.771  0.00  0.00    +0.000 C 
ATOM     18  C   UNL     1       5.977   3.814  14.194  0.00  0.00    +0.000 C 
ENDBRANCH  12  13
ENDBRANCH  11  12
TORSDOF 2
ENDMDL
MODEL 6
REMARK VINA RESULT:      -6.4      1.909      6.220
REMARK  Name = 
REMARK  2 active torsions:
REMARK  status: ('A' for Active; 'I' for Inactive)
REMARK    1  A    between atoms: C_11  and  C_12
REMARK    2  A    between atoms: C_12  and  N_13
REMARK                            x       y       z     vdW  Elec       q    Type
REMARK                         _______ _______ _______ _____ _____    ______ ____
ROOT
ATOM      1  O   UNL     1       5.924   4.316  19.839  0.00  0.00    +0.000 OA
ATOM      2  C   UNL     1       5.736   4.874  18.763  0.00  0.00    +0.000 C 
ATOM      3  C   UNL     1       6.513   6.082  18.396  0.00  0.00    +0.000 A 
ATOM      4  C   UNL     1       7.748   6.316  19.007  0.00  0.00    +0.000 A 
ATOM      5  C   UNL     1       8.520   7.404  18.607  0.00  0.00    +0.000 A 
ATOM      6  C   UNL     1       8.050   8.264  17.615  0.00  0.00    +0.000 A 
ATOM      7  C   UNL     1       6.809   8.036  17.014  0.00  0.00    +0.000 A 
ATOM      8  C   UNL     1       6.022   6.942  17.396  0.00  0.00    +0.000 A 
ATOM      9  C   UNL     1       4.715   6.678  16.689  0.00  0.00    +0.000 C 
ATOM     10  C   UNL     1       3.879   5.562  17.325  0.00  0.00    +0.000 C 
ATOM     11  C   UNL     1       4.773   4.379  17.698  0.00  0.00    +0.000 C 
ENDROOT
BRANCH  11  12
ATOM     12  C   UNL     1       4.006   3.142  18.189  0.00  0.00    +0.000 C 
BRANCH  12  13
ATOM     13  N   UNL     1       3.074   3.385  19.317  0.00  0.00    +0.000 NA
ATOM     14  C   UNL     1       1.669   3.157  18.934  0.00  0.00    +0.000 C 
ATOM     15  C   UNL     1       0.711   3.362  20.108  0.00  0.00    +0.000 C 
ATOM     16  C   UNL     1       1.085   2.477  21.289  0.00  0.00    +0.000 C 
ATOM     17  C   UNL     1       2.545   2.699  21.657  0.00  0.00    +0.000 C 
ATOM     18  C   UNL     1       3.454   2.507  20.443  0.00  0.00    +0.000 C 
ENDBRANCH  12  13
ENDBRANCH  11  12
TORSDOF 2
ENDMDL
MODEL 7
REMARK VINA RESULT:      -6.4      2.529      4.232
REMARK  Name = 
REMARK  2 active torsions:
REMARK  status: ('A' for Active; 'I' for Inactive)
REMARK    1  A    between atoms: C_11  and  C_12
REMARK    2  A    between atoms: C_12  and  N_13
REMARK                            x       y       z     vdW  Elec       q    Type
REMARK                         _______ _______ _______ _____ _____    ______ ____
ROOT
ATOM      1  O   UNL     1       1.828   5.420  20.930  0.00  0.00    +0.000 OA
ATOM      2  C   UNL     1       2.218   6.279  20.148  0.00  0.00    +0.000 C 
ATOM      3  C   UNL     1       1.663   7.652  20.198  0.00  0.00    +0.000 A 
ATOM      4  C   UNL     1       1.078   8.113  21.381  0.00  0.00    +0.000 A 
ATOM      5  C   UNL     1       0.628   9.429  21.462  0.00  0.00    +0.000 A 
ATOM      6  C   UNL     1       0.746  10.273  20.359  0.00  0.00    +0.000 A 
ATOM      7  C   UNL     1       1.320   9.807  19.172  0.00  0.00    +0.000 A 
ATOM      8  C   UNL     1       1.786   8.490  19.074  0.00  0.00    +0.000 A 
ATOM      9  C   UNL     1       2.459   8.027  17.806  0.00  0.00    +0.000 C 
ATOM     10  C   UNL     1       2.756   6.524  17.772  0.00  0.00    +0.000 C 
ATOM     11  C   UNL     1       3.316   6.066  19.120  0.00  0.00    +0.000 C 
ENDROOT
BRANCH  11  12
ATOM     12  C   UNL     1       3.802   4.609  19.135  0.00  0.00    +0.000 C 
BRANCH  12  13
ATOM     13  N   UNL     1       5.103   4.371  18.465  0.00  0.00    +0.000 NA
ATOM     14  C   UNL     1       4.976   4.358  16.996  0.00  0.00    +0.000 C 
ATOM     15  C   UNL     1       6.324   4.159  16.303  0.00  0.00    +0.000 C 
ATOM     16  C   UNL     1       7.331   5.217  16.734  0.00  0.00    +0.000 C 
ATOM     17  C   UNL     1       7.433   5.241  18.253  0.00  0.00    +0.000 C 
ATOM     18  C   UNL     1       6.055   5.416  18.894  0.00  0.00    +0.000 C 
ENDBRANCH  12  13
ENDBRANCH  11  12
TORSDOF 2
ENDMDL
MODEL 8
REMARK VINA RESULT:      -6.4      2.405      5.892
REMARK  Name = 
REMARK  2 active torsions:
REMARK  status: ('A' for Active; 'I' for Inactive)
REMARK    1  A    between atoms: C_11  and  C_12
REMARK    2  A    between atoms: C_12  and  N_13
REMARK                            x       y       z     vdW  Elec       q    Type
REMARK                         _______ _______ _______ _____ _____    ______ ____
ROOT
ATOM      1  O   UNL     1       5.225   5.220  19.748  0.00  0.00    +0.000 OA
ATOM      2  C   UNL     1       4.770   5.566  18.664  0.00  0.00    +0.000 C 
ATOM      3  C   UNL     1       5.576   5.421  17.428  0.00  0.00    +0.000 A 
ATOM      4  C   UNL     1       6.617   4.489  17.393  0.00  0.00    +0.000 A 
ATOM      5  C   UNL     1       7.324   4.288  16.210  0.00  0.00    +0.000 A 
ATOM      6  C   UNL     1       7.004   5.031  15.074  0.00  0.00    +0.000 A 
ATOM      7  C   UNL     1       5.972   5.972  15.114  0.00  0.00    +0.000 A 
ATOM      8  C   UNL     1       5.243   6.182  16.292  0.00  0.00    +0.000 A 
ATOM      9  C   UNL     1       4.091   7.157  16.295  0.00  0.00    +0.000 C 
ATOM     10  C   UNL     1       3.502   7.418  17.686  0.00  0.00    +0.000 C 
ATOM     11  C   UNL     1       3.365   6.104  18.457  0.00  0.00    +0.000 C 
ENDROOT
BRANCH  11  12
ATOM     12  C   UNL     1       2.629   6.237  19.798  0.00  0.00    +0.000 C 
BRANCH  12  13
ATOM     13  N   UNL     1       1.782   5.078  20.170  0.00  0.00    +0.000 NA
ATOM     14  C   UNL     1       1.528   4.186  19.024  0.00  0.00    +0.000 C 
ATOM     15  C   UNL     1       0.694   2.966  19.417  0.00  0.00    +0.000 C 
ATOM     16  C   UNL     1       1.347   2.190  20.553  0.00  0.00    +0.000 C 
ATOM     17  C   UNL     1       1.631   3.126  21.719  0.00  0.00    +0.000 C 
ATOM     18  C   UNL     1       2.445   4.339  21.265  0.00  0.00    +0.000 C 
ENDBRANCH  12  13
ENDBRANCH  11  12
TORSDOF 2
ENDMDL
MODEL 9
REMARK VINA RESULT:      -6.4      1.622      2.209
REMARK  Name = 
REMARK  2 active torsions:
REMARK  status: ('A' for Active; 'I' for Inactive)
REMARK    1  A    between atoms: C_11  and  C_12
REMARK    2  A    between atoms: C_12  and  N_13
REMARK                            x       y       z     vdW  Elec       q    Type
REMARK                         _______ _______ _______ _____ _____    ______ ____
ROOT
ATOM      1  O   UNL     1       5.424   3.275  19.632  0.00  0.00    +0.000 OA
ATOM      2  C   UNL     1       4.361   3.628  19.134  0.00  0.00    +0.000 C 
ATOM      3  C   UNL     1       3.072   3.227  19.746  0.00  0.00    +0.000 A 
ATOM      4  C   UNL     1       3.034   2.875  21.099  0.00  0.00    +0.000 A 
ATOM      5  C   UNL     1       1.814   2.577  21.701  0.00  0.00    +0.000 A 
ATOM      6  C   UNL     1       0.641   2.612  20.949  0.00  0.00    +0.000 A 
ATOM      7  C   UNL     1       0.681   2.952  19.594  0.00  0.00    +0.000 A 
ATOM      8  C   UNL     1       1.897   3.264  18.972  0.00  0.00    +0.000 A 
ATOM      9  C   UNL     1       1.910   3.690  17.525  0.00  0.00    +0.000 C 
ATOM     10  C   UNL     1       3.315   3.826  16.929  0.00  0.00    +0.000 C 
ATOM     11  C   UNL     1       4.242   4.533  17.919  0.00  0.00    +0.000 C 
ENDROOT
BRANCH  11  12
ATOM     12  C   UNL     1       5.630   4.867  17.351  0.00  0.00    +0.000 C 
BRANCH  12  13
ATOM     13  N   UNL     1       6.270   6.076  17.923  0.00  0.00    +0.000 NA
ATOM     14  C   UNL     1       7.645   5.810  18.383  0.00  0.00    +0.000 C 
ATOM     15  C   UNL     1       8.323   7.067  18.931  0.00  0.00    +0.000 C 
ATOM     16  C   UNL     1       8.320   8.190  17.903  0.00  0.00    +0.000 C 
ATOM     17  C   UNL     1       6.900   8.437  17.413  0.00  0.00    +0.000 C 
ATOM     18  C   UNL     1       6.263   7.144  16.902  0.00  0.00    +0.000 C 
ENDBRANCH  12  13
ENDBRANCH  11  12
TORSDOF 2
ENDMDL
