MODEL 1
REMARK VINA RESULT:      -8.1      0.000      0.000
REMARK  Name = 
REMARK  4 active torsions:
REMARK  status: ('A' for Active; 'I' for Inactive)
REMARK    1  A    between atoms: C_1  and  C_2
REMARK    2  A    between atoms: C_2  and  N_3
REMARK    3  A    between atoms: C_2  and  C_11
REMARK    4  A    between atoms: C_4  and  C_6
REMARK                            x       y       z     vdW  Elec       q    Type
REMARK                         _______ _______ _______ _____ _____    ______ ____
ROOT
ATOM      1  C   UNL     1       6.943   4.627  17.464  0.00  0.00    +0.000 C 
ATOM      2  C   UNL     1       6.042   5.396  16.487  0.00  0.00    +0.000 C 
ENDROOT
BRANCH   2   3
ATOM      3  C   UNL     1       4.686   5.721  17.111  0.00  0.00    +0.000 A 
ATOM      4  C   UNL     1       4.378   7.083  17.340  0.00  0.00    +0.000 A 
ATOM      5  C   UNL     1       3.177   7.468  17.919  0.00  0.00    +0.000 A 
ATOM      6  C   UNL     1       2.251   6.502  18.285  0.00  0.00    +0.000 A 
ATOM      7  C   UNL     1       2.510   5.141  18.076  0.00  0.00    +0.000 A 
ATOM      8  C   UNL     1       1.537   4.200  18.453  0.00  0.00    +0.000 A 
ATOM      9  C   UNL     1       1.742   2.839  18.264  0.00  0.00    +0.000 A 
ATOM     10  C   UNL     1       2.933   2.399  17.703  0.00  0.00    +0.000 A 
ATOM     11  C   UNL     1       3.914   3.324  17.327  0.00  0.00    +0.000 A 
ATOM     12  C   UNL     1       3.735   4.721  17.490  0.00  0.00    +0.000 A 
ENDBRANCH   2   3
BRANCH   2  13
ATOM     13  N   UNL     1       5.842   4.647  15.257  0.00  0.00    +0.000 N 
ATOM     14  C   UNL     1       6.691   4.708  14.176  0.00  0.00    +0.000 C 
ATOM     15  O   UNL     1       7.694   5.417  14.157  0.00  0.00    +0.000 OA
ATOM     16  H   UNL     1       5.033   4.044  15.166  0.00  0.00    +0.000 HD
BRANCH  14  17
ATOM     17  C   UNL     1       6.280   3.864  13.069  0.00  0.00    +0.000 A 
ATOM     18  C   UNL     1       7.013   3.123  12.161  0.00  0.00    +0.000 A 
ATOM     19  C   UNL     1       6.081   2.488  11.304  0.00  0.00    +0.000 A 
ATOM     20  C   UNL     1       4.836   2.876  11.738  0.00  0.00    +0.000 A 
ATOM     21  O   UNL     1       4.941   3.710  12.804  0.00  0.00    +0.000 OA
ENDBRANCH  14  17
ENDBRANCH   2  13
TORSDOF 3
ENDMDL
MODEL 2
REMARK VINA RESULT:      -8.0      1.473      2.943
REMARK  Name = 
REMARK  4 active torsions:
REMARK  status: ('A' for Active; 'I' for Inactive)
REMARK    1  A    between atoms: C_1  and  C_2
REMARK    2  A    between atoms: C_2  and  N_3
REMARK    3  A    between atoms: C_2  and  C_11
REMARK    4  A    between atoms: C_4  and  C_6
REMARK                            x       y       z     vdW  Elec       q    Type
REMARK                         _______ _______ _______ _____ _____    ______ ____
ROOT
ATOM      1  C   UNL     1       6.542   4.797  18.691  0.00  0.00    +0.000 C 
ATOM      2  C   UNL     1       5.360   4.874  17.714  0.00  0.00    +0.000 C 
ENDROOT
BRANCH   2   3
ATOM      3  C   UNL     1       4.202   3.984  18.162  0.00  0.00    +0.000 A 
ATOM      4  C   UNL     1       4.177   2.651  17.689  0.00  0.00    +0.000 A 
ATOM      5  C   UNL     1       3.153   1.779  18.031  0.00  0.00    +0.000 A 
ATOM      6  C   UNL     1       2.126   2.217  18.854  0.00  0.00    +0.000 A 
ATOM      7  C   UNL     1       2.108   3.527  19.349  0.00  0.00    +0.000 A 
ATOM      8  C   UNL     1       1.052   3.921  20.187  0.00  0.00    +0.000 A 
ATOM      9  C   UNL     1       0.989   5.208  20.708  0.00  0.00    +0.000 A 
ATOM     10  C   UNL     1       1.981   6.124  20.385  0.00  0.00    +0.000 A 
ATOM     11  C   UNL     1       3.036   5.749  19.546  0.00  0.00    +0.000 A 
ATOM     12  C   UNL     1       3.142   4.441  19.008  0.00  0.00    +0.000 A 
ENDBRANCH   2   3
BRANCH   2  13
ATOM     13  N   UNL     1       5.766   4.501  16.369  0.00  0.00    +0.000 N 
ATOM     14  C   UNL     1       5.866   5.391  15.324  0.00  0.00    +0.000 C 
ATOM     15  O   UNL     1       5.608   6.586  15.441  0.00  0.00    +0.000 OA
ATOM     16  H   UNL     1       5.985   3.533  16.165  0.00  0.00    +0.000 HD
BRANCH  14  17
ATOM     17  C   UNL     1       6.296   4.778  14.081  0.00  0.00    +0.000 A 
ATOM     18  C   UNL     1       5.806   3.694  13.376  0.00  0.00    +0.000 A 
ATOM     19  C   UNL     1       6.619   3.552  12.225  0.00  0.00    +0.000 A 
ATOM     20  C   UNL     1       7.556   4.554  12.292  0.00  0.00    +0.000 A 
ATOM     21  O   UNL     1       7.375   5.303  13.411  0.00  0.00    +0.000 OA
ENDBRANCH  14  17
ENDBRANCH   2  13
TORSDOF 3
ENDMDL
MODEL 3
REMARK VINA RESULT:      -7.7      3.090      5.091
REMARK  Name = 
REMARK  4 active torsions:
REMARK  status: ('A' for Active; 'I' for Inactive)
REMARK    1  A    between atoms: C_1  and  C_2
REMARK    2  A    between atoms: C_2  and  N_3
REMARK    3  A    between atoms: C_2  and  C_11
REMARK    4  A    between atoms: C_4  and  C_6
REMARK                            x       y       z     vdW  Elec       q    Type
REMARK                         _______ _______ _______ _____ _____    ______ ____
ROOT
ATOM      1  C   UNL     1       6.236   5.337  15.414  0.00  0.00    +0.000 C 
ATOM      2  C   UNL     1       6.099   5.712  16.896  0.00  0.00    +0.000 C 
ENDROOT
BRANCH   2   3
ATOM      3  C   UNL     1       4.634   5.800  17.321  0.00  0.00    +0.000 A 
ATOM      4  C   UNL     1       4.072   7.088  17.476  0.00  0.00    +0.000 A 
ATOM      5  C   UNL     1       2.754   7.262  17.876  0.00  0.00    +0.000 A 
ATOM      6  C   UNL     1       1.964   6.150  18.133  0.00  0.00    +0.000 A 
ATOM      7  C   UNL     1       2.476   4.854  17.992  0.00  0.00    +0.000 A 
ATOM      8  C   UNL     1       1.634   3.760  18.253  0.00  0.00    +0.000 A 
ATOM      9  C   UNL     1       2.092   2.454  18.124  0.00  0.00    +0.000 A 
ATOM     10  C   UNL     1       3.406   2.226  17.741  0.00  0.00    +0.000 A 
ATOM     11  C   UNL     1       4.259   3.305  17.482  0.00  0.00    +0.000 A 
ATOM     12  C   UNL     1       3.824   4.651  17.589  0.00  0.00    +0.000 A 
ENDBRANCH   2   3
BRANCH   2  13
ATOM     13  N   UNL     1       6.764   6.973  17.182  0.00  0.00    +0.000 N 
ATOM     14  C   UNL     1       7.716   7.133  18.163  0.00  0.00    +0.000 C 
ATOM     15  O   UNL     1       8.079   6.215  18.893  0.00  0.00    +0.000 OA
ATOM     16  H   UNL     1       6.521   7.797  16.645  0.00  0.00    +0.000 HD
BRANCH  14  17
ATOM     17  C   UNL     1       8.234   8.486  18.250  0.00  0.00    +0.000 A 
ATOM     18  C   UNL     1       8.068   9.585  17.428  0.00  0.00    +0.000 A 
ATOM     19  C   UNL     1       8.804  10.646  18.009  0.00  0.00    +0.000 A 
ATOM     20  C   UNL     1       9.376  10.135  19.150  0.00  0.00    +0.000 A 
ATOM     21  O   UNL     1       9.041   8.829  19.308  0.00  0.00    +0.000 OA
ENDBRANCH  14  17
ENDBRANCH   2  13
TORSDOF 3
ENDMDL
MODEL 4
REMARK VINA RESULT:      -7.6      1.372      2.670
REMARK  Name = 
REMARK  4 active torsions:
REMARK  status: ('A' for Active; 'I' for Inactive)
REMARK    1  A    between atoms: C_1  and  C_2
REMARK    2  A    between atoms: C_2  and  N_3
REMARK    3  A    between atoms: C_2  and  C_11
REMARK    4  A    between atoms: C_4  and  C_6
REMARK                            x       y       z     vdW  Elec       q    Type
REMARK                         _______ _______ _______ _____ _____    ______ ____
ROOT
ATOM      1  C   UNL     1       7.708   4.564  17.690  0.00  0.00    +0.000 C 
ATOM      2  C   UNL     1       6.429   5.164  17.088  0.00  0.00    +0.000 C 
ENDROOT
BRANCH   2   3
ATOM      3  C   UNL     1       5.237   5.011  18.031  0.00  0.00    +0.000 A 
ATOM      4  C   UNL     1       5.153   3.823  18.795  0.00  0.00    +0.000 A 
ATOM      5  C   UNL     1       4.096   3.593  19.664  0.00  0.00    +0.000 A 
ATOM      6  C   UNL     1       3.093   4.545  19.792  0.00  0.00    +0.000 A 
ATOM      7  C   UNL     1       3.135   5.737  19.058  0.00  0.00    +0.000 A 
ATOM      8  C   UNL     1       2.103   6.674  19.229  0.00  0.00    +0.000 A 
ATOM      9  C   UNL     1       2.098   7.874  18.528  0.00  0.00    +0.000 A 
ATOM     10  C   UNL     1       3.125   8.147  17.635  0.00  0.00    +0.000 A 
ATOM     11  C   UNL     1       4.157   7.221  17.449  0.00  0.00    +0.000 A 
ATOM     12  C   UNL     1       4.204   5.993  18.157  0.00  0.00    +0.000 A 
ENDBRANCH   2   3
BRANCH   2  13
ATOM     13  N   UNL     1       6.115   4.552  15.807  0.00  0.00    +0.000 N 
ATOM     14  C   UNL     1       6.822   4.790  14.650  0.00  0.00    +0.000 C 
ATOM     15  O   UNL     1       7.780   5.555  14.602  0.00  0.00    +0.000 OA
ATOM     16  H   UNL     1       5.329   3.916  15.738  0.00  0.00    +0.000 HD
BRANCH  14  17
ATOM     17  C   UNL     1       6.317   4.056  13.504  0.00  0.00    +0.000 A 
ATOM     18  C   UNL     1       5.034   3.688  13.144  0.00  0.00    +0.000 A 
ATOM     19  C   UNL     1       5.138   2.989  11.916  0.00  0.00    +0.000 A 
ATOM     20  C   UNL     1       6.474   2.971  11.598  0.00  0.00    +0.000 A 
ATOM     21  O   UNL     1       7.201   3.611  12.550  0.00  0.00    +0.000 OA
ENDBRANCH  14  17
ENDBRANCH   2  13
TORSDOF 3
ENDMDL
MODEL 5
REMARK VINA RESULT:      -7.6      1.475      2.023
REMARK  Name = 
REMARK  4 active torsions:
REMARK  status: ('A' for Active; 'I' for Inactive)
REMARK    1  A    between atoms: C_1  and  C_2
REMARK    2  A    between atoms: C_2  and  N_3
REMARK    3  A    between atoms: C_2  and  C_11
REMARK    4  A    between atoms: C_4  and  C_6
REMARK                            x       y       z     vdW  Elec       q    Type
REMARK                         _______ _______ _______ _____ _____    ______ ____
ROOT
ATOM      1  C   UNL     1       6.560   5.374  19.099  0.00  0.00    +0.000 C 
ATOM      2  C   UNL     1       5.435   5.859  18.172  0.00  0.00    +0.000 C 
ENDROOT
BRANCH   2   3
ATOM      3  C   UNL     1       4.057   5.515  18.734  0.00  0.00    +0.000 A 
ATOM      4  C   UNL     1       3.330   6.548  19.370  0.00  0.00    +0.000 A 
ATOM      5  C   UNL     1       2.078   6.320  19.924  0.00  0.00    +0.000 A 
ATOM      6  C   UNL     1       1.520   5.051  19.857  0.00  0.00    +0.000 A 
ATOM      7  C   UNL     1       2.200   3.997  19.235  0.00  0.00    +0.000 A 
ATOM      8  C   UNL     1       1.590   2.733  19.183  0.00  0.00    +0.000 A 
ATOM      9  C   UNL     1       2.220   1.654  18.574  0.00  0.00    +0.000 A 
ATOM     10  C   UNL     1       3.480   1.825  18.018  0.00  0.00    +0.000 A 
ATOM     11  C   UNL     1       4.104   3.077  18.067  0.00  0.00    +0.000 A 
ATOM     12  C   UNL     1       3.486   4.204  18.666  0.00  0.00    +0.000 A 
ENDBRANCH   2   3
BRANCH   2  13
ATOM     13  N   UNL     1       5.572   5.293  16.841  0.00  0.00    +0.000 N 
ATOM     14  C   UNL     1       6.597   5.604  15.977  0.00  0.00    +0.000 C 
ATOM     15  O   UNL     1       7.486   6.403  16.260  0.00  0.00    +0.000 OA
ATOM     16  H   UNL     1       4.878   4.634  16.505  0.00  0.00    +0.000 HD
BRANCH  14  17
ATOM     17  C   UNL     1       6.516   4.904  14.708  0.00  0.00    +0.000 A 
ATOM     18  C   UNL     1       5.671   3.904  14.266  0.00  0.00    +0.000 A 
ATOM     19  C   UNL     1       6.048   3.607  12.933  0.00  0.00    +0.000 A 
ATOM     20  C   UNL     1       7.099   4.441  12.639  0.00  0.00    +0.000 A 
ATOM     21  O   UNL     1       7.395   5.231  13.704  0.00  0.00    +0.000 OA
ENDBRANCH  14  17
ENDBRANCH   2  13
TORSDOF 3
ENDMDL
MODEL 6
REMARK VINA RESULT:      -7.6      3.354      5.398
REMARK  Name = 
REMARK  4 active torsions:
REMARK  status: ('A' for Active; 'I' for Inactive)
REMARK    1  A    between atoms: C_1  and  C_2
REMARK    2  A    between atoms: C_2  and  N_3
REMARK    3  A    between atoms: C_2  and  C_11
REMARK    4  A    between atoms: C_4  and  C_6
REMARK                            x       y       z     vdW  Elec       q    Type
REMARK                         _______ _______ _______ _____ _____    ______ ____
ROOT
ATOM      1  C   UNL     1       1.756   5.270  20.231  0.00  0.00    +0.000 C 
ATOM      2  C   UNL     1       2.795   6.289  19.742  0.00  0.00    +0.000 C 
ENDROOT
BRANCH   2   3
ATOM      3  C   UNL     1       2.140   7.609  19.336  0.00  0.00    +0.000 A 
ATOM      4  C   UNL     1       2.238   8.002  17.981  0.00  0.00    +0.000 A 
ATOM      5  C   UNL     1       1.688   9.193  17.529  0.00  0.00    +0.000 A 
ATOM      6  C   UNL     1       1.026  10.025  18.422  0.00  0.00    +0.000 A 
ATOM      7  C   UNL     1       0.903   9.678  19.773  0.00  0.00    +0.000 A 
ATOM      8  C   UNL     1       0.215  10.548  20.636  0.00  0.00    +0.000 A 
ATOM      9  C   UNL     1       0.060  10.248  21.984  0.00  0.00    +0.000 A 
ATOM     10  C   UNL     1       0.604   9.076  22.490  0.00  0.00    +0.000 A 
ATOM     11  C   UNL     1       1.297   8.202  21.645  0.00  0.00    +0.000 A 
ATOM     12  C   UNL     1       1.462   8.466  20.261  0.00  0.00    +0.000 A 
ENDBRANCH   2   3
BRANCH   2  13
ATOM     13  N   UNL     1       3.559   5.764  18.623  0.00  0.00    +0.000 N 
ATOM     14  C   UNL     1       4.862   5.331  18.720  0.00  0.00    +0.000 C 
ATOM     15  O   UNL     1       5.496   5.363  19.771  0.00  0.00    +0.000 OA
ATOM     16  H   UNL     1       3.129   5.712  17.706  0.00  0.00    +0.000 HD
BRANCH  14  17
ATOM     17  C   UNL     1       5.405   4.845  17.465  0.00  0.00    +0.000 A 
ATOM     18  C   UNL     1       4.815   4.171  16.411  0.00  0.00    +0.000 A 
ATOM     19  C   UNL     1       5.827   3.956  15.445  0.00  0.00    +0.000 A 
ATOM     20  C   UNL     1       6.974   4.510  15.961  0.00  0.00    +0.000 A 
ATOM     21  O   UNL     1       6.734   5.050  17.184  0.00  0.00    +0.000 OA
ENDBRANCH  14  17
ENDBRANCH   2  13
TORSDOF 3
ENDMDL
MODEL 7
REMARK VINA RESULT:      -7.4      0.833      2.481
REMARK  Name = 
REMARK  4 active torsions:
REMARK  status: ('A' for Active; 'I' for Inactive)
REMARK    1  A    between atoms: C_1  and  C_2
REMARK    2  A    between atoms: C_2  and  N_3
REMARK    3  A    between atoms: C_2  and  C_11
REMARK    4  A    between atoms: C_4  and  C_6
REMARK                            x       y       z     vdW  Elec       q    Type
REMARK                         _______ _______ _______ _____ _____    ______ ____
ROOT
ATOM      1  C   UNL     1       7.352   4.444  17.090  0.00  0.00    +0.000 C 
ATOM      2  C   UNL     1       6.056   4.942  16.435  0.00  0.00    +0.000 C 
ENDROOT
BRANCH   2   3
ATOM      3  C   UNL     1       4.857   4.778  17.368  0.00  0.00    +0.000 A 
ATOM      4  C   UNL     1       4.602   3.489  17.890  0.00  0.00    +0.000 A 
ATOM      5  C   UNL     1       3.524   3.246  18.730  0.00  0.00    +0.000 A 
ATOM      6  C   UNL     1       2.671   4.287  19.069  0.00  0.00    +0.000 A 
ATOM      7  C   UNL     1       2.884   5.581  18.578  0.00  0.00    +0.000 A 
ATOM      8  C   UNL     1       1.999   6.604  18.958  0.00  0.00    +0.000 A 
ATOM      9  C   UNL     1       2.168   7.906  18.503  0.00  0.00    +0.000 A 
ATOM     10  C   UNL     1       3.221   8.200  17.649  0.00  0.00    +0.000 A 
ATOM     11  C   UNL     1       4.108   7.191  17.256  0.00  0.00    +0.000 A 
ATOM     12  C   UNL     1       3.978   5.854  17.712  0.00  0.00    +0.000 A 
ENDBRANCH   2   3
BRANCH   2  13
ATOM     13  N   UNL     1       5.798   4.245  15.186  0.00  0.00    +0.000 N 
ATOM     14  C   UNL     1       6.479   4.492  14.016  0.00  0.00    +0.000 C 
ATOM     15  O   UNL     1       7.366   5.337  13.928  0.00  0.00    +0.000 OA
ATOM     16  H   UNL     1       5.072   3.539  15.150  0.00  0.00    +0.000 HD
BRANCH  14  17
ATOM     17  C   UNL     1       6.042   3.663  12.907  0.00  0.00    +0.000 A 
ATOM     18  C   UNL     1       6.733   2.787  12.090  0.00  0.00    +0.000 A 
ATOM     19  C   UNL     1       5.792   2.249  11.179  0.00  0.00    +0.000 A 
ATOM     20  C   UNL     1       4.584   2.825  11.491  0.00  0.00    +0.000 A 
ATOM     21  O   UNL     1       4.721   3.684  12.534  0.00  0.00    +0.000 OA
ENDBRANCH  14  17
ENDBRANCH   2  13
TORSDOF 3
ENDMDL
MODEL 8
REMARK VINA RESULT:      -7.3      3.373      5.314
REMARK  Name = 
REMARK  4 active torsions:
REMARK  status: ('A' for Active; 'I' for Inactive)
REMARK    1  A    between atoms: C_1  and  C_2
REMARK    2  A    between atoms: C_2  and  N_3
REMARK    3  A    between atoms: C_2  and  C_11
REMARK    4  A    between atoms: C_4  and  C_6
REMARK                            x       y       z     vdW  Elec       q    Type
REMARK                         _______ _______ _______ _____ _____    ______ ____
ROOT
ATOM      1  C   UNL     1       5.389   6.242  15.360  0.00  0.00    +0.000 C 
ATOM      2  C   UNL     1       5.739   6.281  16.855  0.00  0.00    +0.000 C 
ENDROOT
BRANCH   2   3
ATOM      3  C   UNL     1       4.485   6.248  17.727  0.00  0.00    +0.000 A 
ATOM      4  C   UNL     1       3.635   7.379  17.697  0.00  0.00    +0.000 A 
ATOM      5  C   UNL     1       2.484   7.442  18.470  0.00  0.00    +0.000 A 
ATOM      6  C   UNL     1       2.153   6.376  19.295  0.00  0.00    +0.000 A 
ATOM      7  C   UNL     1       2.962   5.235  19.356  0.00  0.00    +0.000 A 
ATOM      8  C   UNL     1       2.580   4.177  20.198  0.00  0.00    +0.000 A 
ATOM      9  C   UNL     1       3.345   3.020  20.293  0.00  0.00    +0.000 A 
ATOM     10  C   UNL     1       4.513   2.913  19.552  0.00  0.00    +0.000 A 
ATOM     11  C   UNL     1       4.911   3.960  18.713  0.00  0.00    +0.000 A 
ATOM     12  C   UNL     1       4.149   5.148  18.578  0.00  0.00    +0.000 A 
ENDBRANCH   2   3
BRANCH   2  13
ATOM     13  N   UNL     1       6.524   7.460  17.179  0.00  0.00    +0.000 N 
ATOM     14  C   UNL     1       7.606   7.451  18.030  0.00  0.00    +0.000 C 
ATOM     15  O   UNL     1       7.995   6.435  18.600  0.00  0.00    +0.000 OA
ATOM     16  H   UNL     1       6.273   8.354  16.772  0.00  0.00    +0.000 HD
BRANCH  14  17
ATOM     17  C   UNL     1       8.228   8.753  18.189  0.00  0.00    +0.000 A 
ATOM     18  C   UNL     1       8.145   9.906  17.431  0.00  0.00    +0.000 A 
ATOM     19  C   UNL     1       8.963  10.873  18.065  0.00  0.00    +0.000 A 
ATOM     20  C   UNL     1       9.496  10.257  19.172  0.00  0.00    +0.000 A 
ATOM     21  O   UNL     1       9.061   8.973  19.259  0.00  0.00    +0.000 OA
ENDBRANCH  14  17
ENDBRANCH   2  13
TORSDOF 3
ENDMDL
MODEL 9
REMARK VINA RESULT:      -7.3      3.390      6.933
REMARK  Name = 
REMARK  4 active torsions:
REMARK  status: ('A' for Active; 'I' for Inactive)
REMARK    1  A    between atoms: C_1  and  C_2
REMARK    2  A    between atoms: C_2  and  N_3
REMARK    3  A    between atoms: C_2  and  C_11
REMARK    4  A    between atoms: C_4  and  C_6
REMARK                            x       y       z     vdW  Elec       q    Type
REMARK                         _______ _______ _______ _____ _____    ______ ____
ROOT
ATOM      1  C   UNL     1       2.322   3.663  18.189  0.00  0.00    +0.000 C 
ATOM      2  C   UNL     1       2.880   5.065  17.907  0.00  0.00    +0.000 C 
ENDROOT
BRANCH   2   3
ATOM      3  C   UNL     1       4.407   5.082  17.956  0.00  0.00    +0.000 A 
ATOM      4  C   UNL     1       5.021   5.323  19.207  0.00  0.00    +0.000 A 
ATOM      5  C   UNL     1       6.402   5.374  19.340  0.00  0.00    +0.000 A 
ATOM      6  C   UNL     1       7.205   5.185  18.224  0.00  0.00    +0.000 A 
ATOM      7  C   UNL     1       6.643   4.941  16.965  0.00  0.00    +0.000 A 
ATOM      8  C   UNL     1       7.498   4.746  15.867  0.00  0.00    +0.000 A 
ATOM      9  C   UNL     1       6.991   4.497  14.597  0.00  0.00    +0.000 A 
ATOM     10  C   UNL     1       5.617   4.451  14.407  0.00  0.00    +0.000 A 
ATOM     11  C   UNL     1       4.752   4.649  15.489  0.00  0.00    +0.000 A 
ATOM     12  C   UNL     1       5.231   4.891  16.802  0.00  0.00    +0.000 A 
ENDBRANCH   2   3
BRANCH   2  13
ATOM     13  N   UNL     1       2.354   6.038  18.850  0.00  0.00    +0.000 N 
ATOM     14  C   UNL     1       2.343   7.396  18.624  0.00  0.00    +0.000 C 
ATOM     15  O   UNL     1       2.790   7.903  17.600  0.00  0.00    +0.000 OA
ATOM     16  H   UNL     1       1.976   5.721  19.735  0.00  0.00    +0.000 HD
BRANCH  14  17
ATOM     17  C   UNL     1       1.760   8.158  19.713  0.00  0.00    +0.000 A 
ATOM     18  C   UNL     1       1.610   7.869  21.057  0.00  0.00    +0.000 A 
ATOM     19  C   UNL     1       0.975   8.987  21.649  0.00  0.00    +0.000 A 
ATOM     20  C   UNL     1       0.775   9.894  20.636  0.00  0.00    +0.000 A 
ATOM     21  O   UNL     1       1.243   9.405  19.459  0.00  0.00    +0.000 OA
ENDBRANCH  14  17
ENDBRANCH   2  13
TORSDOF 3
ENDMDL
