MODEL 1
REMARK VINA RESULT:      -7.7      0.000      0.000
REMARK  Name = 
REMARK  8 active torsions:
REMARK  status: ('A' for Active; 'I' for Inactive)
REMARK    1  A    between atoms: N_2  and  C_4
REMARK    2  A    between atoms: C_6  and  C_7
REMARK    3  A    between atoms: C_10  and  S_11
REMARK    4  A    between atoms: S_11  and  C_12
REMARK    5  A    between atoms: C_12  and  C_13
REMARK    6  A    between atoms: C_13  and  C_14
REMARK    7  A    between atoms: C_14  and  N_15
REMARK    8  A    between atoms: C_23  and  N_24
REMARK                            x       y       z     vdW  Elec       q    Type
REMARK                         _______ _______ _______ _____ _____    ______ ____
ROOT
ATOM      1  C   UNL     1       2.739   7.687  18.028  0.00  0.00    +0.000 A 
ATOM      2  N   UNL     1       2.633   8.767  17.285  0.00  0.00    +0.000 NA
ATOM      3  N   UNL     1       1.791   9.629  17.967  0.00  0.00    +0.000 NA
ATOM      4  C   UNL     1       1.454   9.013  19.082  0.00  0.00    +0.000 A 
ATOM      5  O   UNL     1       2.013   7.770  19.179  0.00  0.00    +0.000 OA
ENDROOT
BRANCH   1   8
ATOM      6  C   UNL     1       3.697   4.057  17.765  0.00  0.00    +0.000 A 
ATOM      7  C   UNL     1       2.945   5.223  17.985  0.00  0.00    +0.000 A 
ATOM      8  C   UNL     1       3.540   6.481  17.846  0.00  0.00    +0.000 A 
ATOM      9  C   UNL     1       4.902   6.561  17.502  0.00  0.00    +0.000 A 
ATOM     10  C   UNL     1       5.648   5.387  17.288  0.00  0.00    +0.000 A 
ATOM     11  C   UNL     1       5.050   4.129  17.416  0.00  0.00    +0.000 A 
BRANCH   6  13
ATOM     12  O   UNL     1       2.043   2.536  17.194  0.00  0.00    +0.000 OA
ATOM     13  N   UNL     1       3.045   2.747  17.890  0.00  0.00    +0.000 N 
ATOM     14  O   UNL     1       3.540   1.935  18.682  0.00  0.00    +0.000 OA
ENDBRANCH   6  13
BRANCH  10  15
ATOM     15  N   UNL     1       7.069   5.491  16.920  0.00  0.00    +0.000 N 
ATOM     16  O   UNL     1       7.839   4.627  17.357  0.00  0.00    +0.000 OA
ATOM     17  O   UNL     1       7.405   6.439  16.198  0.00  0.00    +0.000 OA
ENDBRANCH  10  15
ENDBRANCH   1   8
BRANCH   4  18
ATOM     18  S   UNL     1       0.498   9.655  20.364  0.00  0.00    +0.000 S 
BRANCH  18  19
ATOM     19  C   UNL     1       0.443  11.437  19.999  0.00  0.00    +0.000 C 
BRANCH  19  20
ATOM     20  C   UNL     1      -1.027  11.730  19.701  0.00  0.00    +0.000 C 
BRANCH  20  21
ATOM     21  C   UNL     1      -1.429  11.618  18.226  0.00  0.00    +0.000 C 
BRANCH  21  22
ATOM     22  N   UNL     1      -2.283  10.435  18.006  0.00  0.00    +0.000 NA
ATOM     23  C   UNL     1      -2.119   9.784  16.687  0.00  0.00    +0.000 C 
ATOM     24  C   UNL     1      -2.760  10.545  15.514  0.00  0.00    +0.000 C 
ATOM     25  O   UNL     1      -4.143  10.831  15.758  0.00  0.00    +0.000 OA
ATOM     26  C   UNL     1      -4.319  11.530  16.996  0.00  0.00    +0.000 C 
ATOM     27  C   UNL     1      -3.721  10.742  18.172  0.00  0.00    +0.000 C 
ENDBRANCH  21  22
ENDBRANCH  20  21
ENDBRANCH  19  20
ENDBRANCH  18  19
ENDBRANCH   4  18
TORSDOF 8
ENDMDL
MODEL 2
REMARK VINA RESULT:      -7.4      0.517      2.912
REMARK  Name = 
REMARK  8 active torsions:
REMARK  status: ('A' for Active; 'I' for Inactive)
REMARK    1  A    between atoms: N_2  and  C_4
REMARK    2  A    between atoms: C_6  and  C_7
REMARK    3  A    between atoms: C_10  and  S_11
REMARK    4  A    between atoms: S_11  and  C_12
REMARK    5  A    between atoms: C_12  and  C_13
REMARK    6  A    between atoms: C_13  and  C_14
REMARK    7  A    between atoms: C_14  and  N_15
REMARK    8  A    between atoms: C_23  and  N_24
REMARK                            x       y       z     vdW  Elec       q    Type
REMARK                         _______ _______ _______ _____ _____    ______ ____
ROOT
ATOM      1  C   UNL     1       2.498   7.886  18.130  0.00  0.00    +0.000 A 
ATOM      2  N   UNL     1       2.218   8.866  17.299  0.00  0.00    +0.000 NA
ATOM      3  N   UNL     1       1.434   9.763  18.005  0.00  0.00    +0.000 NA
ATOM      4  C   UNL     1       1.304   9.267  19.218  0.00  0.00    +0.000 A 
ATOM      5  O   UNL     1       1.946   8.070  19.363  0.00  0.00    +0.000 OA
ENDROOT
BRANCH   1   8
ATOM      6  C   UNL     1       5.500   5.719  17.454  0.00  0.00    +0.000 A 
ATOM      7  C   UNL     1       4.674   6.848  17.576  0.00  0.00    +0.000 A 
ATOM      8  C   UNL     1       3.336   6.703  17.958  0.00  0.00    +0.000 A 
ATOM      9  C   UNL     1       2.828   5.413  18.201  0.00  0.00    +0.000 A 
ATOM     10  C   UNL     1       3.663   4.289  18.072  0.00  0.00    +0.000 A 
ATOM     11  C   UNL     1       5.004   4.434  17.700  0.00  0.00    +0.000 A 
BRANCH   6  13
ATOM     12  O   UNL     1       7.729   6.071  17.987  0.00  0.00    +0.000 OA
ATOM     13  N   UNL     1       6.908   5.896  17.076  0.00  0.00    +0.000 N 
ATOM     14  O   UNL     1       7.187   5.858  15.871  0.00  0.00    +0.000 OA
ENDBRANCH   6  13
BRANCH  10  15
ATOM     15  N   UNL     1       3.117   2.948  18.339  0.00  0.00    +0.000 N 
ATOM     16  O   UNL     1       3.256   2.489  19.479  0.00  0.00    +0.000 OA
ATOM     17  O   UNL     1       2.556   2.363  17.403  0.00  0.00    +0.000 OA
ENDBRANCH  10  15
ENDBRANCH   1   8
BRANCH   4  18
ATOM     18  S   UNL     1       0.511  10.011  20.556  0.00  0.00    +0.000 S 
BRANCH  18  19
ATOM     19  C   UNL     1       0.210  11.709  19.977  0.00  0.00    +0.000 C 
BRANCH  19  20
ATOM     20  C   UNL     1      -1.304  11.798  19.792  0.00  0.00    +0.000 C 
BRANCH  20  21
ATOM     21  C   UNL     1      -1.787  11.773  18.338  0.00  0.00    +0.000 C 
BRANCH  21  22
ATOM     22  N   UNL     1      -2.554  10.543  18.063  0.00  0.00    +0.000 NA
ATOM     23  C   UNL     1      -2.185   9.843  16.811  0.00  0.00    +0.000 C 
ATOM     24  C   UNL     1      -2.691  10.522  15.528  0.00  0.00    +0.000 C 
ATOM     25  O   UNL     1      -4.104  10.753  15.568  0.00  0.00    +0.000 OA
ATOM     26  C   UNL     1      -4.476  11.495  16.736  0.00  0.00    +0.000 C 
ATOM     27  C   UNL     1      -4.012  10.789  18.019  0.00  0.00    +0.000 C 
ENDBRANCH  21  22
ENDBRANCH  20  21
ENDBRANCH  19  20
ENDBRANCH  18  19
ENDBRANCH   4  18
TORSDOF 8
ENDMDL
MODEL 3
REMARK VINA RESULT:      -7.2      2.479      4.228
REMARK  Name = 
REMARK  8 active torsions:
REMARK  status: ('A' for Active; 'I' for Inactive)
REMARK    1  A    between atoms: N_2  and  C_4
REMARK    2  A    between atoms: C_6  and  C_7
REMARK    3  A    between atoms: C_10  and  S_11
REMARK    4  A    between atoms: S_11  and  C_12
REMARK    5  A    between atoms: C_12  and  C_13
REMARK    6  A    between atoms: C_13  and  C_14
REMARK    7  A    between atoms: C_14  and  N_15
REMARK    8  A    between atoms: C_23  and  N_24
REMARK                            x       y       z     vdW  Elec       q    Type
REMARK                         _______ _______ _______ _____ _____    ______ ____
ROOT
ATOM      1  C   UNL     1       2.715   7.638  18.070  0.00  0.00    +0.000 A 
ATOM      2  N   UNL     1       2.496   8.740  17.386  0.00  0.00    +0.000 NA
ATOM      3  N   UNL     1       1.734   9.560  18.200  0.00  0.00    +0.000 NA
ATOM      4  C   UNL     1       1.553   8.900  19.326  0.00  0.00    +0.000 A 
ATOM      5  O   UNL     1       2.140   7.666  19.306  0.00  0.00    +0.000 OA
ENDROOT
BRANCH   1   8
ATOM      6  C   UNL     1       5.601   5.471  17.002  0.00  0.00    +0.000 A 
ATOM      7  C   UNL     1       4.816   6.603  17.274  0.00  0.00    +0.000 A 
ATOM      8  C   UNL     1       3.506   6.456  17.743  0.00  0.00    +0.000 A 
ATOM      9  C   UNL     1       2.982   5.162  17.920  0.00  0.00    +0.000 A 
ATOM     10  C   UNL     1       3.776   4.034  17.640  0.00  0.00    +0.000 A 
ATOM     11  C   UNL     1       5.090   4.181  17.182  0.00  0.00    +0.000 A 
BRANCH   6  13
ATOM     12  O   UNL     1       7.579   4.648  16.116  0.00  0.00    +0.000 OA
ATOM     13  N   UNL     1       6.982   5.649  16.536  0.00  0.00    +0.000 N 
ATOM     14  O   UNL     1       7.463   6.788  16.590  0.00  0.00    +0.000 OA
ENDBRANCH   6  13
BRANCH  10  15
ATOM     15  N   UNL     1       3.215   2.688  17.839  0.00  0.00    +0.000 N 
ATOM     16  O   UNL     1       2.137   2.429  17.291  0.00  0.00    +0.000 OA
ATOM     17  O   UNL     1       3.856   1.901  18.548  0.00  0.00    +0.000 OA
ENDBRANCH  10  15
ENDBRANCH   1   8
BRANCH   4  18
ATOM     18  S   UNL     1       0.759   9.477  20.742  0.00  0.00    +0.000 S 
BRANCH  18  19
ATOM     19  C   UNL     1      -0.666  10.395  20.082  0.00  0.00    +0.000 C 
BRANCH  19  20
ATOM     20  C   UNL     1      -0.493  11.819  20.611  0.00  0.00    +0.000 C 
BRANCH  20  21
ATOM     21  C   UNL     1       0.826  12.500  20.233  0.00  0.00    +0.000 C 
BRANCH  21  22
ATOM     22  N   UNL     1       0.817  12.903  18.813  0.00  0.00    +0.000 NA
ATOM     23  C   UNL     1       2.152  13.170  18.232  0.00  0.00    +0.000 C 
ATOM     24  C   UNL     1       2.786  14.500  18.671  0.00  0.00    +0.000 C 
ATOM     25  O   UNL     1       1.911  15.610  18.436  0.00  0.00    +0.000 OA
ATOM     26  C   UNL     1       0.635  15.407  19.055  0.00  0.00    +0.000 C 
ATOM     27  C   UNL     1      -0.017  14.101  18.575  0.00  0.00    +0.000 C 
ENDBRANCH  21  22
ENDBRANCH  20  21
ENDBRANCH  19  20
ENDBRANCH  18  19
ENDBRANCH   4  18
TORSDOF 8
ENDMDL
MODEL 4
REMARK VINA RESULT:      -7.2      2.572      9.130
REMARK  Name = 
REMARK  8 active torsions:
REMARK  status: ('A' for Active; 'I' for Inactive)
REMARK    1  A    between atoms: N_2  and  C_4
REMARK    2  A    between atoms: C_6  and  C_7
REMARK    3  A    between atoms: C_10  and  S_11
REMARK    4  A    between atoms: S_11  and  C_12
REMARK    5  A    between atoms: C_12  and  C_13
REMARK    6  A    between atoms: C_13  and  C_14
REMARK    7  A    between atoms: C_14  and  N_15
REMARK    8  A    between atoms: C_23  and  N_24
REMARK                            x       y       z     vdW  Elec       q    Type
REMARK                         _______ _______ _______ _____ _____    ______ ____
ROOT
ATOM      1  C   UNL     1       1.418   9.206  18.719  0.00  0.00    +0.000 A 
ATOM      2  N   UNL     1       2.125   9.173  17.611  0.00  0.00    +0.000 NA
ATOM      3  N   UNL     1       2.892   8.023  17.672  0.00  0.00    +0.000 NA
ATOM      4  C   UNL     1       2.587   7.433  18.810  0.00  0.00    +0.000 A 
ATOM      5  O   UNL     1       1.664   8.138  19.530  0.00  0.00    +0.000 OA
ENDROOT
BRANCH   1   8
ATOM      6  C   UNL     1      -1.736  11.259  18.812  0.00  0.00    +0.000 A 
ATOM      7  C   UNL     1      -0.724  10.392  18.367  0.00  0.00    +0.000 A 
ATOM      8  C   UNL     1       0.395  10.147  19.169  0.00  0.00    +0.000 A 
ATOM      9  C   UNL     1       0.502  10.792  20.415  0.00  0.00    +0.000 A 
ATOM     10  C   UNL     1      -0.514  11.662  20.849  0.00  0.00    +0.000 A 
ATOM     11  C   UNL     1      -1.640  11.900  20.053  0.00  0.00    +0.000 A 
BRANCH   6  13
ATOM     12  O   UNL     1      -2.778  11.343  16.743  0.00  0.00    +0.000 OA
ATOM     13  N   UNL     1      -2.915  11.483  17.966  0.00  0.00    +0.000 N 
ATOM     14  O   UNL     1      -3.972  11.795  18.528  0.00  0.00    +0.000 OA
ENDBRANCH   6  13
BRANCH  10  15
ATOM     15  N   UNL     1      -0.391  12.321  22.159  0.00  0.00    +0.000 N 
ATOM     16  O   UNL     1      -0.954  11.790  23.124  0.00  0.00    +0.000 OA
ATOM     17  O   UNL     1       0.267  13.369  22.212  0.00  0.00    +0.000 OA
ENDBRANCH  10  15
ENDBRANCH   1   8
BRANCH   4  18
ATOM     18  S   UNL     1       3.165   5.909  19.368  0.00  0.00    +0.000 S 
BRANCH  18  19
ATOM     19  C   UNL     1       2.189   4.710  18.409  0.00  0.00    +0.000 C 
BRANCH  19  20
ATOM     20  C   UNL     1       3.226   3.842  17.696  0.00  0.00    +0.000 C 
BRANCH  20  21
ATOM     21  C   UNL     1       4.200   4.602  16.788  0.00  0.00    +0.000 C 
BRANCH  21  22
ATOM     22  N   UNL     1       5.533   3.970  16.809  0.00  0.00    +0.000 NA
ATOM     23  C   UNL     1       6.563   4.710  17.575  0.00  0.00    +0.000 C 
ATOM     24  C   UNL     1       7.099   5.968  16.873  0.00  0.00    +0.000 C 
ATOM     25  O   UNL     1       7.574   5.680  15.552  0.00  0.00    +0.000 OA
ATOM     26  C   UNL     1       6.568   5.030  14.768  0.00  0.00    +0.000 C 
ATOM     27  C   UNL     1       6.070   3.746  15.449  0.00  0.00    +0.000 C 
ENDBRANCH  21  22
ENDBRANCH  20  21
ENDBRANCH  19  20
ENDBRANCH  18  19
ENDBRANCH   4  18
TORSDOF 8
ENDMDL
MODEL 5
REMARK VINA RESULT:      -7.1      3.519      5.535
REMARK  Name = 
REMARK  8 active torsions:
REMARK  status: ('A' for Active; 'I' for Inactive)
REMARK    1  A    between atoms: N_2  and  C_4
REMARK    2  A    between atoms: C_6  and  C_7
REMARK    3  A    between atoms: C_10  and  S_11
REMARK    4  A    between atoms: S_11  and  C_12
REMARK    5  A    between atoms: C_12  and  C_13
REMARK    6  A    between atoms: C_13  and  C_14
REMARK    7  A    between atoms: C_14  and  N_15
REMARK    8  A    between atoms: C_23  and  N_24
REMARK                            x       y       z     vdW  Elec       q    Type
REMARK                         _______ _______ _______ _____ _____    ______ ____
ROOT
ATOM      1  C   UNL     1       3.823   3.726  17.208  0.00  0.00    +0.000 A 
ATOM      2  N   UNL     1       2.656   3.476  16.656  0.00  0.00    +0.000 NA
ATOM      3  N   UNL     1       1.881   2.880  17.635  0.00  0.00    +0.000 NA
ATOM      4  C   UNL     1       2.631   2.821  18.717  0.00  0.00    +0.000 A 
ATOM      5  O   UNL     1       3.881   3.331  18.512  0.00  0.00    +0.000 OA
ENDROOT
BRANCH   1   8
ATOM      6  C   UNL     1       6.521   4.825  14.825  0.00  0.00    +0.000 A 
ATOM      7  C   UNL     1       5.415   4.147  15.362  0.00  0.00    +0.000 A 
ATOM      8  C   UNL     1       5.004   4.399  16.675  0.00  0.00    +0.000 A 
ATOM      9  C   UNL     1       5.723   5.325  17.453  0.00  0.00    +0.000 A 
ATOM     10  C   UNL     1       6.833   5.995  16.907  0.00  0.00    +0.000 A 
ATOM     11  C   UNL     1       7.238   5.752  15.590  0.00  0.00    +0.000 A 
BRANCH   6  13
ATOM     12  O   UNL     1       7.751   5.328  12.924  0.00  0.00    +0.000 OA
ATOM     13  N   UNL     1       6.920   4.565  13.436  0.00  0.00    +0.000 N 
ATOM     14  O   UNL     1       6.401   3.598  12.863  0.00  0.00    +0.000 OA
ENDBRANCH   6  13
BRANCH  10  15
ATOM     15  N   UNL     1       7.568   6.968  17.733  0.00  0.00    +0.000 N 
ATOM     16  O   UNL     1       8.033   6.571  18.808  0.00  0.00    +0.000 OA
ATOM     17  O   UNL     1       7.671   8.123  17.299  0.00  0.00    +0.000 OA
ENDBRANCH  10  15
ENDBRANCH   1   8
BRANCH   4  18
ATOM     18  S   UNL     1       2.150   2.263  20.275  0.00  0.00    +0.000 S 
BRANCH  18  19
ATOM     19  C   UNL     1       1.077   3.599  20.889  0.00  0.00    +0.000 C 
BRANCH  19  20
ATOM     20  C   UNL     1       1.954   4.850  20.854  0.00  0.00    +0.000 C 
BRANCH  20  21
ATOM     21  C   UNL     1       1.449   5.976  19.945  0.00  0.00    +0.000 C 
BRANCH  21  22
ATOM     22  N   UNL     1       2.357   7.138  20.001  0.00  0.00    +0.000 NA
ATOM     23  C   UNL     1       1.800   8.334  20.672  0.00  0.00    +0.000 C 
ATOM     24  C   UNL     1       0.759   9.105  19.843  0.00  0.00    +0.000 C 
ATOM     25  O   UNL     1       1.262   9.453  18.547  0.00  0.00    +0.000 OA
ATOM     26  C   UNL     1       1.739   8.297  17.848  0.00  0.00    +0.000 C 
ATOM     27  C   UNL     1       2.814   7.557  18.658  0.00  0.00    +0.000 C 
ENDBRANCH  21  22
ENDBRANCH  20  21
ENDBRANCH  19  20
ENDBRANCH  18  19
ENDBRANCH   4  18
TORSDOF 8
ENDMDL
MODEL 6
REMARK VINA RESULT:      -7.1      2.538      3.412
REMARK  Name = 
REMARK  8 active torsions:
REMARK  status: ('A' for Active; 'I' for Inactive)
REMARK    1  A    between atoms: N_2  and  C_4
REMARK    2  A    between atoms: C_6  and  C_7
REMARK    3  A    between atoms: C_10  and  S_11
REMARK    4  A    between atoms: S_11  and  C_12
REMARK    5  A    between atoms: C_12  and  C_13
REMARK    6  A    between atoms: C_13  and  C_14
REMARK    7  A    between atoms: C_14  and  N_15
REMARK    8  A    between atoms: C_23  and  N_24
REMARK                            x       y       z     vdW  Elec       q    Type
REMARK                         _______ _______ _______ _____ _____    ______ ____
ROOT
ATOM      1  C   UNL     1       2.738   7.665  18.055  0.00  0.00    +0.000 A 
ATOM      2  N   UNL     1       2.531   8.693  17.261  0.00  0.00    +0.000 NA
ATOM      3  N   UNL     1       1.730   9.575  17.964  0.00  0.00    +0.000 NA
ATOM      4  C   UNL     1       1.515   9.024  19.141  0.00  0.00    +0.000 A 
ATOM      5  O   UNL     1       2.118   7.803  19.262  0.00  0.00    +0.000 OA
ENDROOT
BRANCH   1   8
ATOM      6  C   UNL     1       3.750   4.048  17.821  0.00  0.00    +0.000 A 
ATOM      7  C   UNL     1       2.983   5.204  18.041  0.00  0.00    +0.000 A 
ATOM      8  C   UNL     1       3.555   6.470  17.872  0.00  0.00    +0.000 A 
ATOM      9  C   UNL     1       4.908   6.568  17.497  0.00  0.00    +0.000 A 
ATOM     10  C   UNL     1       5.668   5.403  17.284  0.00  0.00    +0.000 A 
ATOM     11  C   UNL     1       5.094   4.137  17.441  0.00  0.00    +0.000 A 
BRANCH   6  13
ATOM     12  O   UNL     1       2.175   2.452  17.231  0.00  0.00    +0.000 OA
ATOM     13  N   UNL     1       3.123   2.729  17.978  0.00  0.00    +0.000 N 
ATOM     14  O   UNL     1       3.582   1.977  18.847  0.00  0.00    +0.000 OA
ENDBRANCH   6  13
BRANCH  10  15
ATOM     15  N   UNL     1       7.079   5.524  16.883  0.00  0.00    +0.000 N 
ATOM     16  O   UNL     1       7.815   4.549  17.074  0.00  0.00    +0.000 OA
ATOM     17  O   UNL     1       7.441   6.598  16.383  0.00  0.00    +0.000 OA
ENDBRANCH  10  15
ENDBRANCH   1   8
BRANCH   4  18
ATOM     18  S   UNL     1       0.663   9.722  20.467  0.00  0.00    +0.000 S 
BRANCH  18  19
ATOM     19  C   UNL     1      -0.746  10.554  19.671  0.00  0.00    +0.000 C 
BRANCH  19  20
ATOM     20  C   UNL     1      -0.677  11.999  20.165  0.00  0.00    +0.000 C 
BRANCH  20  21
ATOM     21  C   UNL     1      -2.007  12.589  20.645  0.00  0.00    +0.000 C 
BRANCH  21  22
ATOM     22  N   UNL     1      -2.321  12.123  22.010  0.00  0.00    +0.000 NA
ATOM     23  C   UNL     1      -3.580  12.658  22.577  0.00  0.00    +0.000 C 
ATOM     24  C   UNL     1      -3.505  14.126  23.026  0.00  0.00    +0.000 C 
ATOM     25  O   UNL     1      -2.418  14.352  23.932  0.00  0.00    +0.000 OA
ATOM     26  C   UNL     1      -1.175  13.910  23.372  0.00  0.00    +0.000 C 
ATOM     27  C   UNL     1      -1.239  12.428  22.970  0.00  0.00    +0.000 C 
ENDBRANCH  21  22
ENDBRANCH  20  21
ENDBRANCH  19  20
ENDBRANCH  18  19
ENDBRANCH   4  18
TORSDOF 8
ENDMDL
MODEL 7
REMARK VINA RESULT:      -7.1      1.416      3.110
REMARK  Name = 
REMARK  8 active torsions:
REMARK  status: ('A' for Active; 'I' for Inactive)
REMARK    1  A    between atoms: N_2  and  C_4
REMARK    2  A    between atoms: C_6  and  C_7
REMARK    3  A    between atoms: C_10  and  S_11
REMARK    4  A    between atoms: S_11  and  C_12
REMARK    5  A    between atoms: C_12  and  C_13
REMARK    6  A    between atoms: C_13  and  C_14
REMARK    7  A    between atoms: C_14  and  N_15
REMARK    8  A    between atoms: C_23  and  N_24
REMARK                            x       y       z     vdW  Elec       q    Type
REMARK                         _______ _______ _______ _____ _____    ______ ____
ROOT
ATOM      1  C   UNL     1       2.099   7.498  19.491  0.00  0.00    +0.000 A 
ATOM      2  N   UNL     1       1.616   7.531  20.714  0.00  0.00    +0.000 NA
ATOM      3  N   UNL     1       1.078   8.794  20.888  0.00  0.00    +0.000 NA
ATOM      4  C   UNL     1       1.262   9.435  19.752  0.00  0.00    +0.000 A 
ATOM      5  O   UNL     1       1.916   8.674  18.825  0.00  0.00    +0.000 OA
ENDROOT
BRANCH   1   8
ATOM      6  C   UNL     1       4.358   5.651  17.114  0.00  0.00    +0.000 A 
ATOM      7  C   UNL     1       3.721   6.695  17.805  0.00  0.00    +0.000 A 
ATOM      8  C   UNL     1       2.721   6.411  18.742  0.00  0.00    +0.000 A 
ATOM      9  C   UNL     1       2.351   5.072  18.967  0.00  0.00    +0.000 A 
ATOM     10  C   UNL     1       2.992   4.035  18.265  0.00  0.00    +0.000 A 
ATOM     11  C   UNL     1       4.000   4.317  17.337  0.00  0.00    +0.000 A 
BRANCH   6  13
ATOM     12  O   UNL     1       5.171   6.804  15.274  0.00  0.00    +0.000 OA
ATOM     13  N   UNL     1       5.423   5.970  16.154  0.00  0.00    +0.000 N 
ATOM     14  O   UNL     1       6.506   5.385  16.286  0.00  0.00    +0.000 OA
ENDBRANCH   6  13
BRANCH  10  15
ATOM     15  N   UNL     1       2.599   2.639  18.520  0.00  0.00    +0.000 N 
ATOM     16  O   UNL     1       1.949   2.405  19.546  0.00  0.00    +0.000 OA
ATOM     17  O   UNL     1       2.948   1.787  17.692  0.00  0.00    +0.000 OA
ENDBRANCH  10  15
ENDBRANCH   1   8
BRANCH   4  18
ATOM     18  S   UNL     1       0.704  11.018  19.360  0.00  0.00    +0.000 S 
BRANCH  18  19
ATOM     19  C   UNL     1      -0.865  11.150  20.273  0.00  0.00    +0.000 C 
BRANCH  19  20
ATOM     20  C   UNL     1      -1.593  12.331  19.631  0.00  0.00    +0.000 C 
BRANCH  20  21
ATOM     21  C   UNL     1      -2.043  12.112  18.183  0.00  0.00    +0.000 C 
BRANCH  21  22
ATOM     22  N   UNL     1      -2.697  10.798  18.033  0.00  0.00    +0.000 NA
ATOM     23  C   UNL     1      -2.210   9.985  16.895  0.00  0.00    +0.000 C 
ATOM     24  C   UNL     1      -2.699  10.458  15.516  0.00  0.00    +0.000 C 
ATOM     25  O   UNL     1      -4.127  10.574  15.468  0.00  0.00    +0.000 OA
ATOM     26  C   UNL     1      -4.615  11.419  16.517  0.00  0.00    +0.000 C 
ATOM     27  C   UNL     1      -4.165  10.915  17.897  0.00  0.00    +0.000 C 
ENDBRANCH  21  22
ENDBRANCH  20  21
ENDBRANCH  19  20
ENDBRANCH  18  19
ENDBRANCH   4  18
TORSDOF 8
ENDMDL
MODEL 8
REMARK VINA RESULT:      -7.1      2.487      3.855
REMARK  Name = 
REMARK  8 active torsions:
REMARK  status: ('A' for Active; 'I' for Inactive)
REMARK    1  A    between atoms: N_2  and  C_4
REMARK    2  A    between atoms: C_6  and  C_7
REMARK    3  A    between atoms: C_10  and  S_11
REMARK    4  A    between atoms: S_11  and  C_12
REMARK    5  A    between atoms: C_12  and  C_13
REMARK    6  A    between atoms: C_13  and  C_14
REMARK    7  A    between atoms: C_14  and  N_15
REMARK    8  A    between atoms: C_23  and  N_24
REMARK                            x       y       z     vdW  Elec       q    Type
REMARK                         _______ _______ _______ _____ _____    ______ ____
ROOT
ATOM      1  C   UNL     1       2.709   7.666  18.096  0.00  0.00    +0.000 A 
ATOM      2  N   UNL     1       2.497   8.742  17.370  0.00  0.00    +0.000 NA
ATOM      3  N   UNL     1       1.719   9.586  18.143  0.00  0.00    +0.000 NA
ATOM      4  C   UNL     1       1.524   8.966  19.289  0.00  0.00    +0.000 A 
ATOM      5  O   UNL     1       2.116   7.735  19.322  0.00  0.00    +0.000 OA
ENDROOT
BRANCH   1   8
ATOM      6  C   UNL     1       3.675   4.061  17.604  0.00  0.00    +0.000 A 
ATOM      7  C   UNL     1       2.925   5.208  17.911  0.00  0.00    +0.000 A 
ATOM      8  C   UNL     1       3.510   6.476  17.824  0.00  0.00    +0.000 A 
ATOM      9  C   UNL     1       4.861   6.584  17.443  0.00  0.00    +0.000 A 
ATOM     10  C   UNL     1       5.605   5.428  17.143  0.00  0.00    +0.000 A 
ATOM     11  C   UNL     1       5.017   4.161  17.219  0.00  0.00    +0.000 A 
BRANCH   6  13
ATOM     12  O   UNL     1       1.800   2.698  17.576  0.00  0.00    +0.000 OA
ATOM     13  N   UNL     1       3.034   2.742  17.677  0.00  0.00    +0.000 N 
ATOM     14  O   UNL     1       3.767   1.757  17.833  0.00  0.00    +0.000 OA
ENDBRANCH   6  13
BRANCH  10  15
ATOM     15  N   UNL     1       7.014   5.560  16.738  0.00  0.00    +0.000 N 
ATOM     16  O   UNL     1       7.467   6.703  16.604  0.00  0.00    +0.000 OA
ATOM     17  O   UNL     1       7.655   4.517  16.553  0.00  0.00    +0.000 OA
ENDBRANCH  10  15
ENDBRANCH   1   8
BRANCH   4  18
ATOM     18  S   UNL     1       0.706   9.589  20.672  0.00  0.00    +0.000 S 
BRANCH  18  19
ATOM     19  C   UNL     1      -0.390  10.864  19.975  0.00  0.00    +0.000 C 
BRANCH  19  20
ATOM     20  C   UNL     1       0.273  12.192  20.339  0.00  0.00    +0.000 C 
BRANCH  20  21
ATOM     21  C   UNL     1       0.915  12.944  19.168  0.00  0.00    +0.000 C 
BRANCH  21  22
ATOM     22  N   UNL     1       2.363  13.120  19.391  0.00  0.00    +0.000 NA
ATOM     23  C   UNL     1       2.726  13.702  20.703  0.00  0.00    +0.000 C 
ATOM     24  C   UNL     1       2.459  15.211  20.828  0.00  0.00    +0.000 C 
ATOM     25  O   UNL     1       3.076  15.951  19.768  0.00  0.00    +0.000 OA
ATOM     26  C   UNL     1       2.679  15.452  18.485  0.00  0.00    +0.000 C 
ATOM     27  C   UNL     1       2.994  13.955  18.346  0.00  0.00    +0.000 C 
ENDBRANCH  21  22
ENDBRANCH  20  21
ENDBRANCH  19  20
ENDBRANCH  18  19
ENDBRANCH   4  18
TORSDOF 8
ENDMDL
MODEL 9
REMARK VINA RESULT:      -7.0      3.010      8.727
REMARK  Name = 
REMARK  8 active torsions:
REMARK  status: ('A' for Active; 'I' for Inactive)
REMARK    1  A    between atoms: N_2  and  C_4
REMARK    2  A    between atoms: C_6  and  C_7
REMARK    3  A    between atoms: C_10  and  S_11
REMARK    4  A    between atoms: S_11  and  C_12
REMARK    5  A    between atoms: C_12  and  C_13
REMARK    6  A    between atoms: C_13  and  C_14
REMARK    7  A    between atoms: C_14  and  N_15
REMARK    8  A    between atoms: C_23  and  N_24
REMARK                            x       y       z     vdW  Elec       q    Type
REMARK                         _______ _______ _______ _____ _____    ______ ____
ROOT
ATOM      1  C   UNL     1       1.950   8.704  18.770  0.00  0.00    +0.000 A 
ATOM      2  N   UNL     1       2.383   8.684  17.529  0.00  0.00    +0.000 NA
ATOM      3  N   UNL     1       3.195   7.569  17.416  0.00  0.00    +0.000 NA
ATOM      4  C   UNL     1       3.187   6.984  18.596  0.00  0.00    +0.000 A 
ATOM      5  O   UNL     1       2.425   7.659  19.507  0.00  0.00    +0.000 OA
ENDROOT
BRANCH   1   8
ATOM      6  C   UNL     1      -0.609  11.408  19.322  0.00  0.00    +0.000 A 
ATOM      7  C   UNL     1       0.325  10.567  18.695  0.00  0.00    +0.000 A 
ATOM      8  C   UNL     1       1.018   9.606  19.439  0.00  0.00    +0.000 A 
ATOM      9  C   UNL     1       0.779   9.506  20.823  0.00  0.00    +0.000 A 
ATOM     10  C   UNL     1      -0.155  10.357  21.442  0.00  0.00    +0.000 A 
ATOM     11  C   UNL     1      -0.856  11.310  20.697  0.00  0.00    +0.000 A 
BRANCH   6  13
ATOM     12  O   UNL     1      -1.013  13.581  18.623  0.00  0.00    +0.000 OA
ATOM     13  N   UNL     1      -1.344  12.392  18.518  0.00  0.00    +0.000 N 
ATOM     14  O   UNL     1      -2.247  11.972  17.784  0.00  0.00    +0.000 OA
ENDBRANCH   6  13
BRANCH  10  15
ATOM     15  N   UNL     1      -0.398  10.232  22.888  0.00  0.00    +0.000 N 
ATOM     16  O   UNL     1      -1.460  10.686  23.332  0.00  0.00    +0.000 OA
ATOM     17  O   UNL     1       0.478   9.683  23.570  0.00  0.00    +0.000 OA
ENDBRANCH  10  15
ENDBRANCH   1   8
BRANCH   4  18
ATOM     18  S   UNL     1       3.948   5.495  19.013  0.00  0.00    +0.000 S 
BRANCH  18  19
ATOM     19  C   UNL     1       4.721   4.964  17.453  0.00  0.00    +0.000 C 
BRANCH  19  20
ATOM     20  C   UNL     1       3.907   3.750  17.007  0.00  0.00    +0.000 C 
BRANCH  20  21
ATOM     21  C   UNL     1       2.451   3.727  17.483  0.00  0.00    +0.000 C 
BRANCH  21  22
ATOM     22  N   UNL     1       2.093   2.394  18.005  0.00  0.00    +0.000 NA
ATOM     23  C   UNL     1       0.852   2.351  18.810  0.00  0.00    +0.000 C 
ATOM     24  C   UNL     1       0.987   2.939  20.225  0.00  0.00    +0.000 C 
ATOM     25  O   UNL     1       2.069   2.340  20.949  0.00  0.00    +0.000 OA
ATOM     26  C   UNL     1       3.299   2.437  20.220  0.00  0.00    +0.000 C 
ATOM     27  C   UNL     1       3.173   1.804  18.825  0.00  0.00    +0.000 C 
ENDBRANCH  21  22
ENDBRANCH  20  21
ENDBRANCH  19  20
ENDBRANCH  18  19
ENDBRANCH   4  18
TORSDOF 8
ENDMDL
