MODEL 1
REMARK VINA RESULT:      -7.3      0.000      0.000
REMARK  Name = 
REMARK  7 active torsions:
REMARK  status: ('A' for Active; 'I' for Inactive)
REMARK    1  A    between atoms: C_1  and  C_2
REMARK    2  A    between atoms: C_10  and  C_11
REMARK    3  A    between atoms: N_14  and  C_15
REMARK    4  A    between atoms: C_19  and  C_20
REMARK    5  A    between atoms: C_28  and  C_29
REMARK    6  A    between atoms: C_29  and  C_30
REMARK    7  A    between atoms: C_30  and  O_32
REMARK                            x       y       z     vdW  Elec       q    Type
REMARK                         _______ _______ _______ _____ _____    ______ ____
ROOT
ATOM      1  C   UNL     1      -3.380  13.249  23.274  0.00  0.00    +0.000 C 
ATOM      2  C   UNL     1      -3.497  12.823  21.859  0.00  0.00    +0.000 A 
ATOM      3  N   UNL     1      -4.690  12.442  21.381  0.00  0.00    +0.000 NA
ATOM      4  O   UNL     1      -4.472  12.062  20.071  0.00  0.00    +0.000 OA
ATOM      5  C   UNL     1      -3.159  12.220  19.771  0.00  0.00    +0.000 A 
ATOM      6  C   UNL     1      -2.490  12.714  20.862  0.00  0.00    +0.000 A 
ATOM      7  C   UNL     1      -1.078  13.031  20.800  0.00  0.00    +0.000 A 
ATOM      8  C   UNL     1      -0.608  14.143  21.516  0.00  0.00    +0.000 A 
ATOM      9  C   UNL     1       0.735  14.521  21.471  0.00  0.00    +0.000 A 
ATOM     10  C   UNL     1       1.639  13.822  20.672  0.00  0.00    +0.000 A 
ATOM     11  C   UNL     1       1.172  12.739  19.919  0.00  0.00    +0.000 A 
ATOM     12  C   UNL     1      -0.171  12.308  19.999  0.00  0.00    +0.000 A 
ATOM     13  C   UNL     1      -0.529  11.036  19.257  0.00  0.00    +0.000 C 
ATOM     14  N   UNL     1      -1.613  10.811  18.580  0.00  0.00    +0.000 NA
ATOM     15  C   UNL     1      -2.659  11.847  18.426  0.00  0.00    +0.000 C 
ENDROOT
BRANCH  13  16
ATOM     16  C   UNL     1       0.488   9.920  19.281  0.00  0.00    +0.000 A 
ATOM     17  C   UNL     1       1.163   9.525  18.116  0.00  0.00    +0.000 A 
ATOM     18  C   UNL     1       1.987   8.396  18.130  0.00  0.00    +0.000 A 
ATOM     19  C   UNL     1       2.176   7.689  19.316  0.00  0.00    +0.000 A 
ATOM     20 CL   UNL     1       3.161   6.280  19.321  0.00  0.00    +0.000 Cl
ATOM     21  C   UNL     1       1.557   8.106  20.491  0.00  0.00    +0.000 A 
ATOM     22  C   UNL     1       0.709   9.217  20.473  0.00  0.00    +0.000 A 
ENDBRANCH  13  16
BRANCH  10  23
ATOM     23  C   UNL     1       3.031  14.228  20.627  0.00  0.00    +0.000 A 
ATOM     24  C   UNL     1       3.984  14.334  21.665  0.00  0.00    +0.000 A 
ATOM     25  N   UNL     1       5.186  14.711  21.227  0.00  0.00    +0.000 NA
ATOM     26  N   UNL     1       5.008  14.850  19.902  0.00  0.00    +0.000 N 
ATOM     27  C   UNL     1       6.118  15.241  19.066  0.00  0.00    +0.000 C 
ATOM     28  C   UNL     1       3.733  14.574  19.490  0.00  0.00    +0.000 A 
ENDBRANCH  10  23
BRANCH  15  29
ATOM     29  C   UNL     1      -3.760  11.282  17.527  0.00  0.00    +0.000 C 
BRANCH  29  30
ATOM     30  C   UNL     1      -3.201  10.745  16.240  0.00  0.00    +0.000 C 
ATOM     31  O   UNL     1      -3.218  11.345  15.176  0.00  0.00    +0.000 OA
BRANCH  30  32
ATOM     32  O   UNL     1      -2.703   9.489  16.357  0.00  0.00    +0.000 OA
ATOM     33  H   UNL     1      -3.019   9.100  17.207  0.00  0.00    +0.000 HD
ENDBRANCH  30  32
ENDBRANCH  29  30
ENDBRANCH  15  29
TORSDOF 5
ENDMDL
MODEL 2
REMARK VINA RESULT:      -7.1      0.800      1.365
REMARK  Name = 
REMARK  7 active torsions:
REMARK  status: ('A' for Active; 'I' for Inactive)
REMARK    1  A    between atoms: C_1  and  C_2
REMARK    2  A    between atoms: C_10  and  C_11
REMARK    3  A    between atoms: N_14  and  C_15
REMARK    4  A    between atoms: C_19  and  C_20
REMARK    5  A    between atoms: C_28  and  C_29
REMARK    6  A    between atoms: C_29  and  C_30
REMARK    7  A    between atoms: C_30  and  O_32
REMARK                            x       y       z     vdW  Elec       q    Type
REMARK                         _______ _______ _______ _____ _____    ______ ____
ROOT
ATOM      1  C   UNL     1      -3.819  13.286  22.735  0.00  0.00    +0.000 C 
ATOM      2  C   UNL     1      -3.894  12.803  21.336  0.00  0.00    +0.000 A 
ATOM      3  N   UNL     1      -5.074  12.411  20.836  0.00  0.00    +0.000 NA
ATOM      4  O   UNL     1      -4.818  11.977  19.550  0.00  0.00    +0.000 OA
ATOM      5  C   UNL     1      -3.495  12.114  19.286  0.00  0.00    +0.000 A 
ATOM      6  C   UNL     1      -2.857  12.647  20.377  0.00  0.00    +0.000 A 
ATOM      7  C   UNL     1      -1.441  12.953  20.347  0.00  0.00    +0.000 A 
ATOM      8  C   UNL     1      -0.985  14.090  21.032  0.00  0.00    +0.000 A 
ATOM      9  C   UNL     1       0.361  14.456  21.015  0.00  0.00    +0.000 A 
ATOM     10  C   UNL     1       1.285  13.720  20.274  0.00  0.00    +0.000 A 
ATOM     11  C   UNL     1       0.833  12.610  19.551  0.00  0.00    +0.000 A 
ATOM     12  C   UNL     1      -0.514  12.191  19.605  0.00  0.00    +0.000 A 
ATOM     13  C   UNL     1      -0.859  10.893  18.904  0.00  0.00    +0.000 C 
ATOM     14  N   UNL     1      -1.923  10.647  18.203  0.00  0.00    +0.000 NA
ATOM     15  C   UNL     1      -2.956  11.683  17.974  0.00  0.00    +0.000 C 
ENDROOT
BRANCH  13  16
ATOM     16  C   UNL     1       0.148   9.772  19.006  0.00  0.00    +0.000 A 
ATOM     17  C   UNL     1       0.450   9.174  20.238  0.00  0.00    +0.000 A 
ATOM     18  C   UNL     1       1.490   8.245  20.333  0.00  0.00    +0.000 A 
ATOM     19  C   UNL     1       2.198   7.877  19.190  0.00  0.00    +0.000 A 
ATOM     20 CL   UNL     1       3.500   6.762  19.316  0.00  0.00    +0.000 Cl
ATOM     21  C   UNL     1       1.869   8.420  17.951  0.00  0.00    +0.000 A 
ATOM     22  C   UNL     1       0.850   9.372  17.859  0.00  0.00    +0.000 A 
ENDBRANCH  13  16
BRANCH  10  23
ATOM     23  C   UNL     1       2.680  14.114  20.257  0.00  0.00    +0.000 A 
ATOM     24  C   UNL     1       3.457  14.681  19.221  0.00  0.00    +0.000 A 
ATOM     25  N   UNL     1       4.709  14.942  19.596  0.00  0.00    +0.000 NA
ATOM     26  N   UNL     1       4.744  14.540  20.878  0.00  0.00    +0.000 N 
ATOM     27  C   UNL     1       5.960  14.683  21.641  0.00  0.00    +0.000 C 
ATOM     28  C   UNL     1       3.553  14.034  21.323  0.00  0.00    +0.000 A 
ENDBRANCH  10  23
BRANCH  15  29
ATOM     29  C   UNL     1      -4.031  11.088  17.064  0.00  0.00    +0.000 C 
BRANCH  29  30
ATOM     30  C   UNL     1      -3.523  10.886  15.665  0.00  0.00    +0.000 C 
ATOM     31  O   UNL     1      -4.013  10.113  14.856  0.00  0.00    +0.000 OA
BRANCH  30  32
ATOM     32  O   UNL     1      -2.419  11.625  15.387  0.00  0.00    +0.000 OA
ATOM     33  H   UNL     1      -1.621  11.053  15.491  0.00  0.00    +0.000 HD
ENDBRANCH  30  32
ENDBRANCH  29  30
ENDBRANCH  15  29
TORSDOF 5
ENDMDL
MODEL 3
REMARK VINA RESULT:      -7.0      1.004      1.342
REMARK  Name = 
REMARK  7 active torsions:
REMARK  status: ('A' for Active; 'I' for Inactive)
REMARK    1  A    between atoms: C_1  and  C_2
REMARK    2  A    between atoms: C_10  and  C_11
REMARK    3  A    between atoms: N_14  and  C_15
REMARK    4  A    between atoms: C_19  and  C_20
REMARK    5  A    between atoms: C_28  and  C_29
REMARK    6  A    between atoms: C_29  and  C_30
REMARK    7  A    between atoms: C_30  and  O_32
REMARK                            x       y       z     vdW  Elec       q    Type
REMARK                         _______ _______ _______ _____ _____    ______ ____
ROOT
ATOM      1  C   UNL     1      -1.989  13.990  23.721  0.00  0.00    +0.000 C 
ATOM      2  C   UNL     1      -2.494  13.414  22.452  0.00  0.00    +0.000 A 
ATOM      3  N   UNL     1      -3.779  13.044  22.361  0.00  0.00    +0.000 NA
ATOM      4  O   UNL     1      -3.932  12.509  21.096  0.00  0.00    +0.000 OA
ATOM      5  C   UNL     1      -2.748  12.564  20.439  0.00  0.00    +0.000 A 
ATOM      6  C   UNL     1      -1.798  13.143  21.243  0.00  0.00    +0.000 A 
ATOM      7  C   UNL     1      -0.450  13.378  20.767  0.00  0.00    +0.000 A 
ATOM      8  C   UNL     1       0.218  14.538  21.191  0.00  0.00    +0.000 A 
ATOM      9  C   UNL     1       1.505  14.838  20.743  0.00  0.00    +0.000 A 
ATOM     10  C   UNL     1       2.145  14.009  19.822  0.00  0.00    +0.000 A 
ATOM     11  C   UNL     1       1.470  12.873  19.359  0.00  0.00    +0.000 A 
ATOM     12  C   UNL     1       0.191  12.523  19.847  0.00  0.00    +0.000 A 
ATOM     13  C   UNL     1      -0.379  11.196  19.389  0.00  0.00    +0.000 C 
ATOM     14  N   UNL     1      -1.610  10.953  19.060  0.00  0.00    +0.000 NA
ATOM     15  C   UNL     1      -2.639  12.018  19.066  0.00  0.00    +0.000 C 
ENDROOT
BRANCH  13  16
ATOM     16  C   UNL     1       0.585  10.040  19.276  0.00  0.00    +0.000 A 
ATOM     17  C   UNL     1       1.099   9.639  18.034  0.00  0.00    +0.000 A 
ATOM     18  C   UNL     1       1.870   8.477  17.933  0.00  0.00    +0.000 A 
ATOM     19  C   UNL     1       2.167   7.741  19.078  0.00  0.00    +0.000 A 
ATOM     20 CL   UNL     1       3.085   6.293  18.946  0.00  0.00    +0.000 Cl
ATOM     21  C   UNL     1       1.711   8.161  20.325  0.00  0.00    +0.000 A 
ATOM     22  C   UNL     1       0.915   9.305  20.424  0.00  0.00    +0.000 A 
ENDBRANCH  13  16
BRANCH  10  23
ATOM     23  C   UNL     1       3.479  14.335  19.358  0.00  0.00    +0.000 A 
ATOM     24  C   UNL     1       4.060  14.196  18.077  0.00  0.00    +0.000 A 
ATOM     25  N   UNL     1       5.315  14.642  18.026  0.00  0.00    +0.000 NA
ATOM     26  N   UNL     1       5.549  15.067  19.279  0.00  0.00    +0.000 N 
ATOM     27  C   UNL     1       6.828  15.645  19.614  0.00  0.00    +0.000 C 
ATOM     28  C   UNL     1       4.481  14.904  20.119  0.00  0.00    +0.000 A 
ENDBRANCH  10  23
BRANCH  15  29
ATOM     29  C   UNL     1      -3.953  11.412  18.570  0.00  0.00    +0.000 C 
BRANCH  29  30
ATOM     30  C   UNL     1      -4.180  11.701  17.113  0.00  0.00    +0.000 C 
ATOM     31  O   UNL     1      -5.254  12.028  16.632  0.00  0.00    +0.000 OA
BRANCH  30  32
ATOM     32  O   UNL     1      -3.070  11.521  16.354  0.00  0.00    +0.000 OA
ATOM     33  H   UNL     1      -3.126  12.110  15.564  0.00  0.00    +0.000 HD
ENDBRANCH  30  32
ENDBRANCH  29  30
ENDBRANCH  15  29
TORSDOF 5
ENDMDL
MODEL 4
REMARK VINA RESULT:      -6.9      0.682      1.236
REMARK  Name = 
REMARK  7 active torsions:
REMARK  status: ('A' for Active; 'I' for Inactive)
REMARK    1  A    between atoms: C_1  and  C_2
REMARK    2  A    between atoms: C_10  and  C_11
REMARK    3  A    between atoms: N_14  and  C_15
REMARK    4  A    between atoms: C_19  and  C_20
REMARK    5  A    between atoms: C_28  and  C_29
REMARK    6  A    between atoms: C_29  and  C_30
REMARK    7  A    between atoms: C_30  and  O_32
REMARK                            x       y       z     vdW  Elec       q    Type
REMARK                         _______ _______ _______ _____ _____    ______ ____
ROOT
ATOM      1  C   UNL     1      -3.448  13.638  22.701  0.00  0.00    +0.000 C 
ATOM      2  C   UNL     1      -3.630  13.049  21.353  0.00  0.00    +0.000 A 
ATOM      3  N   UNL     1      -4.848  12.636  20.973  0.00  0.00    +0.000 NA
ATOM      4  O   UNL     1      -4.691  12.099  19.710  0.00  0.00    +0.000 OA
ATOM      5  C   UNL     1      -3.391  12.196  19.340  0.00  0.00    +0.000 A 
ATOM      6  C   UNL     1      -2.669  12.803  20.336  0.00  0.00    +0.000 A 
ATOM      7  C   UNL     1      -1.256  13.085  20.179  0.00  0.00    +0.000 A 
ATOM      8  C   UNL     1      -0.741  14.265  20.737  0.00  0.00    +0.000 A 
ATOM      9  C   UNL     1       0.604  14.609  20.593  0.00  0.00    +0.000 A 
ATOM     10  C   UNL     1       1.463  13.804  19.846  0.00  0.00    +0.000 A 
ATOM     11  C   UNL     1       0.950  12.648  19.248  0.00  0.00    +0.000 A 
ATOM     12  C   UNL     1      -0.394  12.254  19.433  0.00  0.00    +0.000 A 
ATOM     13  C   UNL     1      -0.801  10.910  18.864  0.00  0.00    +0.000 C 
ATOM     14  N   UNL     1      -1.916  10.626  18.265  0.00  0.00    +0.000 NA
ATOM     15  C   UNL     1      -2.954  11.657  18.030  0.00  0.00    +0.000 C 
ENDROOT
BRANCH  13  16
ATOM     16  C   UNL     1       0.201   9.786  18.980  0.00  0.00    +0.000 A 
ATOM     17  C   UNL     1       0.548   9.246  20.227  0.00  0.00    +0.000 A 
ATOM     18  C   UNL     1       1.584   8.313  20.325  0.00  0.00    +0.000 A 
ATOM     19  C   UNL     1       2.242   7.882  19.175  0.00  0.00    +0.000 A 
ATOM     20 CL   UNL     1       3.539   6.762  19.303  0.00  0.00    +0.000 Cl
ATOM     21  C   UNL     1       1.866   8.368  17.925  0.00  0.00    +0.000 A 
ATOM     22  C   UNL     1       0.851   9.324  17.827  0.00  0.00    +0.000 A 
ENDBRANCH  13  16
BRANCH  10  23
ATOM     23  C   UNL     1       2.857  14.175  19.697  0.00  0.00    +0.000 A 
ATOM     24  C   UNL     1       3.822  14.513  20.673  0.00  0.00    +0.000 A 
ATOM     25  N   UNL     1       5.022  14.766  20.149  0.00  0.00    +0.000 NA
ATOM     26  N   UNL     1       4.832  14.593  18.829  0.00  0.00    +0.000 N 
ATOM     27  C   UNL     1       5.935  14.767  17.917  0.00  0.00    +0.000 C 
ATOM     28  C   UNL     1       3.550  14.240  18.505  0.00  0.00    +0.000 A 
ENDBRANCH  10  23
BRANCH  15  29
ATOM     29  C   UNL     1      -4.099  11.009  17.251  0.00  0.00    +0.000 C 
BRANCH  29  30
ATOM     30  C   UNL     1      -3.680  10.637  15.857  0.00  0.00    +0.000 C 
ATOM     31  O   UNL     1      -3.463   9.495  15.482  0.00  0.00    +0.000 OA
BRANCH  30  32
ATOM     32  O   UNL     1      -3.517  11.711  15.045  0.00  0.00    +0.000 OA
ATOM     33  H   UNL     1      -3.900  12.505  15.489  0.00  0.00    +0.000 HD
ENDBRANCH  30  32
ENDBRANCH  29  30
ENDBRANCH  15  29
TORSDOF 5
ENDMDL
MODEL 5
REMARK VINA RESULT:      -6.8      0.924      1.242
REMARK  Name = 
REMARK  7 active torsions:
REMARK  status: ('A' for Active; 'I' for Inactive)
REMARK    1  A    between atoms: C_1  and  C_2
REMARK    2  A    between atoms: C_10  and  C_11
REMARK    3  A    between atoms: N_14  and  C_15
REMARK    4  A    between atoms: C_19  and  C_20
REMARK    5  A    between atoms: C_28  and  C_29
REMARK    6  A    between atoms: C_29  and  C_30
REMARK    7  A    between atoms: C_30  and  O_32
REMARK                            x       y       z     vdW  Elec       q    Type
REMARK                         _______ _______ _______ _____ _____    ______ ____
ROOT
ATOM      1  C   UNL     1      -2.631  13.725  24.183  0.00  0.00    +0.000 C 
ATOM      2  C   UNL     1      -2.947  13.300  22.798  0.00  0.00    +0.000 A 
ATOM      3  N   UNL     1      -4.210  12.989  22.476  0.00  0.00    +0.000 NA
ATOM      4  O   UNL     1      -4.178  12.591  21.153  0.00  0.00    +0.000 OA
ATOM      5  C   UNL     1      -2.906  12.668  20.692  0.00  0.00    +0.000 A 
ATOM      6  C   UNL     1      -2.079  13.126  21.687  0.00  0.00    +0.000 A 
ATOM      7  C   UNL     1      -0.669  13.358  21.447  0.00  0.00    +0.000 A 
ATOM      8  C   UNL     1      -0.049  14.443  22.087  0.00  0.00    +0.000 A 
ATOM      9  C   UNL     1       1.297  14.740  21.872  0.00  0.00    +0.000 A 
ATOM     10  C   UNL     1       2.053  13.985  20.976  0.00  0.00    +0.000 A 
ATOM     11  C   UNL     1       1.433  12.928  20.299  0.00  0.00    +0.000 A 
ATOM     12  C   UNL     1       0.088  12.578  20.549  0.00  0.00    +0.000 A 
ATOM     13  C   UNL     1      -0.434  11.327  19.872  0.00  0.00    +0.000 C 
ATOM     14  N   UNL     1      -1.604  11.163  19.337  0.00  0.00    +0.000 NA
ATOM     15  C   UNL     1      -2.599  12.260  19.301  0.00  0.00    +0.000 C 
ENDROOT
BRANCH  13  16
ATOM     16  C   UNL     1       0.511  10.152  19.784  0.00  0.00    +0.000 A 
ATOM     17  C   UNL     1       1.190   9.852  18.594  0.00  0.00    +0.000 A 
ATOM     18  C   UNL     1       1.942   8.678  18.491  0.00  0.00    +0.000 A 
ATOM     19  C   UNL     1       2.056   7.827  19.588  0.00  0.00    +0.000 A 
ATOM     20 CL   UNL     1       2.951   6.367  19.447  0.00  0.00    +0.000 Cl
ATOM     21  C   UNL     1       1.434   8.145  20.793  0.00  0.00    +0.000 A 
ATOM     22  C   UNL     1       0.657   9.302  20.890  0.00  0.00    +0.000 A 
ENDBRANCH  13  16
BRANCH  10  23
ATOM     23  C   UNL     1       3.450  14.306  20.755  0.00  0.00    +0.000 A 
ATOM     24  C   UNL     1       4.113  14.738  19.585  0.00  0.00    +0.000 A 
ATOM     25  N   UNL     1       5.412  14.969  19.781  0.00  0.00    +0.000 NA
ATOM     26  N   UNL     1       5.589  14.682  21.082  0.00  0.00    +0.000 N 
ATOM     27  C   UNL     1       6.894  14.832  21.678  0.00  0.00    +0.000 C 
ATOM     28  C   UNL     1       4.444  14.278  21.713  0.00  0.00    +0.000 A 
ENDBRANCH  10  23
BRANCH  15  29
ATOM     29  C   UNL     1      -3.833  11.757  18.551  0.00  0.00    +0.000 C 
BRANCH  29  30
ATOM     30  C   UNL     1      -3.471  11.186  17.209  0.00  0.00    +0.000 C 
ATOM     31  O   UNL     1      -3.941  10.158  16.746  0.00  0.00    +0.000 OA
BRANCH  30  32
ATOM     32  O   UNL     1      -2.521  11.907  16.562  0.00  0.00    +0.000 OA
ATOM     33  H   UNL     1      -2.715  11.890  15.594  0.00  0.00    +0.000 HD
ENDBRANCH  30  32
ENDBRANCH  29  30
ENDBRANCH  15  29
TORSDOF 5
ENDMDL
MODEL 6
REMARK VINA RESULT:      -6.7      0.660      1.095
REMARK  Name = 
REMARK  7 active torsions:
REMARK  status: ('A' for Active; 'I' for Inactive)
REMARK    1  A    between atoms: C_1  and  C_2
REMARK    2  A    between atoms: C_10  and  C_11
REMARK    3  A    between atoms: N_14  and  C_15
REMARK    4  A    between atoms: C_19  and  C_20
REMARK    5  A    between atoms: C_28  and  C_29
REMARK    6  A    between atoms: C_29  and  C_30
REMARK    7  A    between atoms: C_30  and  O_32
REMARK                            x       y       z     vdW  Elec       q    Type
REMARK                         _______ _______ _______ _____ _____    ______ ____
ROOT
ATOM      1  C   UNL     1      -3.085  13.284  24.084  0.00  0.00    +0.000 C 
ATOM      2  C   UNL     1      -3.400  12.966  22.671  0.00  0.00    +0.000 A 
ATOM      3  N   UNL     1      -4.661  12.663  22.330  0.00  0.00    +0.000 NA
ATOM      4  O   UNL     1      -4.630  12.372  20.979  0.00  0.00    +0.000 OA
ATOM      5  C   UNL     1      -3.360  12.505  20.521  0.00  0.00    +0.000 A 
ATOM      6  C   UNL     1      -2.536  12.894  21.546  0.00  0.00    +0.000 A 
ATOM      7  C   UNL     1      -1.130  13.165  21.321  0.00  0.00    +0.000 A 
ATOM      8  C   UNL     1      -0.523  14.204  22.043  0.00  0.00    +0.000 A 
ATOM      9  C   UNL     1       0.818  14.536  21.848  0.00  0.00    +0.000 A 
ATOM     10  C   UNL     1       1.581  13.866  20.892  0.00  0.00    +0.000 A 
ATOM     11  C   UNL     1       0.973  12.857  20.135  0.00  0.00    +0.000 A 
ATOM     12  C   UNL     1      -0.366  12.469  20.361  0.00  0.00    +0.000 A 
ATOM     13  C   UNL     1      -0.873  11.268  19.588  0.00  0.00    +0.000 C 
ATOM     14  N   UNL     1      -2.044  11.131  19.046  0.00  0.00    +0.000 NA
ATOM     15  C   UNL     1      -3.054  12.213  19.101  0.00  0.00    +0.000 C 
ENDROOT
BRANCH  13  16
ATOM     16  C   UNL     1       0.088  10.119  19.404  0.00  0.00    +0.000 A 
ATOM     17  C   UNL     1       0.490   9.324  20.488  0.00  0.00    +0.000 A 
ATOM     18  C   UNL     1       1.491   8.364  20.322  0.00  0.00    +0.000 A 
ATOM     19  C   UNL     1       2.059   8.162  19.066  0.00  0.00    +0.000 A 
ATOM     20 CL   UNL     1       3.315   7.005  18.874  0.00  0.00    +0.000 Cl
ATOM     21  C   UNL     1       1.627   8.904  17.970  0.00  0.00    +0.000 A 
ATOM     22  C   UNL     1       0.647   9.886  18.139  0.00  0.00    +0.000 A 
ENDBRANCH  13  16
BRANCH  10  23
ATOM     23  C   UNL     1       2.972  14.224  20.692  0.00  0.00    +0.000 A 
ATOM     24  C   UNL     1       4.062  14.187  21.591  0.00  0.00    +0.000 A 
ATOM     25  N   UNL     1       5.210  14.564  21.028  0.00  0.00    +0.000 NA
ATOM     26  N   UNL     1       4.860  14.849  19.761  0.00  0.00    +0.000 N 
ATOM     27  C   UNL     1       5.864  15.286  18.822  0.00  0.00    +0.000 C 
ATOM     28  C   UNL     1       3.529  14.664  19.508  0.00  0.00    +0.000 A 
ENDBRANCH  10  23
BRANCH  15  29
ATOM     29  C   UNL     1      -4.285  11.753  18.318  0.00  0.00    +0.000 C 
BRANCH  29  30
ATOM     30  C   UNL     1      -3.904  10.915  17.130  0.00  0.00    +0.000 C 
ATOM     31  O   UNL     1      -3.875  11.320  15.979  0.00  0.00    +0.000 OA
BRANCH  30  32
ATOM     32  O   UNL     1      -3.630   9.626  17.454  0.00  0.00    +0.000 OA
ATOM     33  H   UNL     1      -4.121   9.033  16.836  0.00  0.00    +0.000 HD
ENDBRANCH  30  32
ENDBRANCH  29  30
ENDBRANCH  15  29
TORSDOF 5
ENDMDL
MODEL 7
REMARK VINA RESULT:      -6.7      0.922      1.565
REMARK  Name = 
REMARK  7 active torsions:
REMARK  status: ('A' for Active; 'I' for Inactive)
REMARK    1  A    between atoms: C_1  and  C_2
REMARK    2  A    between atoms: C_10  and  C_11
REMARK    3  A    between atoms: N_14  and  C_15
REMARK    4  A    between atoms: C_19  and  C_20
REMARK    5  A    between atoms: C_28  and  C_29
REMARK    6  A    between atoms: C_29  and  C_30
REMARK    7  A    between atoms: C_30  and  O_32
REMARK                            x       y       z     vdW  Elec       q    Type
REMARK                         _______ _______ _______ _____ _____    ______ ____
ROOT
ATOM      1  C   UNL     1      -2.565  13.727  23.643  0.00  0.00    +0.000 C 
ATOM      2  C   UNL     1      -3.018  13.195  22.336  0.00  0.00    +0.000 A 
ATOM      3  N   UNL     1      -4.297  12.825  22.184  0.00  0.00    +0.000 NA
ATOM      4  O   UNL     1      -4.401  12.334  20.896  0.00  0.00    +0.000 OA
ATOM      5  C   UNL     1      -3.192  12.417  20.287  0.00  0.00    +0.000 A 
ATOM      6  C   UNL     1      -2.276  12.969  21.146  0.00  0.00    +0.000 A 
ATOM      7  C   UNL     1      -0.912  13.225  20.730  0.00  0.00    +0.000 A 
ATOM      8  C   UNL     1      -0.265  14.370  21.220  0.00  0.00    +0.000 A 
ATOM      9  C   UNL     1       1.037  14.690  20.832  0.00  0.00    +0.000 A 
ATOM     10  C   UNL     1       1.714  13.896  19.907  0.00  0.00    +0.000 A 
ATOM     11  C   UNL     1       1.062  12.776  19.379  0.00  0.00    +0.000 A 
ATOM     12  C   UNL     1      -0.233  12.405  19.805  0.00  0.00    +0.000 A 
ATOM     13  C   UNL     1      -0.780  11.094  19.279  0.00  0.00    +0.000 C 
ATOM     14  N   UNL     1      -1.997  10.858  18.895  0.00  0.00    +0.000 NA
ATOM     15  C   UNL     1      -3.029  11.920  18.900  0.00  0.00    +0.000 C 
ENDROOT
BRANCH  13  16
ATOM     16  C   UNL     1       0.193   9.945  19.162  0.00  0.00    +0.000 A 
ATOM     17  C   UNL     1       0.629   9.242  20.295  0.00  0.00    +0.000 A 
ATOM     18  C   UNL     1       1.640   8.283  20.180  0.00  0.00    +0.000 A 
ATOM     19  C   UNL     1       2.182   7.991  18.931  0.00  0.00    +0.000 A 
ATOM     20 CL   UNL     1       3.450   6.837  18.799  0.00  0.00    +0.000 Cl
ATOM     21  C   UNL     1       1.715   8.641  17.791  0.00  0.00    +0.000 A 
ATOM     22  C   UNL     1       0.726   9.621  17.906  0.00  0.00    +0.000 A 
ENDBRANCH  13  16
BRANCH  10  23
ATOM     23  C   UNL     1       3.064  14.242  19.506  0.00  0.00    +0.000 A 
ATOM     24  C   UNL     1       3.660  14.257  18.224  0.00  0.00    +0.000 A 
ATOM     25  N   UNL     1       4.928  14.669  18.248  0.00  0.00    +0.000 NA
ATOM     26  N   UNL     1       5.153  14.919  19.549  0.00  0.00    +0.000 N 
ATOM     27  C   UNL     1       6.442  15.411  19.972  0.00  0.00    +0.000 C 
ATOM     28  C   UNL     1       4.068  14.678  20.347  0.00  0.00    +0.000 A 
ENDBRANCH  10  23
BRANCH  15  29
ATOM     29  C   UNL     1      -4.321  11.328  18.333  0.00  0.00    +0.000 C 
BRANCH  29  30
ATOM     30  C   UNL     1      -4.514  11.702  16.890  0.00  0.00    +0.000 C 
ATOM     31  O   UNL     1      -3.998  11.118  15.950  0.00  0.00    +0.000 OA
BRANCH  30  32
ATOM     32  O   UNL     1      -5.297  12.798  16.724  0.00  0.00    +0.000 OA
ATOM     33  H   UNL     1      -5.360  13.276  17.585  0.00  0.00    +0.000 HD
ENDBRANCH  30  32
ENDBRANCH  29  30
ENDBRANCH  15  29
TORSDOF 5
ENDMDL
MODEL 8
REMARK VINA RESULT:      -6.6      4.063      6.614
REMARK  Name = 
REMARK  7 active torsions:
REMARK  status: ('A' for Active; 'I' for Inactive)
REMARK    1  A    between atoms: C_1  and  C_2
REMARK    2  A    between atoms: C_10  and  C_11
REMARK    3  A    between atoms: N_14  and  C_15
REMARK    4  A    between atoms: C_19  and  C_20
REMARK    5  A    between atoms: C_28  and  C_29
REMARK    6  A    between atoms: C_29  and  C_30
REMARK    7  A    between atoms: C_30  and  O_32
REMARK                            x       y       z     vdW  Elec       q    Type
REMARK                         _______ _______ _______ _____ _____    ______ ____
ROOT
ATOM      1  C   UNL     1      -6.422  13.304  16.356  0.00  0.00    +0.000 C 
ATOM      2  C   UNL     1      -6.715  13.202  17.805  0.00  0.00    +0.000 A 
ATOM      3  N   UNL     1      -7.917  13.581  18.263  0.00  0.00    +0.000 NA
ATOM      4  O   UNL     1      -7.870  13.417  19.634  0.00  0.00    +0.000 OA
ATOM      5  C   UNL     1      -6.651  12.939  19.988  0.00  0.00    +0.000 A 
ATOM      6  C   UNL     1      -5.877  12.769  18.868  0.00  0.00    +0.000 A 
ATOM      7  C   UNL     1      -4.541  12.215  18.953  0.00  0.00    +0.000 A 
ATOM      8  C   UNL     1      -4.096  11.376  17.919  0.00  0.00    +0.000 A 
ATOM      9  C   UNL     1      -2.832  10.785  17.958  0.00  0.00    +0.000 A 
ATOM     10  C   UNL     1      -1.993  10.981  19.054  0.00  0.00    +0.000 A 
ATOM     11  C   UNL     1      -2.445  11.780  20.111  0.00  0.00    +0.000 A 
ATOM     12  C   UNL     1      -3.697  12.433  20.061  0.00  0.00    +0.000 A 
ATOM     13  C   UNL     1      -4.018  13.390  21.191  0.00  0.00    +0.000 C 
ATOM     14  N   UNL     1      -5.163  13.536  21.783  0.00  0.00    +0.000 NA
ATOM     15  C   UNL     1      -6.335  12.708  21.417  0.00  0.00    +0.000 C 
ENDROOT
BRANCH  13  16
ATOM     16  C   UNL     1      -2.886  14.248  21.703  0.00  0.00    +0.000 A 
ATOM     17  C   UNL     1      -2.332  15.269  20.917  0.00  0.00    +0.000 A 
ATOM     18  C   UNL     1      -1.191  15.950  21.350  0.00  0.00    +0.000 A 
ATOM     19  C   UNL     1      -0.629  15.645  22.588  0.00  0.00    +0.000 A 
ATOM     20 CL   UNL     1       0.795  16.459  23.102  0.00  0.00    +0.000 Cl
ATOM     21  C   UNL     1      -1.205  14.674  23.403  0.00  0.00    +0.000 A 
ATOM     22  C   UNL     1      -2.327  13.971  22.959  0.00  0.00    +0.000 A 
ENDBRANCH  13  16
BRANCH  10  23
ATOM     23  C   UNL     1      -0.685  10.356  19.087  0.00  0.00    +0.000 A 
ATOM     24  C   UNL     1       0.123   9.988  20.186  0.00  0.00    +0.000 A 
ATOM     25  N   UNL     1       1.261   9.398  19.817  0.00  0.00    +0.000 NA
ATOM     26  N   UNL     1       1.190   9.388  18.475  0.00  0.00    +0.000 N 
ATOM     27  C   UNL     1       2.258   8.802  17.705  0.00  0.00    +0.000 C 
ATOM     28  C   UNL     1       0.043   9.953  17.986  0.00  0.00    +0.000 A 
ENDBRANCH  10  23
BRANCH  15  29
ATOM     29  C   UNL     1      -7.492  13.088  22.343  0.00  0.00    +0.000 C 
BRANCH  29  30
ATOM     30  C   UNL     1      -7.297  12.538  23.727  0.00  0.00    +0.000 C 
ATOM     31  O   UNL     1      -7.512  11.380  24.048  0.00  0.00    +0.000 OA
BRANCH  30  32
ATOM     32  O   UNL     1      -6.892  13.476  24.621  0.00  0.00    +0.000 OA
ATOM     33  H   UNL     1      -7.551  14.211  24.629  0.00  0.00    +0.000 HD
ENDBRANCH  30  32
ENDBRANCH  29  30
ENDBRANCH  15  29
TORSDOF 5
ENDMDL
MODEL 9
REMARK VINA RESULT:      -6.6      2.033      2.718
REMARK  Name = 
REMARK  7 active torsions:
REMARK  status: ('A' for Active; 'I' for Inactive)
REMARK    1  A    between atoms: C_1  and  C_2
REMARK    2  A    between atoms: C_10  and  C_11
REMARK    3  A    between atoms: N_14  and  C_15
REMARK    4  A    between atoms: C_19  and  C_20
REMARK    5  A    between atoms: C_28  and  C_29
REMARK    6  A    between atoms: C_29  and  C_30
REMARK    7  A    between atoms: C_30  and  O_32
REMARK                            x       y       z     vdW  Elec       q    Type
REMARK                         _______ _______ _______ _____ _____    ______ ____
ROOT
ATOM      1  C   UNL     1      -3.825  13.580  24.530  0.00  0.00    +0.000 C 
ATOM      2  C   UNL     1      -4.381  13.178  23.216  0.00  0.00    +0.000 A 
ATOM      3  N   UNL     1      -5.596  12.614  23.160  0.00  0.00    +0.000 NA
ATOM      4  O   UNL     1      -5.813  12.310  21.830  0.00  0.00    +0.000 OA
ATOM      5  C   UNL     1      -4.736  12.695  21.101  0.00  0.00    +0.000 A 
ATOM      6  C   UNL     1      -3.799  13.265  21.924  0.00  0.00    +0.000 A 
ATOM      7  C   UNL     1      -2.568  13.817  21.394  0.00  0.00    +0.000 A 
ATOM      8  C   UNL     1      -2.040  14.973  21.991  0.00  0.00    +0.000 A 
ATOM      9  C   UNL     1      -0.876  15.572  21.508  0.00  0.00    +0.000 A 
ATOM     10  C   UNL     1      -0.229  15.056  20.385  0.00  0.00    +0.000 A 
ATOM     11  C   UNL     1      -0.772  13.929  19.756  0.00  0.00    +0.000 A 
ATOM     12  C   UNL     1      -1.916  13.277  20.267  0.00  0.00    +0.000 A 
ATOM     13  C   UNL     1      -2.326  11.983  19.594  0.00  0.00    +0.000 C 
ATOM     14  N   UNL     1      -3.536  11.596  19.327  0.00  0.00    +0.000 NA
ATOM     15  C   UNL     1      -4.708  12.446  19.639  0.00  0.00    +0.000 C 
ENDROOT
BRANCH  13  16
ATOM     16  C   UNL     1      -1.217  11.054  19.164  0.00  0.00    +0.000 A 
ATOM     17  C   UNL     1      -0.070  10.874  19.952  0.00  0.00    +0.000 A 
ATOM     18  C   UNL     1       1.007  10.129  19.466  0.00  0.00    +0.000 A 
ATOM     19  C   UNL     1       0.924   9.522  18.214  0.00  0.00    +0.000 A 
ATOM     20 CL   UNL     1       2.264   8.636  17.605  0.00  0.00    +0.000 Cl
ATOM     21  C   UNL     1      -0.232   9.645  17.448  0.00  0.00    +0.000 A 
ATOM     22  C   UNL     1      -1.299  10.415  17.918  0.00  0.00    +0.000 A 
ENDBRANCH  13  16
BRANCH  10  23
ATOM     23  C   UNL     1       0.976  15.691  19.887  0.00  0.00    +0.000 A 
ATOM     24  C   UNL     1       1.242  16.287  18.634  0.00  0.00    +0.000 A 
ATOM     25  N   UNL     1       2.470  16.802  18.557  0.00  0.00    +0.000 NA
ATOM     26  N   UNL     1       3.000  16.535  19.763  0.00  0.00    +0.000 N 
ATOM     27  C   UNL     1       4.343  16.965  20.067  0.00  0.00    +0.000 C 
ATOM     28  C   UNL     1       2.146  15.868  20.598  0.00  0.00    +0.000 A 
ENDBRANCH  10  23
BRANCH  15  29
ATOM     29  C   UNL     1      -5.962  11.727  19.142  0.00  0.00    +0.000 C 
BRANCH  29  30
ATOM     30  C   UNL     1      -6.185  11.956  17.673  0.00  0.00    +0.000 C 
ATOM     31  O   UNL     1      -7.067  12.663  17.210  0.00  0.00    +0.000 OA
BRANCH  30  32
ATOM     32  O   UNL     1      -5.328  11.257  16.889  0.00  0.00    +0.000 OA
ATOM     33  H   UNL     1      -4.454  11.716  16.885  0.00  0.00    +0.000 HD
ENDBRANCH  30  32
ENDBRANCH  29  30
ENDBRANCH  15  29
TORSDOF 5
ENDMDL
