MODEL 1
REMARK VINA RESULT:      -8.5      0.000      0.000
REMARK  Name = 
REMARK  4 active torsions:
REMARK  status: ('A' for Active; 'I' for Inactive)
REMARK    1  A    between atoms: C_1  and  C_2
REMARK    2  A    between atoms: C_2  and  C_3
REMARK    3  A    between atoms: C_5  and  C_6
REMARK    4  A    between atoms: C_6  and  N_7
REMARK                            x       y       z     vdW  Elec       q    Type
REMARK                         _______ _______ _______ _____ _____    ______ ____
ROOT
ATOM      1  N   UNL     1       4.416   5.031  17.331  0.00  0.00    +0.000 NA
ATOM      2  C   UNL     1       4.041   6.439  17.449  0.00  0.00    +0.000 C 
ATOM      3  C   UNL     1       2.617   6.402  17.996  0.00  0.00    +0.000 C 
ATOM      4  C   UNL     1       2.481   5.051  18.756  0.00  0.00    +0.000 C 
ATOM      5  C   UNL     1       1.291   4.270  18.143  0.00  0.00    +0.000 C 
ATOM      6  C   UNL     1       1.085   2.819  18.580  0.00  0.00    +0.000 C 
ATOM      7  C   UNL     1       0.972   2.570  20.082  0.00  0.00    +0.000 C 
ATOM      8  C   UNL     1       2.275   2.777  20.841  0.00  0.00    +0.000 C 
ATOM      9  C   UNL     1       2.550   4.217  21.255  0.00  0.00    +0.000 C 
ATOM     10  C   UNL     1       2.217   5.327  20.255  0.00  0.00    +0.000 C 
ATOM     11  C   UNL     1       3.843   4.380  18.512  0.00  0.00    +0.000 C 
ENDROOT
BRANCH   1  12
ATOM     12  C   UNL     1       5.883   4.824  17.338  0.00  0.00    +0.000 C 
BRANCH  12  15
ATOM     13  C   UNL     1       6.739   4.351  13.930  0.00  0.00    +0.000 A 
ATOM     14  N   UNL     1       6.008   4.018  14.968  0.00  0.00    +0.000 NA
ATOM     15  C   UNL     1       6.499   4.816  15.975  0.00  0.00    +0.000 A 
ATOM     16  N   UNL     1       7.477   5.651  15.592  0.00  0.00    +0.000 NA
ATOM     17  N   UNL     1       7.626   5.319  14.302  0.00  0.00    +0.000 N 
ATOM     18  H   UNL     1       8.331   5.789  13.748  0.00  0.00    +0.000 HD
BRANCH  13  20
ATOM     19  C   UNL     1       5.249   3.331  12.246  0.00  0.00    +0.000 C 
ATOM     20  C   UNL     1       6.662   3.790  12.560  0.00  0.00    +0.000 C 
ENDBRANCH  13  20
ENDBRANCH  12  15
ENDBRANCH   1  12
TORSDOF 3
ENDMDL
MODEL 2
REMARK VINA RESULT:      -7.9      1.016      1.335
REMARK  Name = 
REMARK  4 active torsions:
REMARK  status: ('A' for Active; 'I' for Inactive)
REMARK    1  A    between atoms: C_1  and  C_2
REMARK    2  A    between atoms: C_2  and  C_3
REMARK    3  A    between atoms: C_5  and  C_6
REMARK    4  A    between atoms: C_6  and  N_7
REMARK                            x       y       z     vdW  Elec       q    Type
REMARK                         _______ _______ _______ _____ _____    ______ ____
ROOT
ATOM      1  N   UNL     1       5.391   5.043  17.467  0.00  0.00    +0.000 NA
ATOM      2  C   UNL     1       5.619   5.956  18.586  0.00  0.00    +0.000 C 
ATOM      3  C   UNL     1       4.260   6.047  19.275  0.00  0.00    +0.000 C 
ATOM      4  C   UNL     1       3.510   4.728  18.928  0.00  0.00    +0.000 C 
ATOM      5  C   UNL     1       2.168   5.101  18.249  0.00  0.00    +0.000 C 
ATOM      6  C   UNL     1       1.344   3.974  17.625  0.00  0.00    +0.000 C 
ATOM      7  C   UNL     1       0.997   2.799  18.536  0.00  0.00    +0.000 C 
ATOM      8  C   UNL     1       2.192   1.931  18.904  0.00  0.00    +0.000 C 
ATOM      9  C   UNL     1       2.993   2.425  20.102  0.00  0.00    +0.000 C 
ATOM     10  C   UNL     1       3.242   3.931  20.227  0.00  0.00    +0.000 C 
ATOM     11  C   UNL     1       4.493   4.010  17.988  0.00  0.00    +0.000 C 
ENDROOT
BRANCH   1  12
ATOM     12  C   UNL     1       6.636   4.395  16.991  0.00  0.00    +0.000 C 
BRANCH  12  15
ATOM     13  C   UNL     1       6.582   4.022  13.466  0.00  0.00    +0.000 A 
ATOM     14  N   UNL     1       6.254   3.573  14.655  0.00  0.00    +0.000 NA
ATOM     15  C   UNL     1       6.834   4.479  15.511  0.00  0.00    +0.000 A 
ATOM     16  N   UNL     1       7.475   5.487  14.900  0.00  0.00    +0.000 NA
ATOM     17  N   UNL     1       7.322   5.160  13.609  0.00  0.00    +0.000 N 
ATOM     18  H   UNL     1       7.733   5.751  12.897  0.00  0.00    +0.000 HD
BRANCH  13  20
ATOM     19  C   UNL     1       4.739   3.419  11.940  0.00  0.00    +0.000 C 
ATOM     20  C   UNL     1       6.241   3.423  12.154  0.00  0.00    +0.000 C 
ENDBRANCH  13  20
ENDBRANCH  12  15
ENDBRANCH   1  12
TORSDOF 3
ENDMDL
MODEL 3
REMARK VINA RESULT:      -7.8      1.050      2.103
REMARK  Name = 
REMARK  4 active torsions:
REMARK  status: ('A' for Active; 'I' for Inactive)
REMARK    1  A    between atoms: C_1  and  C_2
REMARK    2  A    between atoms: C_2  and  C_3
REMARK    3  A    between atoms: C_5  and  C_6
REMARK    4  A    between atoms: C_6  and  N_7
REMARK                            x       y       z     vdW  Elec       q    Type
REMARK                         _______ _______ _______ _____ _____    ______ ____
ROOT
ATOM      1  N   UNL     1       4.722   5.888  17.992  0.00  0.00    +0.000 NA
ATOM      2  C   UNL     1       5.901   5.111  18.368  0.00  0.00    +0.000 C 
ATOM      3  C   UNL     1       5.388   4.142  19.429  0.00  0.00    +0.000 C 
ATOM      4  C   UNL     1       3.866   3.966  19.153  0.00  0.00    +0.000 C 
ATOM      5  C   UNL     1       3.094   4.351  20.441  0.00  0.00    +0.000 C 
ATOM      6  C   UNL     1       1.571   4.461  20.356  0.00  0.00    +0.000 C 
ATOM      7  C   UNL     1       0.829   3.241  19.817  0.00  0.00    +0.000 C 
ATOM      8  C   UNL     1       1.048   2.994  18.331  0.00  0.00    +0.000 C 
ATOM      9  C   UNL     1       2.298   2.191  17.996  0.00  0.00    +0.000 C 
ATOM     10  C   UNL     1       3.576   2.492  18.783  0.00  0.00    +0.000 C 
ATOM     11  C   UNL     1       3.616   4.928  17.979  0.00  0.00    +0.000 C 
ENDROOT
BRANCH   1  12
ATOM     12  C   UNL     1       4.839   6.497  16.647  0.00  0.00    +0.000 C 
BRANCH  12  15
ATOM     13  C   UNL     1       6.377   4.530  14.130  0.00  0.00    +0.000 A 
ATOM     14  N   UNL     1       5.293   4.896  14.773  0.00  0.00    +0.000 NA
ATOM     15  C   UNL     1       5.766   5.764  15.730  0.00  0.00    +0.000 A 
ATOM     16  N   UNL     1       7.089   5.975  15.681  0.00  0.00    +0.000 NA
ATOM     17  N   UNL     1       7.455   5.164  14.678  0.00  0.00    +0.000 N 
ATOM     18  H   UNL     1       8.433   5.102  14.423  0.00  0.00    +0.000 HD
BRANCH  13  20
ATOM     19  C   UNL     1       5.146   3.480  12.266  0.00  0.00    +0.000 C 
ATOM     20  C   UNL     1       6.472   3.579  12.998  0.00  0.00    +0.000 C 
ENDBRANCH  13  20
ENDBRANCH  12  15
ENDBRANCH   1  12
TORSDOF 3
ENDMDL
MODEL 4
REMARK VINA RESULT:      -7.6      2.165      3.327
REMARK  Name = 
REMARK  4 active torsions:
REMARK  status: ('A' for Active; 'I' for Inactive)
REMARK    1  A    between atoms: C_1  and  C_2
REMARK    2  A    between atoms: C_2  and  C_3
REMARK    3  A    between atoms: C_5  and  C_6
REMARK    4  A    between atoms: C_6  and  N_7
REMARK                            x       y       z     vdW  Elec       q    Type
REMARK                         _______ _______ _______ _____ _____    ______ ____
ROOT
ATOM      1  N   UNL     1       4.507   4.588  17.478  0.00  0.00    +0.000 NA
ATOM      2  C   UNL     1       4.124   5.994  17.368  0.00  0.00    +0.000 C 
ATOM      3  C   UNL     1       2.664   6.021  17.811  0.00  0.00    +0.000 C 
ATOM      4  C   UNL     1       2.474   4.789  18.744  0.00  0.00    +0.000 C 
ATOM      5  C   UNL     1       1.331   3.917  18.165  0.00  0.00    +0.000 C 
ATOM      6  C   UNL     1       1.094   2.541  18.790  0.00  0.00    +0.000 C 
ATOM      7  C   UNL     1       0.873   2.507  20.300  0.00  0.00    +0.000 C 
ATOM      8  C   UNL     1       2.118   2.833  21.112  0.00  0.00    +0.000 C 
ATOM      9  C   UNL     1       2.362   4.320  21.336  0.00  0.00    +0.000 C 
ATOM     10  C   UNL     1       2.102   5.273  20.166  0.00  0.00    +0.000 C 
ATOM     11  C   UNL     1       3.850   4.105  18.696  0.00  0.00    +0.000 C 
ENDROOT
BRANCH   1  12
ATOM     12  C   UNL     1       5.969   4.399  17.620  0.00  0.00    +0.000 C 
BRANCH  12  15
ATOM     13  C   UNL     1       7.908   7.337  18.042  0.00  0.00    +0.000 A 
ATOM     14  N   UNL     1       7.197   6.368  18.568  0.00  0.00    +0.000 NA
ATOM     15  C   UNL     1       6.759   5.661  17.472  0.00  0.00    +0.000 A 
ATOM     16  N   UNL     1       7.200   6.133  16.296  0.00  0.00    +0.000 NA
ATOM     17  N   UNL     1       7.903   7.207  16.683  0.00  0.00    +0.000 N 
ATOM     18  H   UNL     1       8.348   7.786  15.982  0.00  0.00    +0.000 HD
BRANCH  13  20
ATOM     19  C   UNL     1       8.457   9.744  18.022  0.00  0.00    +0.000 C 
ATOM     20  C   UNL     1       8.612   8.426  18.760  0.00  0.00    +0.000 C 
ENDBRANCH  13  20
ENDBRANCH  12  15
ENDBRANCH   1  12
TORSDOF 3
ENDMDL
MODEL 5
REMARK VINA RESULT:      -7.4      2.356      3.549
REMARK  Name = 
REMARK  4 active torsions:
REMARK  status: ('A' for Active; 'I' for Inactive)
REMARK    1  A    between atoms: C_1  and  C_2
REMARK    2  A    between atoms: C_2  and  C_3
REMARK    3  A    between atoms: C_5  and  C_6
REMARK    4  A    between atoms: C_6  and  N_7
REMARK                            x       y       z     vdW  Elec       q    Type
REMARK                         _______ _______ _______ _____ _____    ______ ____
ROOT
ATOM      1  N   UNL     1       4.741   4.916  17.329  0.00  0.00    +0.000 NA
ATOM      2  C   UNL     1       4.469   6.350  17.408  0.00  0.00    +0.000 C 
ATOM      3  C   UNL     1       3.014   6.429  17.861  0.00  0.00    +0.000 C 
ATOM      4  C   UNL     1       2.727   5.104  18.625  0.00  0.00    +0.000 C 
ATOM      5  C   UNL     1       1.521   4.406  17.944  0.00  0.00    +0.000 C 
ATOM      6  C   UNL     1       1.178   2.982  18.382  0.00  0.00    +0.000 C 
ATOM      7  C   UNL     1       0.950   2.766  19.876  0.00  0.00    +0.000 C 
ATOM      8  C   UNL     1       2.214   2.884  20.716  0.00  0.00    +0.000 C 
ATOM      9  C   UNL     1       2.571   4.306  21.132  0.00  0.00    +0.000 C 
ATOM     10  C   UNL     1       2.389   5.422  20.101  0.00  0.00    +0.000 C 
ATOM     11  C   UNL     1       4.046   4.328  18.477  0.00  0.00    +0.000 C 
ENDROOT
BRANCH   1  12
ATOM     12  C   UNL     1       6.185   4.598  17.433  0.00  0.00    +0.000 C 
BRANCH  12  15
ATOM     13  C   UNL     1       7.819   7.710  17.898  0.00  0.00    +0.000 A 
ATOM     14  N   UNL     1       7.052   6.935  17.168  0.00  0.00    +0.000 NA
ATOM     15  C   UNL     1       7.028   5.753  17.872  0.00  0.00    +0.000 A 
ATOM     16  N   UNL     1       7.718   5.779  19.022  0.00  0.00    +0.000 NA
ATOM     17  N   UNL     1       8.229   7.019  19.001  0.00  0.00    +0.000 N 
ATOM     18  H   UNL     1       8.828   7.320  19.760  0.00  0.00    +0.000 HD
BRANCH  13  20
ATOM     19  C   UNL     1       8.925   9.722  18.805  0.00  0.00    +0.000 C 
ATOM     20  C   UNL     1       8.216   9.108  17.611  0.00  0.00    +0.000 C 
ENDBRANCH  13  20
ENDBRANCH  12  15
ENDBRANCH   1  12
TORSDOF 3
ENDMDL
MODEL 6
REMARK VINA RESULT:      -7.3      2.788      3.969
REMARK  Name = 
REMARK  4 active torsions:
REMARK  status: ('A' for Active; 'I' for Inactive)
REMARK    1  A    between atoms: C_1  and  C_2
REMARK    2  A    between atoms: C_2  and  C_3
REMARK    3  A    between atoms: C_5  and  C_6
REMARK    4  A    between atoms: C_6  and  N_7
REMARK                            x       y       z     vdW  Elec       q    Type
REMARK                         _______ _______ _______ _____ _____    ______ ____
ROOT
ATOM      1  N   UNL     1       5.120   5.553  16.704  0.00  0.00    +0.000 NA
ATOM      2  C   UNL     1       4.668   6.796  17.327  0.00  0.00    +0.000 C 
ATOM      3  C   UNL     1       3.349   6.421  17.995  0.00  0.00    +0.000 C 
ATOM      4  C   UNL     1       3.424   4.892  18.273  0.00  0.00    +0.000 C 
ATOM      5  C   UNL     1       2.214   4.215  17.580  0.00  0.00    +0.000 C 
ATOM      6  C   UNL     1       2.180   2.687  17.532  0.00  0.00    +0.000 C 
ATOM      7  C   UNL     1       2.310   1.960  18.868  0.00  0.00    +0.000 C 
ATOM      8  C   UNL     1       3.695   2.063  19.492  0.00  0.00    +0.000 C 
ATOM      9  C   UNL     1       3.925   3.317  20.326  0.00  0.00    +0.000 C 
ATOM     10  C   UNL     1       3.368   4.641  19.798  0.00  0.00    +0.000 C 
ATOM     11  C   UNL     1       4.779   4.497  17.660  0.00  0.00    +0.000 C 
ENDROOT
BRANCH   1  12
ATOM     12  C   UNL     1       6.583   5.527  16.469  0.00  0.00    +0.000 C 
BRANCH  12  15
ATOM     13  C   UNL     1       8.119   8.377  17.913  0.00  0.00    +0.000 A 
ATOM     14  N   UNL     1       7.473   7.828  16.912  0.00  0.00    +0.000 NA
ATOM     15  C   UNL     1       7.346   6.513  17.295  0.00  0.00    +0.000 A 
ATOM     16  N   UNL     1       7.855   6.237  18.505  0.00  0.00    +0.000 NA
ATOM     17  N   UNL     1       8.359   7.427  18.863  0.00  0.00    +0.000 N 
ATOM     18  H   UNL     1       8.836   7.516  19.752  0.00  0.00    +0.000 HD
BRANCH  13  20
ATOM     19  C   UNL     1       9.270  10.018  19.354  0.00  0.00    +0.000 C 
ATOM     20  C   UNL     1       8.550   9.790  18.037  0.00  0.00    +0.000 C 
ENDBRANCH  13  20
ENDBRANCH  12  15
ENDBRANCH   1  12
TORSDOF 3
ENDMDL
MODEL 7
REMARK VINA RESULT:      -7.2      1.705      2.442
REMARK  Name = 
REMARK  4 active torsions:
REMARK  status: ('A' for Active; 'I' for Inactive)
REMARK    1  A    between atoms: C_1  and  C_2
REMARK    2  A    between atoms: C_2  and  C_3
REMARK    3  A    between atoms: C_5  and  C_6
REMARK    4  A    between atoms: C_6  and  N_7
REMARK                            x       y       z     vdW  Elec       q    Type
REMARK                         _______ _______ _______ _____ _____    ______ ____
ROOT
ATOM      1  N   UNL     1       5.357   4.978  15.787  0.00  0.00    +0.000 NA
ATOM      2  C   UNL     1       5.731   6.187  16.519  0.00  0.00    +0.000 C 
ATOM      3  C   UNL     1       4.668   6.309  17.607  0.00  0.00    +0.000 C 
ATOM      4  C   UNL     1       4.134   4.867  17.853  0.00  0.00    +0.000 C 
ATOM      5  C   UNL     1       2.600   4.876  17.630  0.00  0.00    +0.000 C 
ATOM      6  C   UNL     1       1.873   3.531  17.609  0.00  0.00    +0.000 C 
ATOM      7  C   UNL     1       2.077   2.627  18.821  0.00  0.00    +0.000 C 
ATOM      8  C   UNL     1       3.478   2.042  18.924  0.00  0.00    +0.000 C 
ATOM      9  C   UNL     1       4.495   2.941  19.616  0.00  0.00    +0.000 C 
ATOM     10  C   UNL     1       4.455   4.439  19.305  0.00  0.00    +0.000 C 
ATOM     11  C   UNL     1       4.899   4.034  16.811  0.00  0.00    +0.000 C 
ENDROOT
BRANCH   1  12
ATOM     12  C   UNL     1       6.496   4.372  15.058  0.00  0.00    +0.000 C 
BRANCH  12  15
ATOM     13  C   UNL     1       4.962   3.352  12.028  0.00  0.00    +0.000 A 
ATOM     14  N   UNL     1       4.870   3.599  13.314  0.00  0.00    +0.000 NA
ATOM     15  C   UNL     1       6.157   3.928  13.670  0.00  0.00    +0.000 A 
ATOM     16  N   UNL     1       7.030   3.930  12.652  0.00  0.00    +0.000 NA
ATOM     17  N   UNL     1       6.254   3.539  11.631  0.00  0.00    +0.000 N 
ATOM     18  H   UNL     1       6.664   3.430  10.711  0.00  0.00    +0.000 HD
BRANCH  13  20
ATOM     19  C   UNL     1       3.421   4.086  10.246  0.00  0.00    +0.000 C 
ATOM     20  C   UNL     1       3.875   2.928  11.115  0.00  0.00    +0.000 C 
ENDBRANCH  13  20
ENDBRANCH  12  15
ENDBRANCH   1  12
TORSDOF 3
ENDMDL
MODEL 8
REMARK VINA RESULT:      -7.1      1.093      1.517
REMARK  Name = 
REMARK  4 active torsions:
REMARK  status: ('A' for Active; 'I' for Inactive)
REMARK    1  A    between atoms: C_1  and  C_2
REMARK    2  A    between atoms: C_2  and  C_3
REMARK    3  A    between atoms: C_5  and  C_6
REMARK    4  A    between atoms: C_6  and  N_7
REMARK                            x       y       z     vdW  Elec       q    Type
REMARK                         _______ _______ _______ _____ _____    ______ ____
ROOT
ATOM      1  N   UNL     1       4.793   3.697  17.631  0.00  0.00    +0.000 NA
ATOM      2  C   UNL     1       3.887   4.023  16.532  0.00  0.00    +0.000 C 
ATOM      3  C   UNL     1       2.512   3.603  17.044  0.00  0.00    +0.000 C 
ATOM      4  C   UNL     1       2.594   3.661  18.597  0.00  0.00    +0.000 C 
ATOM      5  C   UNL     1       2.217   2.264  19.153  0.00  0.00    +0.000 C 
ATOM      6  C   UNL     1       2.426   2.008  20.647  0.00  0.00    +0.000 C 
ATOM      7  C   UNL     1       1.761   2.992  21.606  0.00  0.00    +0.000 C 
ATOM      8  C   UNL     1       2.388   4.379  21.598  0.00  0.00    +0.000 C 
ATOM      9  C   UNL     1       1.858   5.312  20.516  0.00  0.00    +0.000 C 
ATOM     10  C   UNL     1       1.602   4.725  19.126  0.00  0.00    +0.000 C 
ATOM     11  C   UNL     1       4.061   4.046  18.851  0.00  0.00    +0.000 C 
ENDROOT
BRANCH   1  12
ATOM     12  C   UNL     1       6.051   4.480  17.591  0.00  0.00    +0.000 C 
BRANCH  12  15
ATOM     13  C   UNL     1       6.855   4.376  14.140  0.00  0.00    +0.000 A 
ATOM     14  N   UNL     1       6.268   3.832  15.180  0.00  0.00    +0.000 NA
ATOM     15  C   UNL     1       6.594   4.680  16.212  0.00  0.00    +0.000 A 
ATOM     16  N   UNL     1       7.327   5.742  15.846  0.00  0.00    +0.000 NA
ATOM     17  N   UNL     1       7.499   5.512  14.536  0.00  0.00    +0.000 N 
ATOM     18  H   UNL     1       8.048   6.163  13.987  0.00  0.00    +0.000 HD
BRANCH  13  20
ATOM     19  C   UNL     1       5.462   3.455  12.322  0.00  0.00    +0.000 C 
ATOM     20  C   UNL     1       6.858   3.874  12.745  0.00  0.00    +0.000 C 
ENDBRANCH  13  20
ENDBRANCH  12  15
ENDBRANCH   1  12
TORSDOF 3
ENDMDL
MODEL 9
REMARK VINA RESULT:      -7.0      0.807      1.156
REMARK  Name = 
REMARK  4 active torsions:
REMARK  status: ('A' for Active; 'I' for Inactive)
REMARK    1  A    between atoms: C_1  and  C_2
REMARK    2  A    between atoms: C_2  and  C_3
REMARK    3  A    between atoms: C_5  and  C_6
REMARK    4  A    between atoms: C_6  and  N_7
REMARK                            x       y       z     vdW  Elec       q    Type
REMARK                         _______ _______ _______ _____ _____    ______ ____
ROOT
ATOM      1  N   UNL     1       4.098   5.527  17.413  0.00  0.00    +0.000 NA
ATOM      2  C   UNL     1       3.629   6.878  17.718  0.00  0.00    +0.000 C 
ATOM      3  C   UNL     1       2.263   6.663  18.362  0.00  0.00    +0.000 C 
ATOM      4  C   UNL     1       2.294   5.231  18.972  0.00  0.00    +0.000 C 
ATOM      5  C   UNL     1       1.118   4.423  18.365  0.00  0.00    +0.000 C 
ATOM      6  C   UNL     1       1.059   2.922  18.650  0.00  0.00    +0.000 C 
ATOM      7  C   UNL     1       1.091   2.505  20.118  0.00  0.00    +0.000 C 
ATOM      8  C   UNL     1       2.435   2.738  20.795  0.00  0.00    +0.000 C 
ATOM      9  C   UNL     1       2.634   4.143  21.349  0.00  0.00    +0.000 C 
ATOM     10  C   UNL     1       2.136   5.322  20.508  0.00  0.00    +0.000 C 
ATOM     11  C   UNL     1       3.677   4.707  18.552  0.00  0.00    +0.000 C 
ENDROOT
BRANCH   1  12
ATOM     12  C   UNL     1       5.572   5.444  17.286  0.00  0.00    +0.000 C 
BRANCH  12  15
ATOM     13  C   UNL     1       7.042   4.858  14.114  0.00  0.00    +0.000 A 
ATOM     14  N   UNL     1       6.749   5.688  15.087  0.00  0.00    +0.000 NA
ATOM     15  C   UNL     1       6.036   4.909  15.969  0.00  0.00    +0.000 A 
ATOM     16  N   UNL     1       5.908   3.627  15.597  0.00  0.00    +0.000 NA
ATOM     17  N   UNL     1       6.530   3.627  14.410  0.00  0.00    +0.000 N 
ATOM     18  H   UNL     1       6.574   2.769  13.873  0.00  0.00    +0.000 HD
BRANCH  13  20
ATOM     19  C   UNL     1       7.325   4.267  11.734  0.00  0.00    +0.000 C 
ATOM     20  C   UNL     1       7.790   5.159  12.871  0.00  0.00    +0.000 C 
ENDBRANCH  13  20
ENDBRANCH  12  15
ENDBRANCH   1  12
TORSDOF 3
ENDMDL
