MODEL 1
REMARK VINA RESULT:      -8.3      0.000      0.000
REMARK  Name = 
REMARK  5 active torsions:
REMARK  status: ('A' for Active; 'I' for Inactive)
REMARK    1  A    between atoms: C_2  and  O_5
REMARK    2  A    between atoms: O_5  and  C_6
REMARK    3  A    between atoms: C_10  and  N_11
REMARK    4  A    between atoms: N_11  and  C_12
REMARK    5  A    between atoms: C_23  and  N_24
REMARK                            x       y       z     vdW  Elec       q    Type
REMARK                         _______ _______ _______ _____ _____    ______ ____
ROOT
ATOM      1  C   UNL     1      -2.272  11.390  17.337  0.00  0.00    +0.000 A 
ATOM      2  N   UNL     1      -2.271  10.795  16.126  0.00  0.00    +0.000 NA
ATOM      3  N   UNL     1      -3.404  10.495  15.548  0.00  0.00    +0.000 NA
ATOM      4  N   UNL     1      -4.553  10.774  16.096  0.00  0.00    +0.000 NA
ATOM      5  C   UNL     1      -4.583  11.345  17.307  0.00  0.00    +0.000 A 
ATOM      6  C   UNL     1      -5.788  11.656  17.910  0.00  0.00    +0.000 A 
ATOM      7  C   UNL     1      -5.823  12.229  19.181  0.00  0.00    +0.000 A 
ATOM      8  C   UNL     1      -4.633  12.483  19.850  0.00  0.00    +0.000 A 
ATOM      9  N   UNL     1      -4.671  12.899  21.180  0.00  0.00    +0.000 N 
ATOM     10  C   UNL     1      -3.422  12.688  21.912  0.00  0.00    +0.000 C 
ATOM     11  C   UNL     1      -3.725  12.745  23.401  0.00  0.00    +0.000 C 
ATOM     12  C   UNL     1      -4.425  14.047  23.846  0.00  0.00    +0.000 C 
ATOM     13  C   UNL     1      -5.608  14.359  22.901  0.00  0.00    +0.000 C 
ATOM     14  C   UNL     1      -5.299  14.204  21.410  0.00  0.00    +0.000 C 
ATOM     15  N   UNL     1      -3.449  12.225  19.262  0.00  0.00    +0.000 NA
ATOM     16  C   UNL     1      -3.441  11.666  18.019  0.00  0.00    +0.000 A 
ENDROOT
BRANCH  12  17
ATOM     17  N   UNL     1      -3.565  15.216  24.166  0.00  0.00    +0.000 NA
ATOM     18  C   UNL     1      -4.346  16.464  24.230  0.00  0.00    +0.000 C 
ATOM     19  C   UNL     1      -3.469  17.701  24.413  0.00  0.00    +0.000 C 
ATOM     20  C   UNL     1      -2.591  17.560  25.648  0.00  0.00    +0.000 C 
ATOM     21  C   UNL     1      -1.766  16.288  25.533  0.00  0.00    +0.000 C 
ATOM     22  C   UNL     1      -2.661  15.069  25.309  0.00  0.00    +0.000 C 
ENDBRANCH  12  17
BRANCH   1  23
ATOM     23  N   UNL     1      -1.034  11.749  17.964  0.00  0.00    +0.000 N 
ATOM     24  H   UNL     1      -0.470  12.263  17.284  0.00  0.00    +0.000 HD
BRANCH  23  29
ATOM     25  C   UNL     1       0.601  10.186  20.908  0.00  0.00    +0.000 A 
ATOM     26  C   UNL     1       1.336   9.166  20.296  0.00  0.00    +0.000 A 
ATOM     27  C   UNL     1       1.297   8.995  18.917  0.00  0.00    +0.000 A 
ATOM     28  C   UNL     1       0.504   9.834  18.141  0.00  0.00    +0.000 A 
ATOM     29  C   UNL     1      -0.237  10.868  18.731  0.00  0.00    +0.000 A 
ATOM     30  C   UNL     1      -0.137  11.068  20.116  0.00  0.00    +0.000 A 
BRANCH  25  31
ATOM     31  O   UNL     1       0.727  10.227  22.263  0.00  0.00    +0.000 OA
BRANCH  31  33
ATOM     32  F   UNL     1      -1.286  10.538  23.382  0.00  0.00    +0.000 F 
ATOM     33  C   UNL     1      -0.299   9.675  23.073  0.00  0.00    +0.000 C 
ATOM     34  F   UNL     1       0.243   9.197  24.214  0.00  0.00    +0.000 F 
ATOM     35  F   UNL     1      -0.853   8.635  22.406  0.00  0.00    +0.000 F 
ENDBRANCH  31  33
ENDBRANCH  25  31
ENDBRANCH  23  29
ENDBRANCH   1  23
TORSDOF 5
ENDMDL
MODEL 2
REMARK VINA RESULT:      -7.8      3.195      5.350
REMARK  Name = 
REMARK  5 active torsions:
REMARK  status: ('A' for Active; 'I' for Inactive)
REMARK    1  A    between atoms: C_2  and  O_5
REMARK    2  A    between atoms: O_5  and  C_6
REMARK    3  A    between atoms: C_10  and  N_11
REMARK    4  A    between atoms: N_11  and  C_12
REMARK    5  A    between atoms: C_23  and  N_24
REMARK                            x       y       z     vdW  Elec       q    Type
REMARK                         _______ _______ _______ _____ _____    ______ ____
ROOT
ATOM      1  C   UNL     1       0.042  10.439  19.249  0.00  0.00    +0.000 A 
ATOM      2  N   UNL     1       0.927   9.538  18.775  0.00  0.00    +0.000 NA
ATOM      3  N   UNL     1       1.498   8.695  19.592  0.00  0.00    +0.000 NA
ATOM      4  N   UNL     1       1.223   8.675  20.866  0.00  0.00    +0.000 NA
ATOM      5  C   UNL     1       0.364   9.572  21.368  0.00  0.00    +0.000 A 
ATOM      6  C   UNL     1       0.049   9.571  22.714  0.00  0.00    +0.000 A 
ATOM      7  C   UNL     1      -0.827  10.518  23.244  0.00  0.00    +0.000 A 
ATOM      8  C   UNL     1      -1.384  11.477  22.408  0.00  0.00    +0.000 A 
ATOM      9  N   UNL     1      -2.125  12.520  22.961  0.00  0.00    +0.000 N 
ATOM     10  C   UNL     1      -2.260  13.689  22.091  0.00  0.00    +0.000 C 
ATOM     11  C   UNL     1      -2.667  14.878  22.948  0.00  0.00    +0.000 C 
ATOM     12  C   UNL     1      -3.948  14.641  23.776  0.00  0.00    +0.000 C 
ATOM     13  C   UNL     1      -3.863  13.279  24.502  0.00  0.00    +0.000 C 
ATOM     14  C   UNL     1      -3.362  12.119  23.639  0.00  0.00    +0.000 C 
ATOM     15  N   UNL     1      -1.123  11.468  21.086  0.00  0.00    +0.000 NA
ATOM     16  C   UNL     1      -0.263  10.531  20.593  0.00  0.00    +0.000 A 
ENDROOT
BRANCH  12  17
ATOM     17  N   UNL     1      -5.253  14.908  23.116  0.00  0.00    +0.000 NA
ATOM     18  C   UNL     1      -5.135  15.950  22.080  0.00  0.00    +0.000 C 
ATOM     19  C   UNL     1      -6.485  16.347  21.486  0.00  0.00    +0.000 C 
ATOM     20  C   UNL     1      -7.209  15.129  20.934  0.00  0.00    +0.000 C 
ATOM     21  C   UNL     1      -7.355  14.091  22.035  0.00  0.00    +0.000 C 
ATOM     22  C   UNL     1      -5.998  13.739  22.644  0.00  0.00    +0.000 C 
ENDBRANCH  12  17
BRANCH   1  23
ATOM     23  N   UNL     1      -0.611  11.348  18.353  0.00  0.00    +0.000 N 
ATOM     24  H   UNL     1      -0.666  12.261  18.810  0.00  0.00    +0.000 HD
BRANCH  23  29
ATOM     25  C   UNL     1      -4.158  11.498  17.266  0.00  0.00    +0.000 A 
ATOM     26  C   UNL     1      -4.174  10.520  16.268  0.00  0.00    +0.000 A 
ATOM     27  C   UNL     1      -3.021   9.808  15.956  0.00  0.00    +0.000 A 
ATOM     28  C   UNL     1      -1.836  10.087  16.629  0.00  0.00    +0.000 A 
ATOM     29  C   UNL     1      -1.797  11.059  17.639  0.00  0.00    +0.000 A 
ATOM     30  C   UNL     1      -2.983  11.724  17.986  0.00  0.00    +0.000 A 
BRANCH  25  31
ATOM     31  O   UNL     1      -5.355  12.120  17.456  0.00  0.00    +0.000 OA
BRANCH  31  33
ATOM     32  F   UNL     1      -6.185  10.319  18.668  0.00  0.00    +0.000 F 
ATOM     33  C   UNL     1      -6.227  11.651  18.472  0.00  0.00    +0.000 C 
ATOM     34  F   UNL     1      -7.493  12.014  18.176  0.00  0.00    +0.000 F 
ATOM     35  F   UNL     1      -5.883  12.250  19.637  0.00  0.00    +0.000 F 
ENDBRANCH  31  33
ENDBRANCH  25  31
ENDBRANCH  23  29
ENDBRANCH   1  23
TORSDOF 5
ENDMDL
MODEL 3
REMARK VINA RESULT:      -7.7      2.963      5.128
REMARK  Name = 
REMARK  5 active torsions:
REMARK  status: ('A' for Active; 'I' for Inactive)
REMARK    1  A    between atoms: C_2  and  O_5
REMARK    2  A    between atoms: O_5  and  C_6
REMARK    3  A    between atoms: C_10  and  N_11
REMARK    4  A    between atoms: N_11  and  C_12
REMARK    5  A    between atoms: C_23  and  N_24
REMARK                            x       y       z     vdW  Elec       q    Type
REMARK                         _______ _______ _______ _____ _____    ______ ____
ROOT
ATOM      1  C   UNL     1       0.297  10.143  19.320  0.00  0.00    +0.000 A 
ATOM      2  N   UNL     1       1.171   9.206  18.901  0.00  0.00    +0.000 NA
ATOM      3  N   UNL     1       1.694   8.373  19.761  0.00  0.00    +0.000 NA
ATOM      4  N   UNL     1       1.380   8.400  21.026  0.00  0.00    +0.000 NA
ATOM      5  C   UNL     1       0.530   9.334  21.473  0.00  0.00    +0.000 A 
ATOM      6  C   UNL     1       0.175   9.383  22.808  0.00  0.00    +0.000 A 
ATOM      7  C   UNL     1      -0.690  10.368  23.282  0.00  0.00    +0.000 A 
ATOM      8  C   UNL     1      -1.196  11.315  22.400  0.00  0.00    +0.000 A 
ATOM      9  N   UNL     1      -1.925  12.393  22.899  0.00  0.00    +0.000 N 
ATOM     10  C   UNL     1      -2.002  13.538  21.990  0.00  0.00    +0.000 C 
ATOM     11  C   UNL     1      -2.403  14.763  22.798  0.00  0.00    +0.000 C 
ATOM     12  C   UNL     1      -3.715  14.585  23.592  0.00  0.00    +0.000 C 
ATOM     13  C   UNL     1      -3.688  13.245  24.362  0.00  0.00    +0.000 C 
ATOM     14  C   UNL     1      -3.192  12.046  23.549  0.00  0.00    +0.000 C 
ATOM     15  N   UNL     1      -0.895  11.258  21.088  0.00  0.00    +0.000 NA
ATOM     16  C   UNL     1      -0.047  10.285  20.650  0.00  0.00    +0.000 A 
ENDROOT
BRANCH  12  17
ATOM     17  N   UNL     1      -4.991  14.865  22.884  0.00  0.00    +0.000 NA
ATOM     18  C   UNL     1      -6.144  14.279  23.590  0.00  0.00    +0.000 C 
ATOM     19  C   UNL     1      -7.450  14.426  22.811  0.00  0.00    +0.000 C 
ATOM     20  C   UNL     1      -7.717  15.886  22.479  0.00  0.00    +0.000 C 
ATOM     21  C   UNL     1      -6.531  16.450  21.714  0.00  0.00    +0.000 C 
ATOM     22  C   UNL     1      -5.229  16.256  22.492  0.00  0.00    +0.000 C 
ENDBRANCH  12  17
BRANCH   1  23
ATOM     23  N   UNL     1      -0.304  11.041  18.378  0.00  0.00    +0.000 N 
ATOM     24  H   UNL     1      -0.116  11.998  18.684  0.00  0.00    +0.000 HD
BRANCH  23  29
ATOM     25  C   UNL     1      -3.936  11.643  17.899  0.00  0.00    +0.000 A 
ATOM     26  C   UNL     1      -4.238  10.695  16.918  0.00  0.00    +0.000 A 
ATOM     27  C   UNL     1      -3.249   9.855  16.417  0.00  0.00    +0.000 A 
ATOM     28  C   UNL     1      -1.944   9.975  16.882  0.00  0.00    +0.000 A 
ATOM     29  C   UNL     1      -1.618  10.914  17.871  0.00  0.00    +0.000 A 
ATOM     30  C   UNL     1      -2.639  11.709  18.413  0.00  0.00    +0.000 A 
BRANCH  25  31
ATOM     31  O   UNL     1      -4.999  12.401  18.287  0.00  0.00    +0.000 OA
BRANCH  31  33
ATOM     32  F   UNL     1      -6.744  12.854  19.754  0.00  0.00    +0.000 F 
ATOM     33  C   UNL     1      -5.639  12.119  19.522  0.00  0.00    +0.000 C 
ATOM     34  F   UNL     1      -4.763  12.309  20.531  0.00  0.00    +0.000 F 
ATOM     35  F   UNL     1      -6.002  10.815  19.524  0.00  0.00    +0.000 F 
ENDBRANCH  31  33
ENDBRANCH  25  31
ENDBRANCH  23  29
ENDBRANCH   1  23
TORSDOF 5
ENDMDL
MODEL 4
REMARK VINA RESULT:      -7.4      6.115      9.225
REMARK  Name = 
REMARK  5 active torsions:
REMARK  status: ('A' for Active; 'I' for Inactive)
REMARK    1  A    between atoms: C_2  and  O_5
REMARK    2  A    between atoms: O_5  and  C_6
REMARK    3  A    between atoms: C_10  and  N_11
REMARK    4  A    between atoms: N_11  and  C_12
REMARK    5  A    between atoms: C_23  and  N_24
REMARK                            x       y       z     vdW  Elec       q    Type
REMARK                         _______ _______ _______ _____ _____    ______ ____
ROOT
ATOM      1  C   UNL     1       0.645  14.840  20.368  0.00  0.00    +0.000 A 
ATOM      2  N   UNL     1      -0.656  15.191  20.317  0.00  0.00    +0.000 NA
ATOM      3  N   UNL     1      -1.050  16.106  19.472  0.00  0.00    +0.000 NA
ATOM      4  N   UNL     1      -0.223  16.686  18.648  0.00  0.00    +0.000 NA
ATOM      5  C   UNL     1       1.078  16.372  18.692  0.00  0.00    +0.000 A 
ATOM      6  C   UNL     1       1.977  16.967  17.826  0.00  0.00    +0.000 A 
ATOM      7  C   UNL     1       3.336  16.660  17.885  0.00  0.00    +0.000 A 
ATOM      8  C   UNL     1       3.791  15.749  18.830  0.00  0.00    +0.000 A 
ATOM      9  N   UNL     1       5.162  15.567  18.999  0.00  0.00    +0.000 N 
ATOM     10  C   UNL     1       5.536  14.974  20.284  0.00  0.00    +0.000 C 
ATOM     11  C   UNL     1       7.012  15.249  20.526  0.00  0.00    +0.000 C 
ATOM     12  C   UNL     1       7.933  14.755  19.390  0.00  0.00    +0.000 C 
ATOM     13  C   UNL     1       7.374  15.210  18.023  0.00  0.00    +0.000 C 
ATOM     14  C   UNL     1       5.867  15.006  17.843  0.00  0.00    +0.000 C 
ATOM     15  N   UNL     1       2.925  15.128  19.654  0.00  0.00    +0.000 NA
ATOM     16  C   UNL     1       1.601  15.445  19.576  0.00  0.00    +0.000 A 
ENDROOT
BRANCH  12  17
ATOM     17  N   UNL     1       8.380  13.338  19.434  0.00  0.00    +0.000 NA
ATOM     18  C   UNL     1       8.990  12.922  18.158  0.00  0.00    +0.000 C 
ATOM     19  C   UNL     1       9.327  11.432  18.124  0.00  0.00    +0.000 C 
ATOM     20  C   UNL     1      10.228  11.057  19.292  0.00  0.00    +0.000 C 
ATOM     21  C   UNL     1       9.553  11.459  20.593  0.00  0.00    +0.000 C 
ATOM     22  C   UNL     1       9.187  12.943  20.590  0.00  0.00    +0.000 C 
ENDBRANCH  12  17
BRANCH   1  23
ATOM     23  N   UNL     1       1.080  13.815  21.272  0.00  0.00    +0.000 N 
ATOM     24  H   UNL     1       2.098  13.872  21.353  0.00  0.00    +0.000 HD
BRANCH  23  29
ATOM     25  C   UNL     1       0.851  10.244  20.282  0.00  0.00    +0.000 A 
ATOM     26  C   UNL     1      -0.191   9.805  21.102  0.00  0.00    +0.000 A 
ATOM     27  C   UNL     1      -0.822  10.683  21.978  0.00  0.00    +0.000 A 
ATOM     28  C   UNL     1      -0.396  12.006  22.051  0.00  0.00    +0.000 A 
ATOM     29  C   UNL     1       0.643  12.471  21.233  0.00  0.00    +0.000 A 
ATOM     30  C   UNL     1       1.225  11.590  20.310  0.00  0.00    +0.000 A 
BRANCH  25  31
ATOM     31  O   UNL     1       1.379   9.274  19.485  0.00  0.00    +0.000 OA
BRANCH  31  33
ATOM     32  F   UNL     1       0.008   9.814  17.688  0.00  0.00    +0.000 F 
ATOM     33  C   UNL     1       1.217   9.367  18.078  0.00  0.00    +0.000 C 
ATOM     34  F   UNL     1       1.441   8.156  17.523  0.00  0.00    +0.000 F 
ATOM     35  F   UNL     1       2.150  10.224  17.599  0.00  0.00    +0.000 F 
ENDBRANCH  31  33
ENDBRANCH  25  31
ENDBRANCH  23  29
ENDBRANCH   1  23
TORSDOF 5
ENDMDL
MODEL 5
REMARK VINA RESULT:      -7.4      3.404      5.438
REMARK  Name = 
REMARK  5 active torsions:
REMARK  status: ('A' for Active; 'I' for Inactive)
REMARK    1  A    between atoms: C_2  and  O_5
REMARK    2  A    between atoms: O_5  and  C_6
REMARK    3  A    between atoms: C_10  and  N_11
REMARK    4  A    between atoms: N_11  and  C_12
REMARK    5  A    between atoms: C_23  and  N_24
REMARK                            x       y       z     vdW  Elec       q    Type
REMARK                         _______ _______ _______ _____ _____    ______ ____
ROOT
ATOM      1  C   UNL     1      -0.266  10.855  19.032  0.00  0.00    +0.000 A 
ATOM      2  N   UNL     1       0.620  10.021  18.451  0.00  0.00    +0.000 NA
ATOM      3  N   UNL     1       1.278   9.160  19.180  0.00  0.00    +0.000 NA
ATOM      4  N   UNL     1       1.091   9.059  20.466  0.00  0.00    +0.000 NA
ATOM      5  C   UNL     1       0.233   9.889  21.073  0.00  0.00    +0.000 A 
ATOM      6  C   UNL     1       0.011   9.802  22.435  0.00  0.00    +0.000 A 
ATOM      7  C   UNL     1      -0.864  10.680  23.074  0.00  0.00    +0.000 A 
ATOM      8  C   UNL     1      -1.514  11.658  22.332  0.00  0.00    +0.000 A 
ATOM      9  N   UNL     1      -2.257  12.636  22.991  0.00  0.00    +0.000 N 
ATOM     10  C   UNL     1      -2.497  13.843  22.200  0.00  0.00    +0.000 C 
ATOM     11  C   UNL     1      -2.892  14.965  23.148  0.00  0.00    +0.000 C 
ATOM     12  C   UNL     1      -4.104  14.628  24.043  0.00  0.00    +0.000 C 
ATOM     13  C   UNL     1      -3.915  13.234  24.684  0.00  0.00    +0.000 C 
ATOM     14  C   UNL     1      -3.428  12.146  23.724  0.00  0.00    +0.000 C 
ATOM     15  N   UNL     1      -1.343  11.732  20.997  0.00  0.00    +0.000 NA
ATOM     16  C   UNL     1      -0.483  10.862  20.396  0.00  0.00    +0.000 A 
ENDROOT
BRANCH  12  17
ATOM     17  N   UNL     1      -5.460  14.874  23.486  0.00  0.00    +0.000 NA
ATOM     18  C   UNL     1      -5.885  16.270  23.687  0.00  0.00    +0.000 C 
ATOM     19  C   UNL     1      -7.330  16.515  23.255  0.00  0.00    +0.000 C 
ATOM     20  C   UNL     1      -7.536  16.100  21.806  0.00  0.00    +0.000 C 
ATOM     21  C   UNL     1      -7.131  14.644  21.640  0.00  0.00    +0.000 C 
ATOM     22  C   UNL     1      -5.697  14.413  22.117  0.00  0.00    +0.000 C 
ENDBRANCH  12  17
BRANCH   1  23
ATOM     23  N   UNL     1      -1.014  11.782  18.235  0.00  0.00    +0.000 N 
ATOM     24  H   UNL     1      -1.083  12.663  18.750  0.00  0.00    +0.000 HD
BRANCH  23  29
ATOM     25  C   UNL     1      -4.645  11.259  17.664  0.00  0.00    +0.000 A 
ATOM     26  C   UNL     1      -4.652  10.874  16.321  0.00  0.00    +0.000 A 
ATOM     27  C   UNL     1      -3.464  10.781  15.604  0.00  0.00    +0.000 A 
ATOM     28  C   UNL     1      -2.260  11.096  16.225  0.00  0.00    +0.000 A 
ATOM     29  C   UNL     1      -2.226  11.478  17.574  0.00  0.00    +0.000 A 
ATOM     30  C   UNL     1      -3.426  11.504  18.300  0.00  0.00    +0.000 A 
BRANCH  25  31
ATOM     31  O   UNL     1      -5.881  11.315  18.234  0.00  0.00    +0.000 OA
BRANCH  31  33
ATOM     32  F   UNL     1      -7.081  12.703  16.808  0.00  0.00    +0.000 F 
ATOM     33  C   UNL     1      -6.668  12.484  18.072  0.00  0.00    +0.000 C 
ATOM     34  F   UNL     1      -5.967  13.556  18.499  0.00  0.00    +0.000 F 
ATOM     35  F   UNL     1      -7.769  12.366  18.851  0.00  0.00    +0.000 F 
ENDBRANCH  31  33
ENDBRANCH  25  31
ENDBRANCH  23  29
ENDBRANCH   1  23
TORSDOF 5
ENDMDL
MODEL 6
REMARK VINA RESULT:      -7.4      5.239      7.422
REMARK  Name = 
REMARK  5 active torsions:
REMARK  status: ('A' for Active; 'I' for Inactive)
REMARK    1  A    between atoms: C_2  and  O_5
REMARK    2  A    between atoms: O_5  and  C_6
REMARK    3  A    between atoms: C_10  and  N_11
REMARK    4  A    between atoms: N_11  and  C_12
REMARK    5  A    between atoms: C_23  and  N_24
REMARK                            x       y       z     vdW  Elec       q    Type
REMARK                         _______ _______ _______ _____ _____    ______ ____
ROOT
ATOM      1  C   UNL     1       0.040  10.503  19.507  0.00  0.00    +0.000 A 
ATOM      2  N   UNL     1      -1.124   9.960  19.095  0.00  0.00    +0.000 NA
ATOM      3  N   UNL     1      -1.991  10.693  18.449  0.00  0.00    +0.000 NA
ATOM      4  N   UNL     1      -1.760  11.943  18.161  0.00  0.00    +0.000 NA
ATOM      5  C   UNL     1      -0.621  12.514  18.577  0.00  0.00    +0.000 A 
ATOM      6  C   UNL     1      -0.347  13.837  18.282  0.00  0.00    +0.000 A 
ATOM      7  C   UNL     1       0.826  14.441  18.733  0.00  0.00    +0.000 A 
ATOM      8  C   UNL     1       1.726  13.704  19.492  0.00  0.00    +0.000 A 
ATOM      9  N   UNL     1       2.813  14.349  20.080  0.00  0.00    +0.000 N 
ATOM     10  C   UNL     1       3.409  13.621  21.201  0.00  0.00    +0.000 C 
ATOM     11  C   UNL     1       4.244  14.598  22.015  0.00  0.00    +0.000 C 
ATOM     12  C   UNL     1       5.318  15.339  21.191  0.00  0.00    +0.000 C 
ATOM     13  C   UNL     1       4.693  15.899  19.893  0.00  0.00    +0.000 C 
ATOM     14  C   UNL     1       3.783  14.923  19.143  0.00  0.00    +0.000 C 
ATOM     15  N   UNL     1       1.497  12.403  19.754  0.00  0.00    +0.000 NA
ATOM     16  C   UNL     1       0.343  11.835  19.302  0.00  0.00    +0.000 A 
ENDROOT
BRANCH  12  17
ATOM     17  N   UNL     1       6.629  14.664  21.003  0.00  0.00    +0.000 NA
ATOM     18  C   UNL     1       7.615  15.559  20.374  0.00  0.00    +0.000 C 
ATOM     19  C   UNL     1       8.926  14.850  20.037  0.00  0.00    +0.000 C 
ATOM     20  C   UNL     1       9.517  14.195  21.276  0.00  0.00    +0.000 C 
ATOM     21  C   UNL     1       8.493  13.245  21.877  0.00  0.00    +0.000 C 
ATOM     22  C   UNL     1       7.177  13.966  22.168  0.00  0.00    +0.000 C 
ENDBRANCH  12  17
BRANCH   1  23
ATOM     23  N   UNL     1       1.009   9.698  20.191  0.00  0.00    +0.000 N 
ATOM     24  H   UNL     1       1.704  10.321  20.608  0.00  0.00    +0.000 HD
BRANCH  23  29
ATOM     25  C   UNL     1       2.382   6.255  19.971  0.00  0.00    +0.000 A 
ATOM     26  C   UNL     1       2.823   6.227  18.645  0.00  0.00    +0.000 A 
ATOM     27  C   UNL     1       2.673   7.340  17.825  0.00  0.00    +0.000 A 
ATOM     28  C   UNL     1       2.060   8.485  18.323  0.00  0.00    +0.000 A 
ATOM     29  C   UNL     1       1.616   8.540  19.652  0.00  0.00    +0.000 A 
ATOM     30  C   UNL     1       1.832   7.432  20.485  0.00  0.00    +0.000 A 
BRANCH  25  31
ATOM     31  O   UNL     1       2.586   5.093  20.650  0.00  0.00    +0.000 OA
BRANCH  31  33
ATOM     32  F   UNL     1       0.334   4.554  20.450  0.00  0.00    +0.000 F 
ATOM     33  C   UNL     1       1.586   4.087  20.618  0.00  0.00    +0.000 C 
ATOM     34  F   UNL     1       1.640   3.369  21.761  0.00  0.00    +0.000 F 
ATOM     35  F   UNL     1       1.857   3.251  19.588  0.00  0.00    +0.000 F 
ENDBRANCH  31  33
ENDBRANCH  25  31
ENDBRANCH  23  29
ENDBRANCH   1  23
TORSDOF 5
ENDMDL
MODEL 7
REMARK VINA RESULT:      -7.3      3.606      5.774
REMARK  Name = 
REMARK  5 active torsions:
REMARK  status: ('A' for Active; 'I' for Inactive)
REMARK    1  A    between atoms: C_2  and  O_5
REMARK    2  A    between atoms: O_5  and  C_6
REMARK    3  A    between atoms: C_10  and  N_11
REMARK    4  A    between atoms: N_11  and  C_12
REMARK    5  A    between atoms: C_23  and  N_24
REMARK                            x       y       z     vdW  Elec       q    Type
REMARK                         _______ _______ _______ _____ _____    ______ ____
ROOT
ATOM      1  C   UNL     1       0.006  10.679  19.297  0.00  0.00    +0.000 A 
ATOM      2  N   UNL     1       0.855   9.783  18.753  0.00  0.00    +0.000 NA
ATOM      3  N   UNL     1       1.374   8.844  19.498  0.00  0.00    +0.000 NA
ATOM      4  N   UNL     1       1.080   8.724  20.763  0.00  0.00    +0.000 NA
ATOM      5  C   UNL     1       0.256   9.614  21.333  0.00  0.00    +0.000 A 
ATOM      6  C   UNL     1      -0.077   9.509  22.671  0.00  0.00    +0.000 A 
ATOM      7  C   UNL     1      -0.915  10.446  23.274  0.00  0.00    +0.000 A 
ATOM      8  C   UNL     1      -1.415  11.501  22.521  0.00  0.00    +0.000 A 
ATOM      9  N   UNL     1      -2.114  12.525  23.158  0.00  0.00    +0.000 N 
ATOM     10  C   UNL     1      -2.181  13.772  22.394  0.00  0.00    +0.000 C 
ATOM     11  C   UNL     1      -2.544  14.898  23.350  0.00  0.00    +0.000 C 
ATOM     12  C   UNL     1      -3.847  14.651  24.140  0.00  0.00    +0.000 C 
ATOM     13  C   UNL     1      -3.836  13.227  24.743  0.00  0.00    +0.000 C 
ATOM     14  C   UNL     1      -3.377  12.126  23.784  0.00  0.00    +0.000 C 
ATOM     15  N   UNL     1      -1.135  11.597  21.206  0.00  0.00    +0.000 NA
ATOM     16  C   UNL     1      -0.314  10.667  20.641  0.00  0.00    +0.000 A 
ENDROOT
BRANCH  12  17
ATOM     17  N   UNL     1      -5.128  15.037  23.493  0.00  0.00    +0.000 NA
ATOM     18  C   UNL     1      -4.965  15.235  22.041  0.00  0.00    +0.000 C 
ATOM     19  C   UNL     1      -6.229  15.772  21.373  0.00  0.00    +0.000 C 
ATOM     20  C   UNL     1      -7.416  14.863  21.656  0.00  0.00    +0.000 C 
ATOM     21  C   UNL     1      -7.585  14.715  23.160  0.00  0.00    +0.000 C 
ATOM     22  C   UNL     1      -6.297  14.216  23.813  0.00  0.00    +0.000 C 
ENDBRANCH  12  17
BRANCH   1  23
ATOM     23  N   UNL     1      -0.590  11.695  18.479  0.00  0.00    +0.000 N 
ATOM     24  H   UNL     1      -0.423  12.601  18.923  0.00  0.00    +0.000 HD
BRANCH  23  29
ATOM     25  C   UNL     1      -3.314  11.363  15.978  0.00  0.00    +0.000 A 
ATOM     26  C   UNL     1      -4.442  11.491  16.792  0.00  0.00    +0.000 A 
ATOM     27  C   UNL     1      -4.308  11.691  18.162  0.00  0.00    +0.000 A 
ATOM     28  C   UNL     1      -3.039  11.743  18.729  0.00  0.00    +0.000 A 
ATOM     29  C   UNL     1      -1.892  11.624  17.932  0.00  0.00    +0.000 A 
ATOM     30  C   UNL     1      -2.043  11.487  16.544  0.00  0.00    +0.000 A 
BRANCH  25  31
ATOM     31  O   UNL     1      -3.597  11.162  14.662  0.00  0.00    +0.000 OA
BRANCH  31  33
ATOM     32  F   UNL     1      -2.480   9.719  13.222  0.00  0.00    +0.000 F 
ATOM     33  C   UNL     1      -3.477   9.857  14.117  0.00  0.00    +0.000 C 
ATOM     34  F   UNL     1      -4.645   9.509  13.534  0.00  0.00    +0.000 F 
ATOM     35  F   UNL     1      -3.244   8.993  15.133  0.00  0.00    +0.000 F 
ENDBRANCH  31  33
ENDBRANCH  25  31
ENDBRANCH  23  29
ENDBRANCH   1  23
TORSDOF 5
ENDMDL
MODEL 8
REMARK VINA RESULT:      -7.2      8.718     10.920
REMARK  Name = 
REMARK  5 active torsions:
REMARK  status: ('A' for Active; 'I' for Inactive)
REMARK    1  A    between atoms: C_2  and  O_5
REMARK    2  A    between atoms: O_5  and  C_6
REMARK    3  A    between atoms: C_10  and  N_11
REMARK    4  A    between atoms: N_11  and  C_12
REMARK    5  A    between atoms: C_23  and  N_24
REMARK                            x       y       z     vdW  Elec       q    Type
REMARK                         _______ _______ _______ _____ _____    ______ ____
ROOT
ATOM      1  C   UNL     1       9.977  14.836  17.597  0.00  0.00    +0.000 A 
ATOM      2  N   UNL     1      11.284  15.067  17.359  0.00  0.00    +0.000 NA
ATOM      3  N   UNL     1      11.771  16.269  17.515  0.00  0.00    +0.000 NA
ATOM      4  N   UNL     1      11.035  17.265  17.922  0.00  0.00    +0.000 NA
ATOM      5  C   UNL     1       9.729  17.069  18.145  0.00  0.00    +0.000 A 
ATOM      6  C   UNL     1       8.924  18.105  18.581  0.00  0.00    +0.000 A 
ATOM      7  C   UNL     1       7.560  17.910  18.792  0.00  0.00    +0.000 A 
ATOM      8  C   UNL     1       7.002  16.660  18.554  0.00  0.00    +0.000 A 
ATOM      9  N   UNL     1       5.618  16.507  18.605  0.00  0.00    +0.000 N 
ATOM     10  C   UNL     1       5.118  15.325  17.903  0.00  0.00    +0.000 C 
ATOM     11  C   UNL     1       3.632  15.516  17.643  0.00  0.00    +0.000 C 
ATOM     12  C   UNL     1       2.808  15.805  18.916  0.00  0.00    +0.000 C 
ATOM     13  C   UNL     1       3.497  16.907  19.752  0.00  0.00    +0.000 C 
ATOM     14  C   UNL     1       5.010  16.738  19.918  0.00  0.00    +0.000 C 
ATOM     15  N   UNL     1       7.778  15.627  18.169  0.00  0.00    +0.000 NA
ATOM     16  C   UNL     1       9.109  15.844  17.970  0.00  0.00    +0.000 A 
ENDROOT
BRANCH  12  17
ATOM     17  N   UNL     1       2.330  14.640  19.705  0.00  0.00    +0.000 NA
ATOM     18  C   UNL     1       1.261  15.022  20.645  0.00  0.00    +0.000 C 
ATOM     19  C   UNL     1       0.851  13.878  21.570  0.00  0.00    +0.000 C 
ATOM     20  C   UNL     1       0.438  12.655  20.764  0.00  0.00    +0.000 C 
ATOM     21  C   UNL     1       1.576  12.259  19.837  0.00  0.00    +0.000 C 
ATOM     22  C   UNL     1       1.998  13.430  18.950  0.00  0.00    +0.000 C 
ENDBRANCH  12  17
BRANCH   1  23
ATOM     23  N   UNL     1       9.441  13.514  17.457  0.00  0.00    +0.000 N 
ATOM     24  H   UNL     1       8.535  13.585  16.989  0.00  0.00    +0.000 HD
BRANCH  23  29
ATOM     25  C   UNL     1       9.500  12.031  20.860  0.00  0.00    +0.000 A 
ATOM     26  C   UNL     1       9.378  10.671  20.561  0.00  0.00    +0.000 A 
ATOM     27  C   UNL     1       9.281  10.241  19.242  0.00  0.00    +0.000 A 
ATOM     28  C   UNL     1       9.285  11.176  18.212  0.00  0.00    +0.000 A 
ATOM     29  C   UNL     1       9.413  12.545  18.486  0.00  0.00    +0.000 A 
ATOM     30  C   UNL     1       9.575  12.957  19.817  0.00  0.00    +0.000 A 
BRANCH  25  31
ATOM     31  O   UNL     1       9.576  12.304  22.192  0.00  0.00    +0.000 OA
BRANCH  31  33
ATOM     32  F   UNL     1       7.308  12.812  22.216  0.00  0.00    +0.000 F 
ATOM     33  C   UNL     1       8.379  12.436  22.942  0.00  0.00    +0.000 C 
ATOM     34  F   UNL     1       8.573  13.327  23.938  0.00  0.00    +0.000 F 
ATOM     35  F   UNL     1       8.096  11.237  23.504  0.00  0.00    +0.000 F 
ENDBRANCH  31  33
ENDBRANCH  25  31
ENDBRANCH  23  29
ENDBRANCH   1  23
TORSDOF 5
ENDMDL
MODEL 9
REMARK VINA RESULT:      -7.1      5.625      9.723
REMARK  Name = 
REMARK  5 active torsions:
REMARK  status: ('A' for Active; 'I' for Inactive)
REMARK    1  A    between atoms: C_2  and  O_5
REMARK    2  A    between atoms: O_5  and  C_6
REMARK    3  A    between atoms: C_10  and  N_11
REMARK    4  A    between atoms: N_11  and  C_12
REMARK    5  A    between atoms: C_23  and  N_24
REMARK                            x       y       z     vdW  Elec       q    Type
REMARK                         _______ _______ _______ _____ _____    ______ ____
ROOT
ATOM      1  C   UNL     1       0.670  12.694  21.273  0.00  0.00    +0.000 A 
ATOM      2  N   UNL     1      -0.030  13.631  21.946  0.00  0.00    +0.000 NA
ATOM      3  N   UNL     1      -0.966  13.269  22.782  0.00  0.00    +0.000 NA
ATOM      4  N   UNL     1      -1.238  12.015  23.012  0.00  0.00    +0.000 NA
ATOM      5  C   UNL     1      -0.573  11.064  22.342  0.00  0.00    +0.000 A 
ATOM      6  C   UNL     1      -0.838   9.726  22.569  0.00  0.00    +0.000 A 
ATOM      7  C   UNL     1      -0.164   8.734  21.857  0.00  0.00    +0.000 A 
ATOM      8  C   UNL     1       0.778   9.097  20.904  0.00  0.00    +0.000 A 
ATOM      9  N   UNL     1       1.329   8.118  20.079  0.00  0.00    +0.000 N 
ATOM     10  C   UNL     1       1.923   8.635  18.846  0.00  0.00    +0.000 C 
ATOM     11  C   UNL     1       2.061   7.483  17.862  0.00  0.00    +0.000 C 
ATOM     12  C   UNL     1       2.862   6.285  18.413  0.00  0.00    +0.000 C 
ATOM     13  C   UNL     1       2.353   5.913  19.824  0.00  0.00    +0.000 C 
ATOM     14  C   UNL     1       2.134   7.102  20.763  0.00  0.00    +0.000 C 
ATOM     15  N   UNL     1       1.079  10.394  20.698  0.00  0.00    +0.000 NA
ATOM     16  C   UNL     1       0.407  11.345  21.407  0.00  0.00    +0.000 A 
ENDROOT
BRANCH  12  17
ATOM     17  N   UNL     1       4.342   6.328  18.283  0.00  0.00    +0.000 NA
ATOM     18  C   UNL     1       4.991   5.296  19.110  0.00  0.00    +0.000 C 
ATOM     19  C   UNL     1       6.514   5.410  19.109  0.00  0.00    +0.000 C 
ATOM     20  C   UNL     1       7.056   5.370  17.688  0.00  0.00    +0.000 C 
ATOM     21  C   UNL     1       6.402   6.472  16.872  0.00  0.00    +0.000 C 
ATOM     22  C   UNL     1       4.878   6.364  16.920  0.00  0.00    +0.000 C 
ENDBRANCH  12  17
BRANCH   1  23
ATOM     23  N   UNL     1       1.718  13.083  20.376  0.00  0.00    +0.000 N 
ATOM     24  H   UNL     1       2.536  12.501  20.570  0.00  0.00    +0.000 HD
BRANCH  23  29
ATOM     25  C   UNL     1       1.886  16.396  18.708  0.00  0.00    +0.000 A 
ATOM     26  C   UNL     1       2.807  17.060  19.524  0.00  0.00    +0.000 A 
ATOM     27  C   UNL     1       3.375  16.418  20.618  0.00  0.00    +0.000 A 
ATOM     28  C   UNL     1       3.008  15.109  20.916  0.00  0.00    +0.000 A 
ATOM     29  C   UNL     1       2.092  14.420  20.109  0.00  0.00    +0.000 A 
ATOM     30  C   UNL     1       1.576  15.060  18.972  0.00  0.00    +0.000 A 
BRANCH  25  31
ATOM     31  O   UNL     1       1.406  17.151  17.682  0.00  0.00    +0.000 OA
BRANCH  31  33
ATOM     32  F   UNL     1      -0.210  18.556  16.779  0.00  0.00    +0.000 F 
ATOM     33  C   UNL     1       0.110  17.719  17.785  0.00  0.00    +0.000 C 
ATOM     34  F   UNL     1       0.005  18.380  18.958  0.00  0.00    +0.000 F 
ATOM     35  F   UNL     1      -0.796  16.713  17.790  0.00  0.00    +0.000 F 
ENDBRANCH  31  33
ENDBRANCH  25  31
ENDBRANCH  23  29
ENDBRANCH   1  23
TORSDOF 5
ENDMDL
