MODEL 1
REMARK VINA RESULT:      -7.2      0.000      0.000
REMARK  Name = 
REMARK  7 active torsions:
REMARK  status: ('A' for Active; 'I' for Inactive)
REMARK    1  A    between atoms: C_5  and  C_6
REMARK    2  A    between atoms: C_6  and  O_7
REMARK    3  A    between atoms: O_7  and  C_8
REMARK    4  A    between atoms: C_14  and  C_15
REMARK    5  A    between atoms: C_15  and  N_16
REMARK    6  A    between atoms: N_16  and  C_17
REMARK    7  A    between atoms: C_17  and  C_18
REMARK                            x       y       z     vdW  Elec       q    Type
REMARK                         _______ _______ _______ _____ _____    ______ ____
ROOT
ATOM      1  C   UNL     1       1.906   7.477  20.082  0.00  0.00    +0.000 A 
ATOM      2  C   UNL     1       1.254   8.320  21.000  0.00  0.00    +0.000 A 
ATOM      3  C   UNL     1       0.829   9.603  20.642  0.00  0.00    +0.000 A 
ATOM      4  C   UNL     1       1.048  10.049  19.350  0.00  0.00    +0.000 A 
ATOM      5 BR   UNL     1       0.474  11.776  18.837  0.00  0.00    +0.000 Br
ATOM      6  C   UNL     1       1.704   9.237  18.428  0.00  0.00    +0.000 A 
ATOM      7  C   UNL     1       2.184   7.954  18.784  0.00  0.00    +0.000 A 
ENDROOT
BRANCH   1   8
ATOM      8  O   UNL     1       2.229   6.260  20.633  0.00  0.00    +0.000 OA
BRANCH   8   9
ATOM      9  C   UNL     1       1.324   5.177  20.439  0.00  0.00    +0.000 C 
BRANCH   9  14
ATOM     10  F   UNL     1       3.903   0.969  17.725  0.00  0.00    +0.000 F 
ATOM     11  C   UNL     1       3.267   1.938  18.396  0.00  0.00    +0.000 A 
ATOM     12  C   UNL     1       2.213   2.606  17.789  0.00  0.00    +0.000 A 
ATOM     13  C   UNL     1       1.563   3.626  18.481  0.00  0.00    +0.000 A 
ATOM     14  C   UNL     1       1.962   3.974  19.785  0.00  0.00    +0.000 A 
ATOM     15  C   UNL     1       3.036   3.293  20.375  0.00  0.00    +0.000 A 
ATOM     16  C   UNL     1       3.684   2.270  19.680  0.00  0.00    +0.000 A 
ENDBRANCH   9  14
ENDBRANCH   8   9
ENDBRANCH   1   8
BRANCH   7  17
ATOM     17  C   UNL     1       2.939   7.160  17.740  0.00  0.00    +0.000 C 
BRANCH  17  18
ATOM     18  N   UNL     1       4.127   6.472  18.250  0.00  0.00    +0.000 NA
ATOM     19  H   UNL     1       3.914   5.475  18.301  0.00  0.00    +0.000 HD
BRANCH  18  20
ATOM     20  C   UNL     1       5.255   6.675  17.336  0.00  0.00    +0.000 C 
BRANCH  20  21
ATOM     21  C   UNL     1       5.171   5.737  16.131  0.00  0.00    +0.000 C 
ATOM     22  C   UNL     1       5.362   4.268  16.482  0.00  0.00    +0.000 C 
ATOM     23  C   UNL     1       5.913   3.724  15.190  0.00  0.00    +0.000 C 
ATOM     24  C   UNL     1       6.823   4.850  14.751  0.00  0.00    +0.000 C 
ATOM     25  O   UNL     1       6.203   6.070  15.182  0.00  0.00    +0.000 OA
ENDBRANCH  20  21
ENDBRANCH  18  20
ENDBRANCH  17  18
ENDBRANCH   7  17
TORSDOF 7
ENDMDL
MODEL 2
REMARK VINA RESULT:      -7.1      0.663      1.173
REMARK  Name = 
REMARK  7 active torsions:
REMARK  status: ('A' for Active; 'I' for Inactive)
REMARK    1  A    between atoms: C_5  and  C_6
REMARK    2  A    between atoms: C_6  and  O_7
REMARK    3  A    between atoms: O_7  and  C_8
REMARK    4  A    between atoms: C_14  and  C_15
REMARK    5  A    between atoms: C_15  and  N_16
REMARK    6  A    between atoms: N_16  and  C_17
REMARK    7  A    between atoms: C_17  and  C_18
REMARK                            x       y       z     vdW  Elec       q    Type
REMARK                         _______ _______ _______ _____ _____    ______ ____
ROOT
ATOM      1  C   UNL     1       1.895   7.683  19.974  0.00  0.00    +0.000 A 
ATOM      2  C   UNL     1       1.150   8.163  21.066  0.00  0.00    +0.000 A 
ATOM      3  C   UNL     1       0.417   9.350  20.988  0.00  0.00    +0.000 A 
ATOM      4  C   UNL     1       0.419  10.066  19.803  0.00  0.00    +0.000 A 
ATOM      5 BR   UNL     1      -0.573  11.670  19.667  0.00  0.00    +0.000 Br
ATOM      6  C   UNL     1       1.160   9.618  18.713  0.00  0.00    +0.000 A 
ATOM      7  C   UNL     1       1.946   8.443  18.787  0.00  0.00    +0.000 A 
ENDROOT
BRANCH   1   8
ATOM      8  O   UNL     1       2.532   6.498  20.259  0.00  0.00    +0.000 OA
BRANCH   8   9
ATOM      9  C   UNL     1       1.740   5.315  20.329  0.00  0.00    +0.000 C 
BRANCH   9  14
ATOM     10  F   UNL     1       3.908   0.704  17.929  0.00  0.00    +0.000 F 
ATOM     11  C   UNL     1       3.407   1.826  18.462  0.00  0.00    +0.000 A 
ATOM     12  C   UNL     1       4.084   2.443  19.506  0.00  0.00    +0.000 A 
ATOM     13  C   UNL     1       3.553   3.600  20.073  0.00  0.00    +0.000 A 
ATOM     14  C   UNL     1       2.348   4.145  19.593  0.00  0.00    +0.000 A 
ATOM     15  C   UNL     1       1.676   3.500  18.545  0.00  0.00    +0.000 A 
ATOM     16  C   UNL     1       2.211   2.342  17.977  0.00  0.00    +0.000 A 
ENDBRANCH   9  14
ENDBRANCH   8   9
ENDBRANCH   1   8
BRANCH   7  17
ATOM     17  C   UNL     1       2.770   8.059  17.576  0.00  0.00    +0.000 C 
BRANCH  17  18
ATOM     18  N   UNL     1       3.695   6.947  17.806  0.00  0.00    +0.000 NA
ATOM     19  H   UNL     1       3.262   6.098  17.438  0.00  0.00    +0.000 HD
BRANCH  18  20
ATOM     20  C   UNL     1       4.956   7.189  17.099  0.00  0.00    +0.000 C 
BRANCH  20  21
ATOM     21  C   UNL     1       5.246   6.082  16.085  0.00  0.00    +0.000 C 
ATOM     22  C   UNL     1       4.749   4.709  16.515  0.00  0.00    +0.000 C 
ATOM     23  C   UNL     1       5.706   3.804  15.785  0.00  0.00    +0.000 C 
ATOM     24  C   UNL     1       7.006   4.566  15.921  0.00  0.00    +0.000 C 
ATOM     25  O   UNL     1       6.670   5.960  15.892  0.00  0.00    +0.000 OA
ENDBRANCH  20  21
ENDBRANCH  18  20
ENDBRANCH  17  18
ENDBRANCH   7  17
TORSDOF 7
ENDMDL
MODEL 3
REMARK VINA RESULT:      -7.1      1.213      1.815
REMARK  Name = 
REMARK  7 active torsions:
REMARK  status: ('A' for Active; 'I' for Inactive)
REMARK    1  A    between atoms: C_5  and  C_6
REMARK    2  A    between atoms: C_6  and  O_7
REMARK    3  A    between atoms: O_7  and  C_8
REMARK    4  A    between atoms: C_14  and  C_15
REMARK    5  A    between atoms: C_15  and  N_16
REMARK    6  A    between atoms: N_16  and  C_17
REMARK    7  A    between atoms: C_17  and  C_18
REMARK                            x       y       z     vdW  Elec       q    Type
REMARK                         _______ _______ _______ _____ _____    ______ ____
ROOT
ATOM      1  C   UNL     1       1.909   7.758  19.886  0.00  0.00    +0.000 A 
ATOM      2  C   UNL     1       1.146   8.414  20.869  0.00  0.00    +0.000 A 
ATOM      3  C   UNL     1       0.467   9.604  20.595  0.00  0.00    +0.000 A 
ATOM      4  C   UNL     1       0.542  10.146  19.323  0.00  0.00    +0.000 A 
ATOM      5 BR   UNL     1      -0.375  11.751  18.923  0.00  0.00    +0.000 Br
ATOM      6  C   UNL     1       1.304   9.523  18.338  0.00  0.00    +0.000 A 
ATOM      7  C   UNL     1       2.036   8.342  18.608  0.00  0.00    +0.000 A 
ENDROOT
BRANCH   1   8
ATOM      8  O   UNL     1       2.484   6.603  20.359  0.00  0.00    +0.000 OA
BRANCH   8   9
ATOM      9  C   UNL     1       1.652   5.456  20.510  0.00  0.00    +0.000 C 
BRANCH   9  14
ATOM     10  F   UNL     1       3.783   0.732  18.305  0.00  0.00    +0.000 F 
ATOM     11  C   UNL     1       3.268   1.871  18.785  0.00  0.00    +0.000 A 
ATOM     12  C   UNL     1       4.122   2.849  19.276  0.00  0.00    +0.000 A 
ATOM     13  C   UNL     1       3.585   4.027  19.793  0.00  0.00    +0.000 A 
ATOM     14  C   UNL     1       2.193   4.230  19.813  0.00  0.00    +0.000 A 
ATOM     15  C   UNL     1       1.348   3.225  19.321  0.00  0.00    +0.000 A 
ATOM     16  C   UNL     1       1.889   2.047  18.802  0.00  0.00    +0.000 A 
ENDBRANCH   9  14
ENDBRANCH   8   9
ENDBRANCH   1   8
BRANCH   7  17
ATOM     17  C   UNL     1       2.887   7.762  17.499  0.00  0.00    +0.000 C 
BRANCH  17  18
ATOM     18  N   UNL     1       3.973   6.896  17.964  0.00  0.00    +0.000 NA
ATOM     19  H   UNL     1       3.565   6.170  18.554  0.00  0.00    +0.000 HD
BRANCH  18  20
ATOM     20  C   UNL     1       4.638   6.267  16.818  0.00  0.00    +0.000 C 
BRANCH  20  21
ATOM     21  C   UNL     1       6.143   6.135  17.052  0.00  0.00    +0.000 C 
ATOM     22  C   UNL     1       6.515   5.801  18.489  0.00  0.00    +0.000 C 
ATOM     23  C   UNL     1       7.894   6.397  18.586  0.00  0.00    +0.000 C 
ATOM     24  C   UNL     1       7.729   7.672  17.788  0.00  0.00    +0.000 C 
ATOM     25  O   UNL     1       6.796   7.381  16.738  0.00  0.00    +0.000 OA
ENDBRANCH  20  21
ENDBRANCH  18  20
ENDBRANCH  17  18
ENDBRANCH   7  17
TORSDOF 7
ENDMDL
MODEL 4
REMARK VINA RESULT:      -7.1      3.628      6.676
REMARK  Name = 
REMARK  7 active torsions:
REMARK  status: ('A' for Active; 'I' for Inactive)
REMARK    1  A    between atoms: C_5  and  C_6
REMARK    2  A    between atoms: C_6  and  O_7
REMARK    3  A    between atoms: O_7  and  C_8
REMARK    4  A    between atoms: C_14  and  C_15
REMARK    5  A    between atoms: C_15  and  N_16
REMARK    6  A    between atoms: N_16  and  C_17
REMARK    7  A    between atoms: C_17  and  C_18
REMARK                            x       y       z     vdW  Elec       q    Type
REMARK                         _______ _______ _______ _____ _____    ______ ____
ROOT
ATOM      1  C   UNL     1       3.372   5.698  17.599  0.00  0.00    +0.000 A 
ATOM      2  C   UNL     1       4.325   6.694  17.320  0.00  0.00    +0.000 A 
ATOM      3  C   UNL     1       5.432   6.440  16.506  0.00  0.00    +0.000 A 
ATOM      4  C   UNL     1       5.589   5.180  15.955  0.00  0.00    +0.000 A 
ATOM      5 BR   UNL     1       7.073   4.813  14.842  0.00  0.00    +0.000 Br
ATOM      6  C   UNL     1       4.666   4.174  16.228  0.00  0.00    +0.000 A 
ATOM      7  C   UNL     1       3.564   4.397  17.087  0.00  0.00    +0.000 A 
ENDROOT
BRANCH   1   8
ATOM      8  O   UNL     1       2.361   6.157  18.409  0.00  0.00    +0.000 OA
BRANCH   8   9
ATOM      9  C   UNL     1       2.718   6.951  19.537  0.00  0.00    +0.000 C 
BRANCH   9  14
ATOM     10  F   UNL     1      -0.733  11.168  20.961  0.00  0.00    +0.000 F 
ATOM     11  C   UNL     1       0.052  10.147  20.597  0.00  0.00    +0.000 A 
ATOM     12  C   UNL     1       0.316   9.135  21.509  0.00  0.00    +0.000 A 
ATOM     13  C   UNL     1       1.148   8.080  21.136  0.00  0.00    +0.000 A 
ATOM     14  C   UNL     1       1.712   8.035  19.848  0.00  0.00    +0.000 A 
ATOM     15  C   UNL     1       1.440   9.073  18.946  0.00  0.00    +0.000 A 
ATOM     16  C   UNL     1       0.604  10.127  19.321  0.00  0.00    +0.000 A 
ENDBRANCH   9  14
ENDBRANCH   8   9
ENDBRANCH   1   8
BRANCH   7  17
ATOM     17  C   UNL     1       2.641   3.233  17.380  0.00  0.00    +0.000 C 
BRANCH  17  18
ATOM     18  N   UNL     1       1.302   3.625  17.827  0.00  0.00    +0.000 NA
ATOM     19  H   UNL     1       0.744   3.835  16.999  0.00  0.00    +0.000 HD
BRANCH  18  20
ATOM     20  C   UNL     1       0.676   2.520  18.560  0.00  0.00    +0.000 C 
BRANCH  20  21
ATOM     21  C   UNL     1       1.061   2.545  20.040  0.00  0.00    +0.000 C 
ATOM     22  C   UNL     1       1.174   3.947  20.622  0.00  0.00    +0.000 C 
ATOM     23  C   UNL     1       2.167   3.728  21.732  0.00  0.00    +0.000 C 
ATOM     24  C   UNL     1       3.128   2.750  21.092  0.00  0.00    +0.000 C 
ATOM     25  O   UNL     1       2.348   1.921  20.220  0.00  0.00    +0.000 OA
ENDBRANCH  20  21
ENDBRANCH  18  20
ENDBRANCH  17  18
ENDBRANCH   7  17
TORSDOF 7
ENDMDL
MODEL 5
REMARK VINA RESULT:      -7.0      2.030      4.418
REMARK  Name = 
REMARK  7 active torsions:
REMARK  status: ('A' for Active; 'I' for Inactive)
REMARK    1  A    between atoms: C_5  and  C_6
REMARK    2  A    between atoms: C_6  and  O_7
REMARK    3  A    between atoms: O_7  and  C_8
REMARK    4  A    between atoms: C_14  and  C_15
REMARK    5  A    between atoms: C_15  and  N_16
REMARK    6  A    between atoms: N_16  and  C_17
REMARK    7  A    between atoms: C_17  and  C_18
REMARK                            x       y       z     vdW  Elec       q    Type
REMARK                         _______ _______ _______ _____ _____    ______ ____
ROOT
ATOM      1  C   UNL     1       2.805   6.610  18.875  0.00  0.00    +0.000 A 
ATOM      2  C   UNL     1       2.929   7.561  17.845  0.00  0.00    +0.000 A 
ATOM      3  C   UNL     1       2.297   8.805  17.918  0.00  0.00    +0.000 A 
ATOM      4  C   UNL     1       1.537   9.112  19.035  0.00  0.00    +0.000 A 
ATOM      5 BR   UNL     1       0.680  10.792  19.162  0.00  0.00    +0.000 Br
ATOM      6  C   UNL     1       1.389   8.181  20.059  0.00  0.00    +0.000 A 
ATOM      7  C   UNL     1       1.982   6.898  19.984  0.00  0.00    +0.000 A 
ENDROOT
BRANCH   1   8
ATOM      8  O   UNL     1       3.512   5.462  18.610  0.00  0.00    +0.000 OA
BRANCH   8   9
ATOM      9  C   UNL     1       4.934   5.543  18.585  0.00  0.00    +0.000 C 
BRANCH   9  14
ATOM     10  F   UNL     1       7.070   4.109  13.574  0.00  0.00    +0.000 F 
ATOM     11  C   UNL     1       6.573   4.407  14.782  0.00  0.00    +0.000 A 
ATOM     12  C   UNL     1       5.197   4.447  14.959  0.00  0.00    +0.000 A 
ATOM     13  C   UNL     1       4.679   4.774  16.211  0.00  0.00    +0.000 A 
ATOM     14  C   UNL     1       5.538   5.056  17.289  0.00  0.00    +0.000 A 
ATOM     15  C   UNL     1       6.925   5.019  17.085  0.00  0.00    +0.000 A 
ATOM     16  C   UNL     1       7.440   4.689  15.830  0.00  0.00    +0.000 A 
ENDBRANCH   9  14
ENDBRANCH   8   9
ENDBRANCH   1   8
BRANCH   7  17
ATOM     17  C   UNL     1       1.722   5.925  21.114  0.00  0.00    +0.000 C 
BRANCH  17  18
ATOM     18  N   UNL     1       2.301   4.595  20.907  0.00  0.00    +0.000 NA
ATOM     19  H   UNL     1       2.801   4.335  21.759  0.00  0.00    +0.000 HD
BRANCH  18  20
ATOM     20  C   UNL     1       1.236   3.618  20.659  0.00  0.00    +0.000 C 
BRANCH  20  21
ATOM     21  C   UNL     1       1.747   2.434  19.839  0.00  0.00    +0.000 C 
ATOM     22  C   UNL     1       3.263   2.298  19.835  0.00  0.00    +0.000 C 
ATOM     23  C   UNL     1       3.496   1.604  18.519  0.00  0.00    +0.000 C 
ATOM     24  C   UNL     1       2.477   2.287  17.633  0.00  0.00    +0.000 C 
ATOM     25  O   UNL     1       1.346   2.584  18.462  0.00  0.00    +0.000 OA
ENDBRANCH  20  21
ENDBRANCH  18  20
ENDBRANCH  17  18
ENDBRANCH   7  17
TORSDOF 7
ENDMDL
MODEL 6
REMARK VINA RESULT:      -7.0      3.183      6.745
REMARK  Name = 
REMARK  7 active torsions:
REMARK  status: ('A' for Active; 'I' for Inactive)
REMARK    1  A    between atoms: C_5  and  C_6
REMARK    2  A    between atoms: C_6  and  O_7
REMARK    3  A    between atoms: O_7  and  C_8
REMARK    4  A    between atoms: C_14  and  C_15
REMARK    5  A    between atoms: C_15  and  N_16
REMARK    6  A    between atoms: N_16  and  C_17
REMARK    7  A    between atoms: C_17  and  C_18
REMARK                            x       y       z     vdW  Elec       q    Type
REMARK                         _______ _______ _______ _____ _____    ______ ____
ROOT
ATOM      1  C   UNL     1       3.505   4.004  17.553  0.00  0.00    +0.000 A 
ATOM      2  C   UNL     1       3.535   2.662  17.972  0.00  0.00    +0.000 A 
ATOM      3  C   UNL     1       2.960   2.258  19.180  0.00  0.00    +0.000 A 
ATOM      4  C   UNL     1       2.337   3.203  19.979  0.00  0.00    +0.000 A 
ATOM      5 BR   UNL     1       1.542   2.682  21.613  0.00  0.00    +0.000 Br
ATOM      6  C   UNL     1       2.308   4.540  19.591  0.00  0.00    +0.000 A 
ATOM      7  C   UNL     1       2.926   4.976  18.395  0.00  0.00    +0.000 A 
ENDROOT
BRANCH   1   8
ATOM      8  O   UNL     1       4.118   4.183  16.336  0.00  0.00    +0.000 OA
BRANCH   8   9
ATOM      9  C   UNL     1       5.533   4.028  16.270  0.00  0.00    +0.000 C 
BRANCH   9  14
ATOM     10  F   UNL     1       8.710   7.821  18.961  0.00  0.00    +0.000 F 
ATOM     11  C   UNL     1       7.917   6.937  18.343  0.00  0.00    +0.000 A 
ATOM     12  C   UNL     1       7.911   5.616  18.769  0.00  0.00    +0.000 A 
ATOM     13  C   UNL     1       7.099   4.691  18.115  0.00  0.00    +0.000 A 
ATOM     14  C   UNL     1       6.286   5.089  17.037  0.00  0.00    +0.000 A 
ATOM     15  C   UNL     1       6.315   6.426  16.617  0.00  0.00    +0.000 A 
ATOM     16  C   UNL     1       7.128   7.351  17.275  0.00  0.00    +0.000 A 
ENDBRANCH   9  14
ENDBRANCH   8   9
ENDBRANCH   1   8
BRANCH   7  17
ATOM     17  C   UNL     1       2.900   6.456  18.078  0.00  0.00    +0.000 C 
BRANCH  17  18
ATOM     18  N   UNL     1       2.341   7.291  19.144  0.00  0.00    +0.000 NA
ATOM     19  H   UNL     1       3.058   7.404  19.863  0.00  0.00    +0.000 HD
BRANCH  18  20
ATOM     20  C   UNL     1       1.983   8.609  18.613  0.00  0.00    +0.000 C 
BRANCH  20  21
ATOM     21  C   UNL     1       0.756   9.181  19.324  0.00  0.00    +0.000 C 
ATOM     22  C   UNL     1      -0.009  10.208  18.501  0.00  0.00    +0.000 C 
ATOM     23  C   UNL     1      -0.637  11.047  19.582  0.00  0.00    +0.000 C 
ATOM     24  C   UNL     1       0.475  11.105  20.606  0.00  0.00    +0.000 C 
ATOM     25  O   UNL     1       1.162   9.848  20.536  0.00  0.00    +0.000 OA
ENDBRANCH  20  21
ENDBRANCH  18  20
ENDBRANCH  17  18
ENDBRANCH   7  17
TORSDOF 7
ENDMDL
MODEL 7
REMARK VINA RESULT:      -6.9      2.022      4.334
REMARK  Name = 
REMARK  7 active torsions:
REMARK  status: ('A' for Active; 'I' for Inactive)
REMARK    1  A    between atoms: C_5  and  C_6
REMARK    2  A    between atoms: C_6  and  O_7
REMARK    3  A    between atoms: O_7  and  C_8
REMARK    4  A    between atoms: C_14  and  C_15
REMARK    5  A    between atoms: C_15  and  N_16
REMARK    6  A    between atoms: N_16  and  C_17
REMARK    7  A    between atoms: C_17  and  C_18
REMARK                            x       y       z     vdW  Elec       q    Type
REMARK                         _______ _______ _______ _____ _____    ______ ____
ROOT
ATOM      1  C   UNL     1       2.272   7.576  18.684  0.00  0.00    +0.000 A 
ATOM      2  C   UNL     1       1.982   8.718  17.917  0.00  0.00    +0.000 A 
ATOM      3  C   UNL     1       1.282   9.803  18.454  0.00  0.00    +0.000 A 
ATOM      4  C   UNL     1       0.873   9.753  19.776  0.00  0.00    +0.000 A 
ATOM      5 BR   UNL     1      -0.066  11.210  20.530  0.00  0.00    +0.000 Br
ATOM      6  C   UNL     1       1.137   8.626  20.550  0.00  0.00    +0.000 A 
ATOM      7  C   UNL     1       1.802   7.499  20.012  0.00  0.00    +0.000 A 
ENDROOT
BRANCH   1   8
ATOM      8  O   UNL     1       2.974   6.635  17.970  0.00  0.00    +0.000 OA
BRANCH   8   9
ATOM      9  C   UNL     1       3.987   7.091  17.077  0.00  0.00    +0.000 C 
BRANCH   9  14
ATOM     10  F   UNL     1       8.608   3.951  17.792  0.00  0.00    +0.000 F 
ATOM     11  C   UNL     1       7.529   4.717  17.584  0.00  0.00    +0.000 A 
ATOM     12  C   UNL     1       7.307   5.813  18.407  0.00  0.00    +0.000 A 
ATOM     13  C   UNL     1       6.175   6.601  18.202  0.00  0.00    +0.000 A 
ATOM     14  C   UNL     1       5.268   6.297  17.170  0.00  0.00    +0.000 A 
ATOM     15  C   UNL     1       5.508   5.180  16.358  0.00  0.00    +0.000 A 
ATOM     16  C   UNL     1       6.643   4.393  16.563  0.00  0.00    +0.000 A 
ENDBRANCH   9  14
ENDBRANCH   8   9
ENDBRANCH   1   8
BRANCH   7  17
ATOM     17  C   UNL     1       1.996   6.292  20.904  0.00  0.00    +0.000 C 
BRANCH  17  18
ATOM     18  N   UNL     1       1.629   5.018  20.281  0.00  0.00    +0.000 NA
ATOM     19  H   UNL     1       1.996   5.018  19.328  0.00  0.00    +0.000 HD
BRANCH  18  20
ATOM     20  C   UNL     1       2.226   3.906  21.026  0.00  0.00    +0.000 C 
BRANCH  20  21
ATOM     21  C   UNL     1       2.801   2.849  20.083  0.00  0.00    +0.000 C 
ATOM     22  C   UNL     1       3.872   3.382  19.142  0.00  0.00    +0.000 C 
ATOM     23  C   UNL     1       3.738   2.441  17.974  0.00  0.00    +0.000 C 
ATOM     24  C   UNL     1       2.237   2.260  17.902  0.00  0.00    +0.000 C 
ATOM     25  O   UNL     1       1.752   2.317  19.250  0.00  0.00    +0.000 OA
ENDBRANCH  20  21
ENDBRANCH  18  20
ENDBRANCH  17  18
ENDBRANCH   7  17
TORSDOF 7
ENDMDL
MODEL 8
REMARK VINA RESULT:      -6.9      1.397      1.808
REMARK  Name = 
REMARK  7 active torsions:
REMARK  status: ('A' for Active; 'I' for Inactive)
REMARK    1  A    between atoms: C_5  and  C_6
REMARK    2  A    between atoms: C_6  and  O_7
REMARK    3  A    between atoms: O_7  and  C_8
REMARK    4  A    between atoms: C_14  and  C_15
REMARK    5  A    between atoms: C_15  and  N_16
REMARK    6  A    between atoms: N_16  and  C_17
REMARK    7  A    between atoms: C_17  and  C_18
REMARK                            x       y       z     vdW  Elec       q    Type
REMARK                         _______ _______ _______ _____ _____    ______ ____
ROOT
ATOM      1  C   UNL     1       1.923   7.386  20.006  0.00  0.00    +0.000 A 
ATOM      2  C   UNL     1       1.007   8.006  20.874  0.00  0.00    +0.000 A 
ATOM      3  C   UNL     1       0.382   9.211  20.541  0.00  0.00    +0.000 A 
ATOM      4  C   UNL     1       0.667   9.804  19.322  0.00  0.00    +0.000 A 
ATOM      5 BR   UNL     1      -0.172  11.429  18.842  0.00  0.00    +0.000 Br
ATOM      6  C   UNL     1       1.582   9.216  18.453  0.00  0.00    +0.000 A 
ATOM      7  C   UNL     1       2.260   8.020  18.791  0.00  0.00    +0.000 A 
ENDROOT
BRANCH   1   8
ATOM      8  O   UNL     1       2.412   6.209  20.520  0.00  0.00    +0.000 OA
BRANCH   8   9
ATOM      9  C   UNL     1       1.544   5.079  20.544  0.00  0.00    +0.000 C 
BRANCH   9  14
ATOM     10  F   UNL     1       3.911   0.724  17.870  0.00  0.00    +0.000 F 
ATOM     11  C   UNL     1       3.336   1.730  18.540  0.00  0.00    +0.000 A 
ATOM     12  C   UNL     1       2.109   2.218  18.112  0.00  0.00    +0.000 A 
ATOM     13  C   UNL     1       1.518   3.277  18.799  0.00  0.00    +0.000 A 
ATOM     14  C   UNL     1       2.151   3.845  19.920  0.00  0.00    +0.000 A 
ATOM     15  C   UNL     1       3.395   3.343  20.329  0.00  0.00    +0.000 A 
ATOM     16  C   UNL     1       3.984   2.281  19.640  0.00  0.00    +0.000 A 
ENDBRANCH   9  14
ENDBRANCH   8   9
ENDBRANCH   1   8
BRANCH   7  17
ATOM     17  C   UNL     1       3.283   7.480  17.815  0.00  0.00    +0.000 C 
BRANCH  17  18
ATOM     18  N   UNL     1       3.115   6.062  17.491  0.00  0.00    +0.000 NA
ATOM     19  H   UNL     1       2.674   6.001  16.571  0.00  0.00    +0.000 HD
BRANCH  18  20
ATOM     20  C   UNL     1       4.422   5.400  17.441  0.00  0.00    +0.000 C 
BRANCH  20  21
ATOM     21  C   UNL     1       5.499   6.245  18.123  0.00  0.00    +0.000 C 
ATOM     22  C   UNL     1       6.681   6.577  17.223  0.00  0.00    +0.000 C 
ATOM     23  C   UNL     1       7.785   6.745  18.233  0.00  0.00    +0.000 C 
ATOM     24  C   UNL     1       7.463   5.645  19.220  0.00  0.00    +0.000 C 
ATOM     25  O   UNL     1       6.034   5.531  19.255  0.00  0.00    +0.000 OA
ENDBRANCH  20  21
ENDBRANCH  18  20
ENDBRANCH  17  18
ENDBRANCH   7  17
TORSDOF 7
ENDMDL
MODEL 9
REMARK VINA RESULT:      -6.9      3.566      6.683
REMARK  Name = 
REMARK  7 active torsions:
REMARK  status: ('A' for Active; 'I' for Inactive)
REMARK    1  A    between atoms: C_5  and  C_6
REMARK    2  A    between atoms: C_6  and  O_7
REMARK    3  A    between atoms: O_7  and  C_8
REMARK    4  A    between atoms: C_14  and  C_15
REMARK    5  A    between atoms: C_15  and  N_16
REMARK    6  A    between atoms: N_16  and  C_17
REMARK    7  A    between atoms: C_17  and  C_18
REMARK                            x       y       z     vdW  Elec       q    Type
REMARK                         _______ _______ _______ _____ _____    ______ ____
ROOT
ATOM      1  C   UNL     1       4.786   6.059  17.290  0.00  0.00    +0.000 A 
ATOM      2  C   UNL     1       4.844   6.699  16.040  0.00  0.00    +0.000 A 
ATOM      3  C   UNL     1       5.321   6.043  14.902  0.00  0.00    +0.000 A 
ATOM      4  C   UNL     1       5.739   4.727  15.008  0.00  0.00    +0.000 A 
ATOM      5 BR   UNL     1       6.379   3.813  13.482  0.00  0.00    +0.000 Br
ATOM      6  C   UNL     1       5.704   4.077  16.239  0.00  0.00    +0.000 A 
ATOM      7  C   UNL     1       5.269   4.738  17.412  0.00  0.00    +0.000 A 
ENDROOT
BRANCH   1   8
ATOM      8  O   UNL     1       4.278   6.876  18.271  0.00  0.00    +0.000 OA
BRANCH   8   9
ATOM      9  C   UNL     1       2.963   6.608  18.749  0.00  0.00    +0.000 C 
BRANCH   9  14
ATOM     10  F   UNL     1      -0.343  11.082  19.633  0.00  0.00    +0.000 F 
ATOM     11  C   UNL     1       0.479  10.042  19.443  0.00  0.00    +0.000 A 
ATOM     12  C   UNL     1       0.972   9.790  18.170  0.00  0.00    +0.000 A 
ATOM     13  C   UNL     1       1.813   8.697  17.968  0.00  0.00    +0.000 A 
ATOM     14  C   UNL     1       2.167   7.858  19.042  0.00  0.00    +0.000 A 
ATOM     15  C   UNL     1       1.649   8.125  20.317  0.00  0.00    +0.000 A 
ATOM     16  C   UNL     1       0.808   9.222  20.516  0.00  0.00    +0.000 A 
ENDBRANCH   9  14
ENDBRANCH   8   9
ENDBRANCH   1   8
BRANCH   7  17
ATOM     17  C   UNL     1       5.319   3.978  18.719  0.00  0.00    +0.000 C 
BRANCH  17  18
ATOM     18  N   UNL     1       4.491   2.770  18.745  0.00  0.00    +0.000 NA
ATOM     19  H   UNL     1       4.997   2.032  18.253  0.00  0.00    +0.000 HD
BRANCH  18  20
ATOM     20  C   UNL     1       4.260   2.351  20.131  0.00  0.00    +0.000 C 
BRANCH  20  21
ATOM     21  C   UNL     1       2.775   2.412  20.491  0.00  0.00    +0.000 C 
ATOM     22  C   UNL     1       1.849   2.382  19.283  0.00  0.00    +0.000 C 
ATOM     23  C   UNL     1       0.647   3.119  19.812  0.00  0.00    +0.000 C 
ATOM     24  C   UNL     1       1.298   4.206  20.640  0.00  0.00    +0.000 C 
ATOM     25  O   UNL     1       2.494   3.639  21.193  0.00  0.00    +0.000 OA
ENDBRANCH  20  21
ENDBRANCH  18  20
ENDBRANCH  17  18
ENDBRANCH   7  17
TORSDOF 7
ENDMDL
