MODEL 1
REMARK VINA RESULT:      -7.3      0.000      0.000
REMARK  Name = 
REMARK  4 active torsions:
REMARK  status: ('A' for Active; 'I' for Inactive)
REMARK    1  A    between atoms: C_1  and  C_2
REMARK    2  A    between atoms: C_8  and  C_9
REMARK    3  A    between atoms: N_16  and  C_17
REMARK    4  A    between atoms: C_20  and  C_21
REMARK                            x       y       z     vdW  Elec       q    Type
REMARK                         _______ _______ _______ _____ _____    ______ ____
ROOT
ATOM      1  C   UNL     1       1.207   8.552  18.299  0.00  0.00    +0.000 C 
ATOM      2  C   UNL     1       2.046   7.728  19.220  0.00  0.00    +0.000 C 
ATOM      3  O   UNL     1       1.864   7.862  20.423  0.00  0.00    +0.000 OA
ATOM      4  N   UNL     1       2.981   6.831  18.779  0.00  0.00    +0.000 N 
ATOM      5  N   UNL     1       3.333   6.595  17.459  0.00  0.00    +0.000 NA
ATOM      6  C   UNL     1       4.262   5.693  17.416  0.00  0.00    +0.000 C 
ATOM      7  C   UNL     1       5.023   5.113  16.260  0.00  0.00    +0.000 C 
ATOM      8  C   UNL     1       5.187   5.709  15.054  0.00  0.00    +0.000 C 
ATOM      9  C   UNL     1       5.639   3.743  16.570  0.00  0.00    +0.000 C 
ATOM     10  N   UNL     1       6.340   3.712  17.874  0.00  0.00    +0.000 NA
ATOM     11  C   UNL     1       7.546   4.551  17.854  0.00  0.00    +0.000 C 
ATOM     12  C   UNL     1       5.398   4.025  18.976  0.00  0.00    +0.000 C 
ATOM     13  C   UNL     1       4.786   5.417  18.779  0.00  0.00    +0.000 C 
ATOM     14  C   UNL     1       3.678   5.937  19.686  0.00  0.00    +0.000 C 
ENDROOT
BRANCH   8  15
ATOM     15  C   UNL     1       6.052   5.114  13.988  0.00  0.00    +0.000 A 
ATOM     16  C   UNL     1       7.337   5.621  13.735  0.00  0.00    +0.000 A 
ATOM     17  C   UNL     1       8.129   5.076  12.711  0.00  0.00    +0.000 A 
ATOM     18  C   UNL     1       7.646   4.016  11.939  0.00  0.00    +0.000 A 
ATOM     19  C   UNL     1       6.371   3.500  12.183  0.00  0.00    +0.000 A 
ATOM     20  C   UNL     1       5.574   4.046  13.198  0.00  0.00    +0.000 A 
ENDBRANCH   8  15
BRANCH  14  21
ATOM     21  C   UNL     1       2.709   4.868  20.178  0.00  0.00    +0.000 A 
ATOM     22  C   UNL     1       1.705   4.399  19.312  0.00  0.00    +0.000 A 
ATOM     23  C   UNL     1       0.807   3.416  19.738  0.00  0.00    +0.000 A 
ATOM     24  C   UNL     1       0.905   2.885  21.026  0.00  0.00    +0.000 A 
ATOM     25  C   UNL     1       1.900   3.338  21.894  0.00  0.00    +0.000 A 
ATOM     26  C   UNL     1       2.798   4.326  21.476  0.00  0.00    +0.000 A 
ENDBRANCH  14  21
TORSDOF 2
ENDMDL
MODEL 2
REMARK VINA RESULT:      -6.1      6.329      9.586
REMARK  Name = 
REMARK  4 active torsions:
REMARK  status: ('A' for Active; 'I' for Inactive)
REMARK    1  A    between atoms: C_1  and  C_2
REMARK    2  A    between atoms: C_8  and  C_9
REMARK    3  A    between atoms: N_16  and  C_17
REMARK    4  A    between atoms: C_20  and  C_21
REMARK                            x       y       z     vdW  Elec       q    Type
REMARK                         _______ _______ _______ _____ _____    ______ ____
ROOT
ATOM      1  C   UNL     1      -1.270  16.011  20.347  0.00  0.00    +0.000 C 
ATOM      2  C   UNL     1      -1.544  15.246  21.600  0.00  0.00    +0.000 C 
ATOM      3  O   UNL     1      -2.026  15.858  22.543  0.00  0.00    +0.000 OA
ATOM      4  N   UNL     1      -1.297  13.905  21.727  0.00  0.00    +0.000 N 
ATOM      5  N   UNL     1      -0.717  13.084  20.772  0.00  0.00    +0.000 NA
ATOM      6  C   UNL     1      -0.623  11.880  21.240  0.00  0.00    +0.000 C 
ATOM      7  C   UNL     1      -0.036  10.632  20.647  0.00  0.00    +0.000 C 
ATOM      8  C   UNL     1       0.891  10.598  19.659  0.00  0.00    +0.000 C 
ATOM      9  C   UNL     1      -0.580   9.348  21.284  0.00  0.00    +0.000 C 
ATOM     10  N   UNL     1      -0.594   9.405  22.764  0.00  0.00    +0.000 NA
ATOM     11  C   UNL     1       0.769   9.421  23.312  0.00  0.00    +0.000 C 
ATOM     12  C   UNL     1      -1.453  10.520  23.231  0.00  0.00    +0.000 C 
ATOM     13  C   UNL     1      -0.934  11.858  22.693  0.00  0.00    +0.000 C 
ATOM     14  C   UNL     1      -1.707  13.155  22.900  0.00  0.00    +0.000 C 
ENDROOT
BRANCH   8  15
ATOM     15  C   UNL     1       1.507   9.315  19.197  0.00  0.00    +0.000 A 
ATOM     16  C   UNL     1       1.712   8.251  20.089  0.00  0.00    +0.000 A 
ATOM     17  C   UNL     1       2.320   7.062  19.652  0.00  0.00    +0.000 A 
ATOM     18  C   UNL     1       2.720   6.926  18.320  0.00  0.00    +0.000 A 
ATOM     19  C   UNL     1       2.519   7.977  17.421  0.00  0.00    +0.000 A 
ATOM     20  C   UNL     1       1.920   9.168  17.855  0.00  0.00    +0.000 A 
ENDBRANCH   8  15
BRANCH  14  21
ATOM     21  C   UNL     1      -3.223  12.997  22.888  0.00  0.00    +0.000 A 
ATOM     22  C   UNL     1      -3.929  13.051  24.102  0.00  0.00    +0.000 A 
ATOM     23  C   UNL     1      -5.321  12.914  24.118  0.00  0.00    +0.000 A 
ATOM     24  C   UNL     1      -6.022  12.730  22.924  0.00  0.00    +0.000 A 
ATOM     25  C   UNL     1      -5.332  12.682  21.711  0.00  0.00    +0.000 A 
ATOM     26  C   UNL     1      -3.940  12.812  21.689  0.00  0.00    +0.000 A 
ENDBRANCH  14  21
TORSDOF 2
ENDMDL
MODEL 3
REMARK VINA RESULT:      -6.1      6.042      9.329
REMARK  Name = 
REMARK  4 active torsions:
REMARK  status: ('A' for Active; 'I' for Inactive)
REMARK    1  A    between atoms: C_1  and  C_2
REMARK    2  A    between atoms: C_8  and  C_9
REMARK    3  A    between atoms: N_16  and  C_17
REMARK    4  A    between atoms: C_20  and  C_21
REMARK                            x       y       z     vdW  Elec       q    Type
REMARK                         _______ _______ _______ _____ _____    ______ ____
ROOT
ATOM      1  C   UNL     1      -0.792  15.719  19.746  0.00  0.00    +0.000 C 
ATOM      2  C   UNL     1      -1.078  15.087  21.069  0.00  0.00    +0.000 C 
ATOM      3  O   UNL     1      -1.513  15.808  21.957  0.00  0.00    +0.000 OA
ATOM      4  N   UNL     1      -0.892  13.754  21.317  0.00  0.00    +0.000 N 
ATOM      5  N   UNL     1      -0.371  12.820  20.435  0.00  0.00    +0.000 NA
ATOM      6  C   UNL     1      -0.325  11.661  21.011  0.00  0.00    +0.000 C 
ATOM      7  C   UNL     1       0.190  10.337  20.529  0.00  0.00    +0.000 C 
ATOM      8  C   UNL     1       1.096  10.166  19.535  0.00  0.00    +0.000 C 
ATOM      9  C   UNL     1      -0.402   9.146  21.291  0.00  0.00    +0.000 C 
ATOM     10  N   UNL     1      -0.385   9.340  22.759  0.00  0.00    +0.000 NA
ATOM     11  C   UNL     1       0.987   9.339  23.284  0.00  0.00    +0.000 C 
ATOM     12  C   UNL     1      -1.181  10.534  23.133  0.00  0.00    +0.000 C 
ATOM     13  C   UNL     1      -0.610  11.789  22.464  0.00  0.00    +0.000 C 
ATOM     14  C   UNL     1      -1.316  13.136  22.560  0.00  0.00    +0.000 C 
ENDROOT
BRANCH   8  15
ATOM     15  C   UNL     1       1.642   8.817  19.186  0.00  0.00    +0.000 A 
ATOM     16  C   UNL     1       1.958   8.489  17.858  0.00  0.00    +0.000 A 
ATOM     17  C   UNL     1       2.440   7.209  17.536  0.00  0.00    +0.000 A 
ATOM     18  C   UNL     1       2.618   6.253  18.540  0.00  0.00    +0.000 A 
ATOM     19  C   UNL     1       2.311   6.569  19.866  0.00  0.00    +0.000 A 
ATOM     20  C   UNL     1       1.822   7.841  20.190  0.00  0.00    +0.000 A 
ENDBRANCH   8  15
BRANCH  14  21
ATOM     21  C   UNL     1      -2.837  13.053  22.585  0.00  0.00    +0.000 A 
ATOM     22  C   UNL     1      -3.517  13.250  23.799  0.00  0.00    +0.000 A 
ATOM     23  C   UNL     1      -4.913  13.184  23.847  0.00  0.00    +0.000 A 
ATOM     24  C   UNL     1      -5.645  12.928  22.685  0.00  0.00    +0.000 A 
ATOM     25  C   UNL     1      -4.982  12.736  21.472  0.00  0.00    +0.000 A 
ATOM     26  C   UNL     1      -3.586  12.796  21.418  0.00  0.00    +0.000 A 
ENDBRANCH  14  21
TORSDOF 2
ENDMDL
MODEL 4
REMARK VINA RESULT:      -6.1     10.017     11.638
REMARK  Name = 
REMARK  4 active torsions:
REMARK  status: ('A' for Active; 'I' for Inactive)
REMARK    1  A    between atoms: C_1  and  C_2
REMARK    2  A    between atoms: C_8  and  C_9
REMARK    3  A    between atoms: N_16  and  C_17
REMARK    4  A    between atoms: C_20  and  C_21
REMARK                            x       y       z     vdW  Elec       q    Type
REMARK                         _______ _______ _______ _____ _____    ______ ____
ROOT
ATOM      1  C   UNL     1       5.544  10.962  25.911  0.00  0.00    +0.000 C 
ATOM      2  C   UNL     1       5.589  12.439  25.689  0.00  0.00    +0.000 C 
ATOM      3  O   UNL     1       4.851  13.136  26.372  0.00  0.00    +0.000 OA
ATOM      4  N   UNL     1       6.423  13.033  24.781  0.00  0.00    +0.000 N 
ATOM      5  N   UNL     1       7.283  12.384  23.908  0.00  0.00    +0.000 NA
ATOM      6  C   UNL     1       7.904  13.260  23.185  0.00  0.00    +0.000 C 
ATOM      7  C   UNL     1       8.894  13.097  22.069  0.00  0.00    +0.000 C 
ATOM      8  C   UNL     1       9.036  11.985  21.306  0.00  0.00    +0.000 C 
ATOM      9  C   UNL     1       9.758  14.343  21.841  0.00  0.00    +0.000 C 
ATOM     10  N   UNL     1       8.962  15.592  21.810  0.00  0.00    +0.000 NA
ATOM     11  C   UNL     1       8.095  15.646  20.625  0.00  0.00    +0.000 C 
ATOM     12  C   UNL     1       8.250  15.785  23.096  0.00  0.00    +0.000 C 
ATOM     13  C   UNL     1       7.307  14.608  23.368  0.00  0.00    +0.000 C 
ATOM     14  C   UNL     1       6.556  14.476  24.688  0.00  0.00    +0.000 C 
ENDROOT
BRANCH   8  15
ATOM     15  C   UNL     1       9.972  11.940  20.140  0.00  0.00    +0.000 A 
ATOM     16  C   UNL     1       9.490  12.011  18.824  0.00  0.00    +0.000 A 
ATOM     17  C   UNL     1      10.374  11.936  17.736  0.00  0.00    +0.000 A 
ATOM     18  C   UNL     1      11.748  11.798  17.955  0.00  0.00    +0.000 A 
ATOM     19  C   UNL     1      12.242  11.730  19.261  0.00  0.00    +0.000 A 
ATOM     20  C   UNL     1      11.361  11.796  20.349  0.00  0.00    +0.000 A 
ENDBRANCH   8  15
BRANCH  14  21
ATOM     21  C   UNL     1       7.318  14.988  25.904  0.00  0.00    +0.000 A 
ATOM     22  C   UNL     1       6.863  16.141  26.566  0.00  0.00    +0.000 A 
ATOM     23  C   UNL     1       7.542  16.628  27.687  0.00  0.00    +0.000 A 
ATOM     24  C   UNL     1       8.676  15.966  28.164  0.00  0.00    +0.000 A 
ATOM     25  C   UNL     1       9.134  14.816  27.519  0.00  0.00    +0.000 A 
ATOM     26  C   UNL     1       8.463  14.327  26.394  0.00  0.00    +0.000 A 
ENDBRANCH  14  21
TORSDOF 2
ENDMDL
MODEL 5
REMARK VINA RESULT:      -6.1      7.838     10.662
REMARK  Name = 
REMARK  4 active torsions:
REMARK  status: ('A' for Active; 'I' for Inactive)
REMARK    1  A    between atoms: C_1  and  C_2
REMARK    2  A    between atoms: C_8  and  C_9
REMARK    3  A    between atoms: N_16  and  C_17
REMARK    4  A    between atoms: C_20  and  C_21
REMARK                            x       y       z     vdW  Elec       q    Type
REMARK                         _______ _______ _______ _____ _____    ______ ____
ROOT
ATOM      1  C   UNL     1      -0.007   9.615  23.083  0.00  0.00    +0.000 C 
ATOM      2  C   UNL     1       0.214   9.660  21.606  0.00  0.00    +0.000 C 
ATOM      3  O   UNL     1      -0.050   8.653  20.964  0.00  0.00    +0.000 OA
ATOM      4  N   UNL     1       0.676  10.772  20.953  0.00  0.00    +0.000 N 
ATOM      5  N   UNL     1       1.058  11.968  21.539  0.00  0.00    +0.000 NA
ATOM      6  C   UNL     1       1.456  12.789  20.620  0.00  0.00    +0.000 C 
ATOM      7  C   UNL     1       2.012  14.180  20.712  0.00  0.00    +0.000 C 
ATOM      8  C   UNL     1       2.601  14.716  21.809  0.00  0.00    +0.000 C 
ATOM      9  C   UNL     1       1.870  14.974  19.407  0.00  0.00    +0.000 C 
ATOM     10  N   UNL     1       2.287  14.198  18.217  0.00  0.00    +0.000 NA
ATOM     11  C   UNL     1       3.734  13.945  18.221  0.00  0.00    +0.000 C 
ATOM     12  C   UNL     1       1.455  12.978  18.077  0.00  0.00    +0.000 C 
ATOM     13  C   UNL     1       1.595  12.088  19.317  0.00  0.00    +0.000 C 
ATOM     14  C   UNL     1       0.742  10.840  19.504  0.00  0.00    +0.000 C 
ENDROOT
BRANCH   8  15
ATOM     15  C   UNL     1       3.229  16.074  21.786  0.00  0.00    +0.000 A 
ATOM     16  C   UNL     1       2.507  17.209  22.187  0.00  0.00    +0.000 A 
ATOM     17  C   UNL     1       3.095  18.484  22.132  0.00  0.00    +0.000 A 
ATOM     18  C   UNL     1       4.411  18.631  21.685  0.00  0.00    +0.000 A 
ATOM     19  C   UNL     1       5.142  17.508  21.286  0.00  0.00    +0.000 A 
ATOM     20  C   UNL     1       4.556  16.236  21.332  0.00  0.00    +0.000 A 
ENDBRANCH   8  15
BRANCH  14  21
ATOM     21  C   UNL     1      -0.671  10.949  18.943  0.00  0.00    +0.000 A 
ATOM     22  C   UNL     1      -1.034  10.162  17.836  0.00  0.00    +0.000 A 
ATOM     23  C   UNL     1      -2.325  10.240  17.306  0.00  0.00    +0.000 A 
ATOM     24  C   UNL     1      -3.269  11.096  17.878  0.00  0.00    +0.000 A 
ATOM     25  C   UNL     1      -2.923  11.878  18.982  0.00  0.00    +0.000 A 
ATOM     26  C   UNL     1      -1.631  11.809  19.513  0.00  0.00    +0.000 A 
ENDBRANCH  14  21
TORSDOF 2
ENDMDL
MODEL 6
REMARK VINA RESULT:      -6.0      5.730      9.077
REMARK  Name = 
REMARK  4 active torsions:
REMARK  status: ('A' for Active; 'I' for Inactive)
REMARK    1  A    between atoms: C_1  and  C_2
REMARK    2  A    between atoms: C_8  and  C_9
REMARK    3  A    between atoms: N_16  and  C_17
REMARK    4  A    between atoms: C_20  and  C_21
REMARK                            x       y       z     vdW  Elec       q    Type
REMARK                         _______ _______ _______ _____ _____    ______ ____
ROOT
ATOM      1  C   UNL     1      -0.359  15.379  19.043  0.00  0.00    +0.000 C 
ATOM      2  C   UNL     1      -0.712  14.894  20.411  0.00  0.00    +0.000 C 
ATOM      3  O   UNL     1      -1.142  15.715  21.209  0.00  0.00    +0.000 OA
ATOM      4  N   UNL     1      -0.592  13.585  20.795  0.00  0.00    +0.000 N 
ATOM      5  N   UNL     1      -0.085  12.548  20.026  0.00  0.00    +0.000 NA
ATOM      6  C   UNL     1      -0.108  11.452  20.715  0.00  0.00    +0.000 C 
ATOM      7  C   UNL     1       0.364  10.066  20.382  0.00  0.00    +0.000 C 
ATOM      8  C   UNL     1       1.291   9.761  19.442  0.00  0.00    +0.000 C 
ATOM      9  C   UNL     1      -0.303   8.981  21.236  0.00  0.00    +0.000 C 
ATOM     10  N   UNL     1      -0.321   9.319  22.678  0.00  0.00    +0.000 NA
ATOM     11  C   UNL     1       1.033   9.315  23.248  0.00  0.00    +0.000 C 
ATOM     12  C   UNL     1      -1.075  10.575  22.906  0.00  0.00    +0.000 C 
ATOM     13  C   UNL     1      -0.430  11.734  22.138  0.00  0.00    +0.000 C 
ATOM     14  C   UNL     1      -1.079  13.111  22.077  0.00  0.00    +0.000 C 
ENDROOT
BRANCH   8  15
ATOM     15  C   UNL     1       1.788   8.364  19.245  0.00  0.00    +0.000 A 
ATOM     16  C   UNL     1       2.205   7.918  17.980  0.00  0.00    +0.000 A 
ATOM     17  C   UNL     1       2.640   6.594  17.800  0.00  0.00    +0.000 A 
ATOM     18  C   UNL     1       2.669   5.710  18.882  0.00  0.00    +0.000 A 
ATOM     19  C   UNL     1       2.259   6.143  20.146  0.00  0.00    +0.000 A 
ATOM     20  C   UNL     1       1.817   7.460  20.329  0.00  0.00    +0.000 A 
ENDBRANCH   8  15
BRANCH  14  21
ATOM     21  C   UNL     1      -2.603  13.092  22.058  0.00  0.00    +0.000 A 
ATOM     22  C   UNL     1      -3.272  12.772  20.864  0.00  0.00    +0.000 A 
ATOM     23  C   UNL     1      -4.669  12.743  20.822  0.00  0.00    +0.000 A 
ATOM     24  C   UNL     1      -5.413  13.025  21.970  0.00  0.00    +0.000 A 
ATOM     25  C   UNL     1      -4.760  13.339  23.164  0.00  0.00    +0.000 A 
ATOM     26  C   UNL     1      -3.363  13.375  23.211  0.00  0.00    +0.000 A 
ENDBRANCH  14  21
TORSDOF 2
ENDMDL
MODEL 7
REMARK VINA RESULT:      -5.9      7.805     11.505
REMARK  Name = 
REMARK  4 active torsions:
REMARK  status: ('A' for Active; 'I' for Inactive)
REMARK    1  A    between atoms: C_1  and  C_2
REMARK    2  A    between atoms: C_8  and  C_9
REMARK    3  A    between atoms: N_16  and  C_17
REMARK    4  A    between atoms: C_20  and  C_21
REMARK                            x       y       z     vdW  Elec       q    Type
REMARK                         _______ _______ _______ _____ _____    ______ ____
ROOT
ATOM      1  C   UNL     1      -5.563  12.674  24.149  0.00  0.00    +0.000 C 
ATOM      2  C   UNL     1      -4.877  13.871  23.577  0.00  0.00    +0.000 C 
ATOM      3  O   UNL     1      -5.390  14.965  23.772  0.00  0.00    +0.000 OA
ATOM      4  N   UNL     1      -3.706  13.796  22.870  0.00  0.00    +0.000 N 
ATOM      5  N   UNL     1      -3.027  12.637  22.530  0.00  0.00    +0.000 NA
ATOM      6  C   UNL     1      -1.969  12.943  21.848  0.00  0.00    +0.000 C 
ATOM      7  C   UNL     1      -0.926  12.078  21.202  0.00  0.00    +0.000 C 
ATOM      8  C   UNL     1      -1.096  10.781  20.846  0.00  0.00    +0.000 C 
ATOM      9  C   UNL     1       0.397  12.813  20.953  0.00  0.00    +0.000 C 
ATOM     10  N   UNL     1       0.203  14.146  20.338  0.00  0.00    +0.000 NA
ATOM     11  C   UNL     1      -0.305  14.034  18.963  0.00  0.00    +0.000 C 
ATOM     12  C   UNL     1      -0.616  15.011  21.221  0.00  0.00    +0.000 C 
ATOM     13  C   UNL     1      -1.990  14.379  21.466  0.00  0.00    +0.000 C 
ATOM     14  C   UNL     1      -2.982  14.983  22.453  0.00  0.00    +0.000 C 
ENDROOT
BRANCH   8  15
ATOM     15  C   UNL     1      -0.042  10.019  20.107  0.00  0.00    +0.000 A 
ATOM     16  C   UNL     1       0.149  10.205  18.728  0.00  0.00    +0.000 A 
ATOM     17  C   UNL     1       1.120   9.461  18.037  0.00  0.00    +0.000 A 
ATOM     18  C   UNL     1       1.912   8.534  18.720  0.00  0.00    +0.000 A 
ATOM     19  C   UNL     1       1.734   8.342  20.093  0.00  0.00    +0.000 A 
ATOM     20  C   UNL     1       0.761   9.076  20.785  0.00  0.00    +0.000 A 
ENDBRANCH   8  15
BRANCH  14  21
ATOM     21  C   UNL     1      -2.344  15.635  23.674  0.00  0.00    +0.000 A 
ATOM     22  C   UNL     1      -2.410  17.031  23.821  0.00  0.00    +0.000 A 
ATOM     23  C   UNL     1      -1.837  17.653  24.934  0.00  0.00    +0.000 A 
ATOM     24  C   UNL     1      -1.199  16.889  25.915  0.00  0.00    +0.000 A 
ATOM     25  C   UNL     1      -1.132  15.501  25.783  0.00  0.00    +0.000 A 
ATOM     26  C   UNL     1      -1.699  14.874  24.669  0.00  0.00    +0.000 A 
ENDBRANCH  14  21
TORSDOF 2
ENDMDL
MODEL 8
REMARK VINA RESULT:      -5.9      6.819     10.461
REMARK  Name = 
REMARK  4 active torsions:
REMARK  status: ('A' for Active; 'I' for Inactive)
REMARK    1  A    between atoms: C_1  and  C_2
REMARK    2  A    between atoms: C_8  and  C_9
REMARK    3  A    between atoms: N_16  and  C_17
REMARK    4  A    between atoms: C_20  and  C_21
REMARK                            x       y       z     vdW  Elec       q    Type
REMARK                         _______ _______ _______ _____ _____    ______ ____
ROOT
ATOM      1  C   UNL     1      -5.283  13.118  21.425  0.00  0.00    +0.000 C 
ATOM      2  C   UNL     1      -4.238  14.156  21.178  0.00  0.00    +0.000 C 
ATOM      3  O   UNL     1      -4.579  15.329  21.245  0.00  0.00    +0.000 OA
ATOM      4  N   UNL     1      -2.931  13.851  20.903  0.00  0.00    +0.000 N 
ATOM      5  N   UNL     1      -2.400  12.580  20.752  0.00  0.00    +0.000 NA
ATOM      6  C   UNL     1      -1.136  12.671  20.482  0.00  0.00    +0.000 C 
ATOM      7  C   UNL     1      -0.112  11.617  20.181  0.00  0.00    +0.000 C 
ATOM      8  C   UNL     1      -0.384  10.370  19.724  0.00  0.00    +0.000 C 
ATOM      9  C   UNL     1       1.327  12.086  20.428  0.00  0.00    +0.000 C 
ATOM     10  N   UNL     1       1.600  13.422  19.851  0.00  0.00    +0.000 NA
ATOM     11  C   UNL     1       1.577  13.388  18.382  0.00  0.00    +0.000 C 
ATOM     12  C   UNL     1       0.702  14.439  20.451  0.00  0.00    +0.000 C 
ATOM     13  C   UNL     1      -0.765  14.080  20.188  0.00  0.00    +0.000 C 
ATOM     14  C   UNL     1      -1.906  14.874  20.813  0.00  0.00    +0.000 C 
ENDROOT
BRANCH   8  15
ATOM     15  C   UNL     1       0.701   9.412  19.344  0.00  0.00    +0.000 A 
ATOM     16  C   UNL     1       1.261   9.430  18.056  0.00  0.00    +0.000 A 
ATOM     17  C   UNL     1       2.257   8.506  17.700  0.00  0.00    +0.000 A 
ATOM     18  C   UNL     1       2.706   7.564  18.630  0.00  0.00    +0.000 A 
ATOM     19  C   UNL     1       2.159   7.538  19.915  0.00  0.00    +0.000 A 
ATOM     20  C   UNL     1       1.159   8.453  20.272  0.00  0.00    +0.000 A 
ENDBRANCH   8  15
BRANCH  14  21
ATOM     21  C   UNL     1      -1.612  15.412  22.209  0.00  0.00    +0.000 A 
ATOM     22  C   UNL     1      -1.479  14.511  23.279  0.00  0.00    +0.000 A 
ATOM     23  C   UNL     1      -1.205  14.979  24.568  0.00  0.00    +0.000 A 
ATOM     24  C   UNL     1      -1.053  16.348  24.801  0.00  0.00    +0.000 A 
ATOM     25  C   UNL     1      -1.177  17.253  23.745  0.00  0.00    +0.000 A 
ATOM     26  C   UNL     1      -1.457  16.791  22.455  0.00  0.00    +0.000 A 
ENDBRANCH  14  21
TORSDOF 2
ENDMDL
MODEL 9
REMARK VINA RESULT:      -5.9      7.262     10.937
REMARK  Name = 
REMARK  4 active torsions:
REMARK  status: ('A' for Active; 'I' for Inactive)
REMARK    1  A    between atoms: C_1  and  C_2
REMARK    2  A    between atoms: C_8  and  C_9
REMARK    3  A    between atoms: N_16  and  C_17
REMARK    4  A    between atoms: C_20  and  C_21
REMARK                            x       y       z     vdW  Elec       q    Type
REMARK                         _______ _______ _______ _____ _____    ______ ____
ROOT
ATOM      1  C   UNL     1      -6.034  12.978  21.441  0.00  0.00    +0.000 C 
ATOM      2  C   UNL     1      -5.033  14.080  21.321  0.00  0.00    +0.000 C 
ATOM      3  O   UNL     1      -5.438  15.228  21.444  0.00  0.00    +0.000 OA
ATOM      4  N   UNL     1      -3.700  13.858  21.101  0.00  0.00    +0.000 N 
ATOM      5  N   UNL     1      -3.096  12.627  20.899  0.00  0.00    +0.000 NA
ATOM      6  C   UNL     1      -1.826  12.798  20.707  0.00  0.00    +0.000 C 
ATOM      7  C   UNL     1      -0.733  11.817  20.398  0.00  0.00    +0.000 C 
ATOM      8  C   UNL     1      -0.915  10.592  19.847  0.00  0.00    +0.000 C 
ATOM      9  C   UNL     1       0.664  12.338  20.756  0.00  0.00    +0.000 C 
ATOM     10  N   UNL     1       0.897  13.722  20.282  0.00  0.00    +0.000 NA
ATOM     11  C   UNL     1       0.954  13.785  18.815  0.00  0.00    +0.000 C 
ATOM     12  C   UNL     1      -0.084  14.651  20.895  0.00  0.00    +0.000 C 
ATOM     13  C   UNL     1      -1.514  14.239  20.526  0.00  0.00    +0.000 C 
ATOM     14  C   UNL     1      -2.726  14.934  21.136  0.00  0.00    +0.000 C 
ENDROOT
BRANCH   8  15
ATOM     15  C   UNL     1       0.237   9.716  19.468  0.00  0.00    +0.000 A 
ATOM     16  C   UNL     1       0.766   9.742  18.168  0.00  0.00    +0.000 A 
ATOM     17  C   UNL     1       1.827   8.892  17.814  0.00  0.00    +0.000 A 
ATOM     18  C   UNL     1       2.372   8.018  18.758  0.00  0.00    +0.000 A 
ATOM     19  C   UNL     1       1.857   7.985  20.057  0.00  0.00    +0.000 A 
ATOM     20  C   UNL     1       0.793   8.825  20.412  0.00  0.00    +0.000 A 
ENDBRANCH   8  15
BRANCH  14  21
ATOM     21  C   UNL     1      -2.536  15.391  22.577  0.00  0.00    +0.000 A 
ATOM     22  C   UNL     1      -2.424  16.764  22.854  0.00  0.00    +0.000 A 
ATOM     23  C   UNL     1      -2.254  17.209  24.168  0.00  0.00    +0.000 A 
ATOM     24  C   UNL     1      -2.201  16.291  25.220  0.00  0.00    +0.000 A 
ATOM     25  C   UNL     1      -2.317  14.925  24.958  0.00  0.00    +0.000 A 
ATOM     26  C   UNL     1      -2.482  14.473  23.645  0.00  0.00    +0.000 A 
ENDBRANCH  14  21
TORSDOF 2
ENDMDL
