MODEL 1
REMARK VINA RESULT:      -7.7      0.000      0.000
REMARK  Name = 
REMARK  9 active torsions:
REMARK  status: ('A' for Active; 'I' for Inactive)
REMARK    1  A    between atoms: C_1  and  C_2
REMARK    2  A    between atoms: C_4  and  C_5
REMARK    3  A    between atoms: C_5  and  N_6
REMARK    4  A    between atoms: C_7  and  C_9
REMARK    5  A    between atoms: C_9  and  C_10
REMARK    6  A    between atoms: C_14  and  O_15
REMARK    7  A    between atoms: O_15  and  C_16
REMARK    8  A    between atoms: C_21  and  C_22
REMARK    9  A    between atoms: C_22  and  O_24
REMARK                            x       y       z     vdW  Elec       q    Type
REMARK                         _______ _______ _______ _____ _____    ______ ____
ROOT
ATOM      1  N   UNL     1       5.494   4.777  17.651  0.00  0.00    +0.000 N 
ATOM      2  C   UNL     1       5.309   5.160  18.964  0.00  0.00    +0.000 C 
ATOM      3  O   UNL     1       6.241   5.531  19.674  0.00  0.00    +0.000 OA
ATOM      4  H   UNL     1       4.773   4.249  17.176  0.00  0.00    +0.000 HD
ENDROOT
BRANCH   1   5
ATOM      5  C   UNL     1       6.830   4.715  17.106  0.00  0.00    +0.000 C 
BRANCH   5   9
ATOM      6  C   UNL     1       8.128   5.672  12.571  0.00  0.00    +0.000 C 
ATOM      7  C   UNL     1       7.330   4.905  13.555  0.00  0.00    +0.000 A 
ATOM      8  O   UNL     1       7.576   5.242  14.855  0.00  0.00    +0.000 OA
ATOM      9  C   UNL     1       6.767   4.483  15.643  0.00  0.00    +0.000 A 
ATOM     10  C   UNL     1       6.014   3.646  14.854  0.00  0.00    +0.000 A 
ATOM     11  C   UNL     1       6.364   3.908  13.488  0.00  0.00    +0.000 A 
BRANCH  11  12
ATOM     12  C   UNL     1       5.767   3.221  12.346  0.00  0.00    +0.000 C 
ATOM     13  O   UNL     1       4.678   3.546  11.888  0.00  0.00    +0.000 OA
BRANCH  12  14
ATOM     14  O   UNL     1       6.464   2.195  11.805  0.00  0.00    +0.000 OA
ATOM     15  H   UNL     1       7.223   1.900  12.327  0.00  0.00    +0.000 HD
ENDBRANCH  12  14
ENDBRANCH  11  12
ENDBRANCH   5   9
ENDBRANCH   1   5
BRANCH   2  16
ATOM     16  C   UNL     1       3.875   5.057  19.465  0.00  0.00    +0.000 C 
BRANCH  16  17
ATOM     17  C   UNL     1       3.036   6.299  19.255  0.00  0.00    +0.000 A 
ATOM     18  C   UNL     1       3.169   7.059  18.082  0.00  0.00    +0.000 A 
ATOM     19  C   UNL     1       2.483   8.263  17.932  0.00  0.00    +0.000 A 
ATOM     20  C   UNL     1       1.647   8.718  18.949  0.00  0.00    +0.000 A 
ATOM     21  C   UNL     1       1.469   7.961  20.107  0.00  0.00    +0.000 A 
ATOM     22  C   UNL     1       2.175   6.763  20.268  0.00  0.00    +0.000 A 
BRANCH  21  23
ATOM     23  O   UNL     1       0.631   8.515  21.032  0.00  0.00    +0.000 OA
BRANCH  23  24
ATOM     24  C   UNL     1       1.265   9.280  22.042  0.00  0.00    +0.000 C 
ATOM     25  F   UNL     1       1.291  10.579  21.652  0.00  0.00    +0.000 F 
ATOM     26  F   UNL     1       0.478   9.220  23.147  0.00  0.00    +0.000 F 
ENDBRANCH  23  24
ENDBRANCH  21  23
ENDBRANCH  16  17
ENDBRANCH   2  16
TORSDOF 8
ENDMDL
MODEL 2
REMARK VINA RESULT:      -7.6      3.725      7.850
REMARK  Name = 
REMARK  9 active torsions:
REMARK  status: ('A' for Active; 'I' for Inactive)
REMARK    1  A    between atoms: C_1  and  C_2
REMARK    2  A    between atoms: C_4  and  C_5
REMARK    3  A    between atoms: C_5  and  N_6
REMARK    4  A    between atoms: C_7  and  C_9
REMARK    5  A    between atoms: C_9  and  C_10
REMARK    6  A    between atoms: C_14  and  O_15
REMARK    7  A    between atoms: O_15  and  C_16
REMARK    8  A    between atoms: C_21  and  C_22
REMARK    9  A    between atoms: C_22  and  O_24
REMARK                            x       y       z     vdW  Elec       q    Type
REMARK                         _______ _______ _______ _____ _____    ______ ____
ROOT
ATOM      1  N   UNL     1       3.243   5.088  20.245  0.00  0.00    +0.000 N 
ATOM      2  C   UNL     1       3.315   3.991  19.411  0.00  0.00    +0.000 C 
ATOM      3  O   UNL     1       2.313   3.375  19.054  0.00  0.00    +0.000 OA
ATOM      4  H   UNL     1       4.077   5.416  20.717  0.00  0.00    +0.000 HD
ENDROOT
BRANCH   1   5
ATOM      5  C   UNL     1       1.968   5.484  20.797  0.00  0.00    +0.000 C 
BRANCH   5   9
ATOM      6  C   UNL     1       2.214   9.262  17.824  0.00  0.00    +0.000 C 
ATOM      7  C   UNL     1       1.781   8.643  19.098  0.00  0.00    +0.000 A 
ATOM      8  O   UNL     1       2.110   7.322  19.215  0.00  0.00    +0.000 OA
ATOM      9  C   UNL     1       1.676   6.891  20.430  0.00  0.00    +0.000 A 
ATOM     10  C   UNL     1       1.053   7.926  21.088  0.00  0.00    +0.000 A 
ATOM     11  C   UNL     1       1.114   9.079  20.236  0.00  0.00    +0.000 A 
BRANCH  11  12
ATOM     12  C   UNL     1       0.567  10.385  20.591  0.00  0.00    +0.000 C 
ATOM     13  O   UNL     1      -0.149  11.020  19.826  0.00  0.00    +0.000 OA
BRANCH  12  14
ATOM     14  O   UNL     1       0.884  10.880  21.811  0.00  0.00    +0.000 OA
ATOM     15  H   UNL     1       1.777  10.667  22.115  0.00  0.00    +0.000 HD
ENDBRANCH  12  14
ENDBRANCH  11  12
ENDBRANCH   5   9
ENDBRANCH   1   5
BRANCH   2  16
ATOM     16  C   UNL     1       4.725   3.589  19.001  0.00  0.00    +0.000 C 
BRANCH  16  17
ATOM     17  C   UNL     1       5.247   4.278  17.759  0.00  0.00    +0.000 A 
ATOM     18  C   UNL     1       4.873   3.827  16.483  0.00  0.00    +0.000 A 
ATOM     19  C   UNL     1       5.437   4.384  15.337  0.00  0.00    +0.000 A 
ATOM     20  C   UNL     1       6.377   5.406  15.451  0.00  0.00    +0.000 A 
ATOM     21  C   UNL     1       6.736   5.896  16.707  0.00  0.00    +0.000 A 
ATOM     22  C   UNL     1       6.186   5.323  17.859  0.00  0.00    +0.000 A 
BRANCH  21  23
ATOM     23  O   UNL     1       7.670   6.893  16.689  0.00  0.00    +0.000 OA
BRANCH  23  24
ATOM     24  C   UNL     1       7.636   7.773  17.799  0.00  0.00    +0.000 C 
ATOM     25  F   UNL     1       8.667   7.470  18.626  0.00  0.00    +0.000 F 
ATOM     26  F   UNL     1       7.870   9.025  17.328  0.00  0.00    +0.000 F 
ENDBRANCH  23  24
ENDBRANCH  21  23
ENDBRANCH  16  17
ENDBRANCH   2  16
TORSDOF 8
ENDMDL
MODEL 3
REMARK VINA RESULT:      -7.5      3.593      5.141
REMARK  Name = 
REMARK  9 active torsions:
REMARK  status: ('A' for Active; 'I' for Inactive)
REMARK    1  A    between atoms: C_1  and  C_2
REMARK    2  A    between atoms: C_4  and  C_5
REMARK    3  A    between atoms: C_5  and  N_6
REMARK    4  A    between atoms: C_7  and  C_9
REMARK    5  A    between atoms: C_9  and  C_10
REMARK    6  A    between atoms: C_14  and  O_15
REMARK    7  A    between atoms: O_15  and  C_16
REMARK    8  A    between atoms: C_21  and  C_22
REMARK    9  A    between atoms: C_22  and  O_24
REMARK                            x       y       z     vdW  Elec       q    Type
REMARK                         _______ _______ _______ _____ _____    ______ ____
ROOT
ATOM      1  N   UNL     1       3.045   6.752  18.642  0.00  0.00    +0.000 N 
ATOM      2  C   UNL     1       2.147   7.414  19.454  0.00  0.00    +0.000 C 
ATOM      3  O   UNL     1       1.840   8.589  19.267  0.00  0.00    +0.000 OA
ATOM      4  H   UNL     1       3.463   5.885  18.957  0.00  0.00    +0.000 HD
ENDROOT
BRANCH   1   5
ATOM      5  C   UNL     1       3.724   7.473  17.591  0.00  0.00    +0.000 C 
BRANCH   5   9
ATOM      6  C   UNL     1       7.614   4.646  17.817  0.00  0.00    +0.000 C 
ATOM      7  C   UNL     1       6.546   5.320  17.043  0.00  0.00    +0.000 A 
ATOM      8  O   UNL     1       5.666   6.028  17.809  0.00  0.00    +0.000 OA
ATOM      9  C   UNL     1       4.760   6.608  16.975  0.00  0.00    +0.000 A 
ATOM     10  C   UNL     1       5.045   6.260  15.676  0.00  0.00    +0.000 A 
ATOM     11  C   UNL     1       6.210   5.422  15.698  0.00  0.00    +0.000 A 
BRANCH  11  12
ATOM     12  C   UNL     1       6.830   4.856  14.504  0.00  0.00    +0.000 C 
ATOM     13  O   UNL     1       6.419   3.827  13.982  0.00  0.00    +0.000 OA
BRANCH  12  14
ATOM     14  O   UNL     1       7.895   5.514  13.987  0.00  0.00    +0.000 OA
ATOM     15  H   UNL     1       7.810   6.477  13.976  0.00  0.00    +0.000 HD
ENDBRANCH  12  14
ENDBRANCH  11  12
ENDBRANCH   5   9
ENDBRANCH   1   5
BRANCH   2  16
ATOM     16  C   UNL     1       1.597   6.588  20.608  0.00  0.00    +0.000 C 
BRANCH  16  17
ATOM     17  C   UNL     1       1.758   5.091  20.453  0.00  0.00    +0.000 A 
ATOM     18  C   UNL     1       2.201   4.307  21.530  0.00  0.00    +0.000 A 
ATOM     19  C   UNL     1       2.459   2.947  21.362  0.00  0.00    +0.000 A 
ATOM     20  C   UNL     1       2.269   2.352  20.117  0.00  0.00    +0.000 A 
ATOM     21  C   UNL     1       1.793   3.103  19.042  0.00  0.00    +0.000 A 
ATOM     22  C   UNL     1       1.554   4.473  19.205  0.00  0.00    +0.000 A 
BRANCH  21  23
ATOM     23  O   UNL     1       1.653   2.409  17.874  0.00  0.00    +0.000 OA
BRANCH  23  24
ATOM     24  C   UNL     1       2.823   2.324  17.078  0.00  0.00    +0.000 C 
ATOM     25  F   UNL     1       3.459   3.521  17.110  0.00  0.00    +0.000 F 
ATOM     26  F   UNL     1       3.650   1.427  17.674  0.00  0.00    +0.000 F 
ENDBRANCH  23  24
ENDBRANCH  21  23
ENDBRANCH  16  17
ENDBRANCH   2  16
TORSDOF 8
ENDMDL
MODEL 4
REMARK VINA RESULT:      -7.4      1.807      2.505
REMARK  Name = 
REMARK  9 active torsions:
REMARK  status: ('A' for Active; 'I' for Inactive)
REMARK    1  A    between atoms: C_1  and  C_2
REMARK    2  A    between atoms: C_4  and  C_5
REMARK    3  A    between atoms: C_5  and  N_6
REMARK    4  A    between atoms: C_7  and  C_9
REMARK    5  A    between atoms: C_9  and  C_10
REMARK    6  A    between atoms: C_14  and  O_15
REMARK    7  A    between atoms: O_15  and  C_16
REMARK    8  A    between atoms: C_21  and  C_22
REMARK    9  A    between atoms: C_22  and  O_24
REMARK                            x       y       z     vdW  Elec       q    Type
REMARK                         _______ _______ _______ _____ _____    ______ ____
ROOT
ATOM      1  N   UNL     1       4.838   4.848  17.442  0.00  0.00    +0.000 N 
ATOM      2  C   UNL     1       5.497   4.243  18.493  0.00  0.00    +0.000 C 
ATOM      3  O   UNL     1       6.642   4.557  18.813  0.00  0.00    +0.000 OA
ATOM      4  H   UNL     1       4.015   4.411  17.046  0.00  0.00    +0.000 HD
ENDROOT
BRANCH   1   5
ATOM      5  C   UNL     1       5.533   5.816  16.625  0.00  0.00    +0.000 C 
BRANCH   5   9
ATOM      6  C   UNL     1       8.293   5.449  12.698  0.00  0.00    +0.000 C 
ATOM      7  C   UNL     1       7.125   5.025  13.504  0.00  0.00    +0.000 A 
ATOM      8  O   UNL     1       7.006   5.677  14.698  0.00  0.00    +0.000 OA
ATOM      9  C   UNL     1       5.890   5.210  15.319  0.00  0.00    +0.000 A 
ATOM     10  C   UNL     1       5.299   4.246  14.536  0.00  0.00    +0.000 A 
ATOM     11  C   UNL     1       6.088   4.113  13.346  0.00  0.00    +0.000 A 
BRANCH  11  12
ATOM     12  C   UNL     1       5.776   3.190  12.259  0.00  0.00    +0.000 C 
ATOM     13  O   UNL     1       4.679   3.175  11.713  0.00  0.00    +0.000 OA
BRANCH  12  14
ATOM     14  O   UNL     1       6.751   2.335  11.870  0.00  0.00    +0.000 OA
ATOM     15  H   UNL     1       6.790   1.510  12.374  0.00  0.00    +0.000 HD
ENDBRANCH  12  14
ENDBRANCH  11  12
ENDBRANCH   5   9
ENDBRANCH   1   5
BRANCH   2  16
ATOM     16  C   UNL     1       4.711   3.145  19.194  0.00  0.00    +0.000 C 
BRANCH  16  17
ATOM     17  C   UNL     1       3.332   3.553  19.668  0.00  0.00    +0.000 A 
ATOM     18  C   UNL     1       2.258   2.653  19.592  0.00  0.00    +0.000 A 
ATOM     19  C   UNL     1       0.965   3.057  19.920  0.00  0.00    +0.000 A 
ATOM     20  C   UNL     1       0.731   4.365  20.338  0.00  0.00    +0.000 A 
ATOM     21  C   UNL     1       1.789   5.266  20.458  0.00  0.00    +0.000 A 
ATOM     22  C   UNL     1       3.084   4.867  20.108  0.00  0.00    +0.000 A 
BRANCH  21  23
ATOM     23  O   UNL     1       1.433   6.519  20.871  0.00  0.00    +0.000 OA
BRANCH  23  24
ATOM     24  C   UNL     1       2.008   7.584  20.135  0.00  0.00    +0.000 C 
ATOM     25  F   UNL     1       1.828   7.347  18.812  0.00  0.00    +0.000 F 
ATOM     26  F   UNL     1       1.300   8.705  20.429  0.00  0.00    +0.000 F 
ENDBRANCH  23  24
ENDBRANCH  21  23
ENDBRANCH  16  17
ENDBRANCH   2  16
TORSDOF 8
ENDMDL
MODEL 5
REMARK VINA RESULT:      -7.4      1.181      1.475
REMARK  Name = 
REMARK  9 active torsions:
REMARK  status: ('A' for Active; 'I' for Inactive)
REMARK    1  A    between atoms: C_1  and  C_2
REMARK    2  A    between atoms: C_4  and  C_5
REMARK    3  A    between atoms: C_5  and  N_6
REMARK    4  A    between atoms: C_7  and  C_9
REMARK    5  A    between atoms: C_9  and  C_10
REMARK    6  A    between atoms: C_14  and  O_15
REMARK    7  A    between atoms: O_15  and  C_16
REMARK    8  A    between atoms: C_21  and  C_22
REMARK    9  A    between atoms: C_22  and  O_24
REMARK                            x       y       z     vdW  Elec       q    Type
REMARK                         _______ _______ _______ _____ _____    ______ ____
ROOT
ATOM      1  N   UNL     1       4.956   4.968  17.324  0.00  0.00    +0.000 N 
ATOM      2  C   UNL     1       4.301   6.132  17.672  0.00  0.00    +0.000 C 
ATOM      3  O   UNL     1       4.852   7.229  17.631  0.00  0.00    +0.000 OA
ATOM      4  H   UNL     1       4.572   4.073  17.600  0.00  0.00    +0.000 HD
ENDROOT
BRANCH   1   5
ATOM      5  C   UNL     1       6.360   5.012  16.988  0.00  0.00    +0.000 C 
BRANCH   5   9
ATOM      6  C   UNL     1       8.396   5.728  12.685  0.00  0.00    +0.000 C 
ATOM      7  C   UNL     1       7.447   5.007  13.565  0.00  0.00    +0.000 A 
ATOM      8  O   UNL     1       7.471   5.421  14.866  0.00  0.00    +0.000 OA
ATOM      9  C   UNL     1       6.544   4.697  15.550  0.00  0.00    +0.000 A 
ATOM     10  C   UNL     1       5.937   3.806  14.697  0.00  0.00    +0.000 A 
ATOM     11  C   UNL     1       6.510   3.996  13.395  0.00  0.00    +0.000 A 
BRANCH  11  12
ATOM     12  C   UNL     1       6.115   3.237  12.212  0.00  0.00    +0.000 C 
ATOM     13  O   UNL     1       6.921   2.588  11.556  0.00  0.00    +0.000 OA
BRANCH  12  14
ATOM     14  O   UNL     1       4.810   3.279  11.855  0.00  0.00    +0.000 OA
ATOM     15  H   UNL     1       4.277   3.925  12.339  0.00  0.00    +0.000 HD
ENDBRANCH  12  14
ENDBRANCH  11  12
ENDBRANCH   5   9
ENDBRANCH   1   5
BRANCH   2  16
ATOM     16  C   UNL     1       2.863   5.943  18.136  0.00  0.00    +0.000 C 
BRANCH  16  17
ATOM     17  C   UNL     1       2.215   7.180  18.719  0.00  0.00    +0.000 A 
ATOM     18  C   UNL     1       1.896   8.272  17.898  0.00  0.00    +0.000 A 
ATOM     19  C   UNL     1       1.403   9.456  18.445  0.00  0.00    +0.000 A 
ATOM     20  C   UNL     1       1.215   9.559  19.821  0.00  0.00    +0.000 A 
ATOM     21  C   UNL     1       1.489   8.474  20.654  0.00  0.00    +0.000 A 
ATOM     22  C   UNL     1       2.004   7.293  20.107  0.00  0.00    +0.000 A 
BRANCH  21  23
ATOM     23  O   UNL     1       1.270   8.700  21.983  0.00  0.00    +0.000 OA
BRANCH  23  24
ATOM     24  C   UNL     1      -0.026   9.172  22.310  0.00  0.00    +0.000 C 
ATOM     25  F   UNL     1      -0.918   8.172  22.102  0.00  0.00    +0.000 F 
ATOM     26  F   UNL     1      -0.035   9.431  23.643  0.00  0.00    +0.000 F 
ENDBRANCH  23  24
ENDBRANCH  21  23
ENDBRANCH  16  17
ENDBRANCH   2  16
TORSDOF 8
ENDMDL
MODEL 6
REMARK VINA RESULT:      -7.4      3.052      3.883
REMARK  Name = 
REMARK  9 active torsions:
REMARK  status: ('A' for Active; 'I' for Inactive)
REMARK    1  A    between atoms: C_1  and  C_2
REMARK    2  A    between atoms: C_4  and  C_5
REMARK    3  A    between atoms: C_5  and  N_6
REMARK    4  A    between atoms: C_7  and  C_9
REMARK    5  A    between atoms: C_9  and  C_10
REMARK    6  A    between atoms: C_14  and  O_15
REMARK    7  A    between atoms: O_15  and  C_16
REMARK    8  A    between atoms: C_21  and  C_22
REMARK    9  A    between atoms: C_22  and  O_24
REMARK                            x       y       z     vdW  Elec       q    Type
REMARK                         _______ _______ _______ _____ _____    ______ ____
ROOT
ATOM      1  N   UNL     1       5.277   5.340  17.437  0.00  0.00    +0.000 N 
ATOM      2  C   UNL     1       4.975   6.657  17.152  0.00  0.00    +0.000 C 
ATOM      3  O   UNL     1       5.750   7.386  16.538  0.00  0.00    +0.000 OA
ATOM      4  H   UNL     1       4.748   4.845  18.144  0.00  0.00    +0.000 HD
ENDROOT
BRANCH   1   5
ATOM      5  C   UNL     1       6.577   4.814  17.091  0.00  0.00    +0.000 C 
BRANCH   5   9
ATOM      6  C   UNL     1       8.260   5.649  12.659  0.00  0.00    +0.000 C 
ATOM      7  C   UNL     1       7.379   4.908  13.592  0.00  0.00    +0.000 A 
ATOM      8  O   UNL     1       7.514   5.281  14.899  0.00  0.00    +0.000 OA
ATOM      9  C   UNL     1       6.638   4.543  15.634  0.00  0.00    +0.000 A 
ATOM     10  C   UNL     1       5.954   3.685  14.806  0.00  0.00    +0.000 A 
ATOM     11  C   UNL     1       6.420   3.910  13.469  0.00  0.00    +0.000 A 
BRANCH  11  12
ATOM     12  C   UNL     1       5.921   3.193  12.299  0.00  0.00    +0.000 C 
ATOM     13  O   UNL     1       4.819   3.423  11.816  0.00  0.00    +0.000 OA
BRANCH  12  14
ATOM     14  O   UNL     1       6.727   2.247  11.761  0.00  0.00    +0.000 OA
ATOM     15  H   UNL     1       6.319   1.376  11.662  0.00  0.00    +0.000 HD
ENDBRANCH  12  14
ENDBRANCH  11  12
ENDBRANCH   5   9
ENDBRANCH   1   5
BRANCH   2  16
ATOM     16  C   UNL     1       3.631   7.135  17.684  0.00  0.00    +0.000 C 
BRANCH  16  17
ATOM     17  C   UNL     1       2.969   6.201  18.673  0.00  0.00    +0.000 A 
ATOM     18  C   UNL     1       2.307   6.710  19.801  0.00  0.00    +0.000 A 
ATOM     19  C   UNL     1       1.793   5.853  20.773  0.00  0.00    +0.000 A 
ATOM     20  C   UNL     1       1.926   4.474  20.625  0.00  0.00    +0.000 A 
ATOM     21  C   UNL     1       2.546   3.944  19.493  0.00  0.00    +0.000 A 
ATOM     22  C   UNL     1       3.081   4.805  18.527  0.00  0.00    +0.000 A 
BRANCH  21  23
ATOM     23  O   UNL     1       2.620   2.581  19.465  0.00  0.00    +0.000 OA
BRANCH  23  24
ATOM     24  C   UNL     1       1.718   1.944  18.576  0.00  0.00    +0.000 C 
ATOM     25  F   UNL     1       0.577   2.675  18.516  0.00  0.00    +0.000 F 
ATOM     26  F   UNL     1       2.274   1.989  17.338  0.00  0.00    +0.000 F 
ENDBRANCH  23  24
ENDBRANCH  21  23
ENDBRANCH  16  17
ENDBRANCH   2  16
TORSDOF 8
ENDMDL
MODEL 7
REMARK VINA RESULT:      -7.4      2.990      3.555
REMARK  Name = 
REMARK  9 active torsions:
REMARK  status: ('A' for Active; 'I' for Inactive)
REMARK    1  A    between atoms: C_1  and  C_2
REMARK    2  A    between atoms: C_4  and  C_5
REMARK    3  A    between atoms: C_5  and  N_6
REMARK    4  A    between atoms: C_7  and  C_9
REMARK    5  A    between atoms: C_9  and  C_10
REMARK    6  A    between atoms: C_14  and  O_15
REMARK    7  A    between atoms: O_15  and  C_16
REMARK    8  A    between atoms: C_21  and  C_22
REMARK    9  A    between atoms: C_22  and  O_24
REMARK                            x       y       z     vdW  Elec       q    Type
REMARK                         _______ _______ _______ _____ _____    ______ ____
ROOT
ATOM      1  N   UNL     1       6.122   5.493  17.312  0.00  0.00    +0.000 N 
ATOM      2  C   UNL     1       5.867   5.282  18.652  0.00  0.00    +0.000 C 
ATOM      3  O   UNL     1       6.658   4.690  19.382  0.00  0.00    +0.000 OA
ATOM      4  H   UNL     1       5.366   5.751  16.691  0.00  0.00    +0.000 HD
ENDROOT
BRANCH   1   5
ATOM      5  C   UNL     1       7.310   4.929  16.714  0.00  0.00    +0.000 C 
BRANCH   5   9
ATOM      6  C   UNL     1       7.934   5.683  12.001  0.00  0.00    +0.000 C 
ATOM      7  C   UNL     1       7.309   4.945  13.122  0.00  0.00    +0.000 A 
ATOM      8  O   UNL     1       7.718   5.359  14.357  0.00  0.00    +0.000 OA
ATOM      9  C   UNL     1       7.055   4.618  15.286  0.00  0.00    +0.000 A 
ATOM     10  C   UNL     1       6.233   3.717  14.651  0.00  0.00    +0.000 A 
ATOM     11  C   UNL     1       6.382   3.916  13.238  0.00  0.00    +0.000 A 
BRANCH  11  12
ATOM     12  C   UNL     1       5.660   3.151  12.226  0.00  0.00    +0.000 C 
ATOM     13  O   UNL     1       6.163   2.191  11.654  0.00  0.00    +0.000 OA
BRANCH  12  14
ATOM     14  O   UNL     1       4.399   3.546  11.931  0.00  0.00    +0.000 OA
ATOM     15  H   UNL     1       4.253   4.502  11.974  0.00  0.00    +0.000 HD
ENDBRANCH  12  14
ENDBRANCH  11  12
ENDBRANCH   5   9
ENDBRANCH   1   5
BRANCH   2  16
ATOM     16  C   UNL     1       4.523   5.807  19.138  0.00  0.00    +0.000 C 
BRANCH  16  17
ATOM     17  C   UNL     1       3.348   4.889  18.875  0.00  0.00    +0.000 A 
ATOM     18  C   UNL     1       2.512   5.101  17.768  0.00  0.00    +0.000 A 
ATOM     19  C   UNL     1       1.366   4.331  17.582  0.00  0.00    +0.000 A 
ATOM     20  C   UNL     1       1.045   3.331  18.498  0.00  0.00    +0.000 A 
ATOM     21  C   UNL     1       1.881   3.076  19.585  0.00  0.00    +0.000 A 
ATOM     22  C   UNL     1       3.021   3.864  19.783  0.00  0.00    +0.000 A 
BRANCH  21  23
ATOM     23  O   UNL     1       1.458   2.076  20.413  0.00  0.00    +0.000 OA
BRANCH  23  24
ATOM     24  C   UNL     1       1.718   2.282  21.791  0.00  0.00    +0.000 C 
ATOM     25  F   UNL     1       3.037   2.063  22.022  0.00  0.00    +0.000 F 
ATOM     26  F   UNL     1       1.489   3.595  22.053  0.00  0.00    +0.000 F 
ENDBRANCH  23  24
ENDBRANCH  21  23
ENDBRANCH  16  17
ENDBRANCH   2  16
TORSDOF 8
ENDMDL
MODEL 8
REMARK VINA RESULT:      -7.4      6.142      7.838
REMARK  Name = 
REMARK  9 active torsions:
REMARK  status: ('A' for Active; 'I' for Inactive)
REMARK    1  A    between atoms: C_1  and  C_2
REMARK    2  A    between atoms: C_4  and  C_5
REMARK    3  A    between atoms: C_5  and  N_6
REMARK    4  A    between atoms: C_7  and  C_9
REMARK    5  A    between atoms: C_9  and  C_10
REMARK    6  A    between atoms: C_14  and  O_15
REMARK    7  A    between atoms: O_15  and  C_16
REMARK    8  A    between atoms: C_21  and  C_22
REMARK    9  A    between atoms: C_22  and  O_24
REMARK                            x       y       z     vdW  Elec       q    Type
REMARK                         _______ _______ _______ _____ _____    ______ ____
ROOT
ATOM      1  N   UNL     1       8.077   8.862  17.898  0.00  0.00    +0.000 N 
ATOM      2  C   UNL     1       7.826   7.510  18.007  0.00  0.00    +0.000 C 
ATOM      3  O   UNL     1       8.278   6.834  18.929  0.00  0.00    +0.000 OA
ATOM      4  H   UNL     1       7.910   9.335  17.018  0.00  0.00    +0.000 HD
ENDROOT
BRANCH   1   5
ATOM      5  C   UNL     1       8.972   9.501  18.835  0.00  0.00    +0.000 C 
BRANCH   5   9
ATOM      6  C   UNL     1       7.931  14.044  17.633  0.00  0.00    +0.000 C 
ATOM      7  C   UNL     1       8.896  12.930  17.768  0.00  0.00    +0.000 A 
ATOM      8  O   UNL     1       8.359  11.789  18.292  0.00  0.00    +0.000 OA
ATOM      9  C   UNL     1       9.342  10.849  18.339  0.00  0.00    +0.000 A 
ATOM     10  C   UNL     1      10.514  11.388  17.864  0.00  0.00    +0.000 A 
ATOM     11  C   UNL     1      10.244  12.744  17.483  0.00  0.00    +0.000 A 
BRANCH  11  12
ATOM     12  C   UNL     1      11.242  13.648  16.920  0.00  0.00    +0.000 C 
ATOM     13  O   UNL     1      11.747  14.551  17.576  0.00  0.00    +0.000 OA
BRANCH  12  14
ATOM     14  O   UNL     1      11.595  13.456  15.627  0.00  0.00    +0.000 OA
ATOM     15  H   UNL     1      11.370  14.185  15.033  0.00  0.00    +0.000 HD
ENDBRANCH  12  14
ENDBRANCH  11  12
ENDBRANCH   5   9
ENDBRANCH   1   5
BRANCH   2  16
ATOM     16  C   UNL     1       6.979   6.923  16.887  0.00  0.00    +0.000 C 
BRANCH  16  17
ATOM     17  C   UNL     1       5.710   6.236  17.342  0.00  0.00    +0.000 A 
ATOM     18  C   UNL     1       4.486   6.924  17.337  0.00  0.00    +0.000 A 
ATOM     19  C   UNL     1       3.336   6.335  17.859  0.00  0.00    +0.000 A 
ATOM     20  C   UNL     1       3.392   5.046  18.385  0.00  0.00    +0.000 A 
ATOM     21  C   UNL     1       4.588   4.329  18.365  0.00  0.00    +0.000 A 
ATOM     22  C   UNL     1       5.748   4.928  17.861  0.00  0.00    +0.000 A 
BRANCH  21  23
ATOM     23  O   UNL     1       4.517   3.080  18.913  0.00  0.00    +0.000 OA
BRANCH  23  24
ATOM     24  C   UNL     1       3.269   2.425  18.766  0.00  0.00    +0.000 C 
ATOM     25  F   UNL     1       3.477   1.217  18.186  0.00  0.00    +0.000 F 
ATOM     26  F   UNL     1       2.793   2.181  20.014  0.00  0.00    +0.000 F 
ENDBRANCH  23  24
ENDBRANCH  21  23
ENDBRANCH  16  17
ENDBRANCH   2  16
TORSDOF 8
ENDMDL
MODEL 9
REMARK VINA RESULT:      -7.3      3.509      7.667
REMARK  Name = 
REMARK  9 active torsions:
REMARK  status: ('A' for Active; 'I' for Inactive)
REMARK    1  A    between atoms: C_1  and  C_2
REMARK    2  A    between atoms: C_4  and  C_5
REMARK    3  A    between atoms: C_5  and  N_6
REMARK    4  A    between atoms: C_7  and  C_9
REMARK    5  A    between atoms: C_9  and  C_10
REMARK    6  A    between atoms: C_14  and  O_15
REMARK    7  A    between atoms: O_15  and  C_16
REMARK    8  A    between atoms: C_21  and  C_22
REMARK    9  A    between atoms: C_22  and  O_24
REMARK                            x       y       z     vdW  Elec       q    Type
REMARK                         _______ _______ _______ _____ _____    ______ ____
ROOT
ATOM      1  N   UNL     1       2.647   4.727  18.961  0.00  0.00    +0.000 N 
ATOM      2  C   UNL     1       3.487   3.636  18.868  0.00  0.00    +0.000 C 
ATOM      3  O   UNL     1       3.995   3.116  19.858  0.00  0.00    +0.000 OA
ATOM      4  H   UNL     1       2.448   5.280  18.137  0.00  0.00    +0.000 HD
ENDROOT
BRANCH   1   5
ATOM      5  C   UNL     1       2.419   5.345  20.247  0.00  0.00    +0.000 C 
BRANCH   5   9
ATOM      6  C   UNL     1       0.302   9.422  21.686  0.00  0.00    +0.000 C 
ATOM      7  C   UNL     1       1.067   8.644  20.684  0.00  0.00    +0.000 A 
ATOM      8  O   UNL     1       1.358   7.368  21.075  0.00  0.00    +0.000 OA
ATOM      9  C   UNL     1       2.037   6.767  20.061  0.00  0.00    +0.000 A 
ATOM     10  C   UNL     1       2.200   7.658  19.027  0.00  0.00    +0.000 A 
ATOM     11  C   UNL     1       1.571   8.888  19.413  0.00  0.00    +0.000 A 
BRANCH  11  12
ATOM     12  C   UNL     1       1.523  10.079  18.570  0.00  0.00    +0.000 C 
ATOM     13  O   UNL     1       1.116  11.156  18.988  0.00  0.00    +0.000 OA
BRANCH  12  14
ATOM     14  O   UNL     1       1.946   9.952  17.290  0.00  0.00    +0.000 OA
ATOM     15  H   UNL     1       1.606   9.174  16.826  0.00  0.00    +0.000 HD
ENDBRANCH  12  14
ENDBRANCH  11  12
ENDBRANCH   5   9
ENDBRANCH   1   5
BRANCH   2  16
ATOM     16  C   UNL     1       3.757   3.155  17.449  0.00  0.00    +0.000 C 
BRANCH  16  17
ATOM     17  C   UNL     1       4.868   3.889  16.729  0.00  0.00    +0.000 A 
ATOM     18  C   UNL     1       4.998   3.793  15.334  0.00  0.00    +0.000 A 
ATOM     19  C   UNL     1       6.083   4.373  14.678  0.00  0.00    +0.000 A 
ATOM     20  C   UNL     1       7.047   5.064  15.408  0.00  0.00    +0.000 A 
ATOM     21  C   UNL     1       6.918   5.205  16.790  0.00  0.00    +0.000 A 
ATOM     22  C   UNL     1       5.841   4.605  17.452  0.00  0.00    +0.000 A 
BRANCH  21  23
ATOM     23  O   UNL     1       7.929   5.899  17.393  0.00  0.00    +0.000 OA
BRANCH  23  24
ATOM     24  C   UNL     1       7.526   7.050  18.115  0.00  0.00    +0.000 C 
ATOM     25  F   UNL     1       8.626   7.636  18.649  0.00  0.00    +0.000 F 
ATOM     26  F   UNL     1       7.014   7.930  17.215  0.00  0.00    +0.000 F 
ENDBRANCH  23  24
ENDBRANCH  21  23
ENDBRANCH  16  17
ENDBRANCH   2  16
TORSDOF 8
ENDMDL
