MODEL 1
REMARK VINA RESULT:      -7.7      0.000      0.000
REMARK  Name = 
REMARK  5 active torsions:
REMARK  status: ('A' for Active; 'I' for Inactive)
REMARK    1  A    between atoms: C_1  and  C_2
REMARK    2  A    between atoms: C_2  and  C_3
REMARK    3  A    between atoms: C_9  and  O_10
REMARK    4  A    between atoms: C_14  and  C_15
REMARK    5  A    between atoms: C_18  and  O_19
REMARK                            x       y       z     vdW  Elec       q    Type
REMARK                         _______ _______ _______ _____ _____    ______ ____
ROOT
ATOM      1  C   UNL     1       5.076   4.509  14.570  0.00  0.00    +0.000 C 
ATOM      2  C   UNL     1       6.019   5.120  15.617  0.00  0.00    +0.000 C 
ATOM      3  C   UNL     1       7.440   5.175  15.045  0.00  0.00    +0.000 C 
ATOM      4  C   UNL     1       5.567   6.513  15.994  0.00  0.00    +0.000 C 
ATOM      5  C   UNL     1       4.823   6.745  17.082  0.00  0.00    +0.000 C 
ATOM      6  C   UNL     1       4.425   5.595  17.894  0.00  0.00    +0.000 A 
ATOM      7  C   UNL     1       5.087   4.378  17.686  0.00  0.00    +0.000 A 
ATOM      8  C   UNL     1       4.785   3.257  18.454  0.00  0.00    +0.000 A 
ATOM      9  C   UNL     1       3.761   3.327  19.396  0.00  0.00    +0.000 A 
ATOM     10  C   UNL     1       3.051   4.521  19.586  0.00  0.00    +0.000 A 
ATOM     11  C   UNL     1       3.406   5.668  18.861  0.00  0.00    +0.000 A 
ATOM     12  O   UNL     1       2.831   6.897  19.056  0.00  0.00    +0.000 OA
ATOM     13  C   UNL     1       1.600   6.929  19.791  0.00  0.00    +0.000 C 
ATOM     14  C   UNL     1       1.617   6.021  21.006  0.00  0.00    +0.000 C 
ATOM     15  C   UNL     1       1.936   4.634  20.550  0.00  0.00    +0.000 C 
ATOM     16  O   UNL     1       1.308   3.667  20.970  0.00  0.00    +0.000 OA
ATOM     17  O   UNL     1       6.076   4.220  16.748  0.00  0.00    +0.000 OA
ENDROOT
BRANCH  13  18
ATOM     18  C   UNL     1       1.365   8.358  20.261  0.00  0.00    +0.000 A 
ATOM     19  C   UNL     1       1.201   9.393  19.327  0.00  0.00    +0.000 A 
ATOM     20  C   UNL     1       0.886  10.689  19.749  0.00  0.00    +0.000 A 
ATOM     21  C   UNL     1       0.734  10.951  21.108  0.00  0.00    +0.000 A 
ATOM     22  C   UNL     1       0.902   9.947  22.050  0.00  0.00    +0.000 A 
ATOM     23  C   UNL     1       1.213   8.653  21.628  0.00  0.00    +0.000 A 
BRANCH  21  24
ATOM     24  O   UNL     1       0.404  12.194  21.561  0.00  0.00    +0.000 OA
ATOM     25  H   UNL     1       1.161  12.785  21.421  0.00  0.00    +0.000 HD
ENDBRANCH  21  24
ENDBRANCH  13  18
BRANCH   9  26
ATOM     26  O   UNL     1       3.491   2.224  20.155  0.00  0.00    +0.000 OA
ATOM     27  H   UNL     1       2.925   1.607  19.664  0.00  0.00    +0.000 HD
ENDBRANCH   9  26
TORSDOF 3
ENDMDL
MODEL 2
REMARK VINA RESULT:      -7.6      0.470      1.073
REMARK  Name = 
REMARK  5 active torsions:
REMARK  status: ('A' for Active; 'I' for Inactive)
REMARK    1  A    between atoms: C_1  and  C_2
REMARK    2  A    between atoms: C_2  and  C_3
REMARK    3  A    between atoms: C_9  and  O_10
REMARK    4  A    between atoms: C_14  and  C_15
REMARK    5  A    between atoms: C_18  and  O_19
REMARK                            x       y       z     vdW  Elec       q    Type
REMARK                         _______ _______ _______ _____ _____    ______ ____
ROOT
ATOM      1  C   UNL     1       5.141   4.320  14.627  0.00  0.00    +0.000 C 
ATOM      2  C   UNL     1       6.058   5.088  15.589  0.00  0.00    +0.000 C 
ATOM      3  C   UNL     1       7.476   5.134  15.007  0.00  0.00    +0.000 C 
ATOM      4  C   UNL     1       5.550   6.496  15.804  0.00  0.00    +0.000 C 
ATOM      5  C   UNL     1       4.798   6.823  16.862  0.00  0.00    +0.000 C 
ATOM      6  C   UNL     1       4.449   5.760  17.805  0.00  0.00    +0.000 A 
ATOM      7  C   UNL     1       5.162   4.556  17.737  0.00  0.00    +0.000 A 
ATOM      8  C   UNL     1       4.907   3.521  18.633  0.00  0.00    +0.000 A 
ATOM      9  C   UNL     1       3.883   3.658  19.567  0.00  0.00    +0.000 A 
ATOM     10  C   UNL     1       3.124   4.837  19.620  0.00  0.00    +0.000 A 
ATOM     11  C   UNL     1       3.430   5.904  18.764  0.00  0.00    +0.000 A 
ATOM     12  O   UNL     1       2.804   7.123  18.817  0.00  0.00    +0.000 OA
ATOM     13  C   UNL     1       1.574   7.190  19.550  0.00  0.00    +0.000 C 
ATOM     14  C   UNL     1       1.630   6.432  20.864  0.00  0.00    +0.000 C 
ATOM     15  C   UNL     1       2.006   5.015  20.571  0.00  0.00    +0.000 C 
ATOM     16  O   UNL     1       1.420   4.079  21.105  0.00  0.00    +0.000 OA
ATOM     17  O   UNL     1       6.155   4.329  16.818  0.00  0.00    +0.000 OA
ENDROOT
BRANCH  13  18
ATOM     18  C   UNL     1       1.280   8.653  19.851  0.00  0.00    +0.000 A 
ATOM     19  C   UNL     1       1.030   9.070  21.168  0.00  0.00    +0.000 A 
ATOM     20  C   UNL     1       0.858  10.425  21.465  0.00  0.00    +0.000 A 
ATOM     21  C   UNL     1       0.936  11.368  20.444  0.00  0.00    +0.000 A 
ATOM     22  C   UNL     1       1.170  10.979  19.133  0.00  0.00    +0.000 A 
ATOM     23  C   UNL     1       1.345   9.626  18.837  0.00  0.00    +0.000 A 
BRANCH  21  24
ATOM     24  O   UNL     1       0.797  12.701  20.693  0.00  0.00    +0.000 OA
ATOM     25  H   UNL     1       1.624  13.149  20.456  0.00  0.00    +0.000 HD
ENDBRANCH  21  24
ENDBRANCH  13  18
BRANCH   9  26
ATOM     26  O   UNL     1       3.660   2.642  20.451  0.00  0.00    +0.000 OA
ATOM     27  H   UNL     1       2.797   2.752  20.882  0.00  0.00    +0.000 HD
ENDBRANCH   9  26
TORSDOF 3
ENDMDL
MODEL 3
REMARK VINA RESULT:      -7.5      3.446      8.275
REMARK  Name = 
REMARK  5 active torsions:
REMARK  status: ('A' for Active; 'I' for Inactive)
REMARK    1  A    between atoms: C_1  and  C_2
REMARK    2  A    between atoms: C_2  and  C_3
REMARK    3  A    between atoms: C_9  and  O_10
REMARK    4  A    between atoms: C_14  and  C_15
REMARK    5  A    between atoms: C_18  and  O_19
REMARK                            x       y       z     vdW  Elec       q    Type
REMARK                         _______ _______ _______ _____ _____    ______ ____
ROOT
ATOM      1  C   UNL     1       1.282   4.780  19.544  0.00  0.00    +0.000 C 
ATOM      2  C   UNL     1       2.092   3.476  19.562  0.00  0.00    +0.000 C 
ATOM      3  C   UNL     1       1.469   2.507  20.574  0.00  0.00    +0.000 C 
ATOM      4  C   UNL     1       2.107   2.838  18.190  0.00  0.00    +0.000 C 
ATOM      5  C   UNL     1       3.125   3.014  17.340  0.00  0.00    +0.000 C 
ATOM      6  C   UNL     1       4.227   3.878  17.764  0.00  0.00    +0.000 A 
ATOM      7  C   UNL     1       4.320   4.212  19.121  0.00  0.00    +0.000 A 
ATOM      8  C   UNL     1       5.368   4.995  19.596  0.00  0.00    +0.000 A 
ATOM      9  C   UNL     1       6.299   5.512  18.699  0.00  0.00    +0.000 A 
ATOM     10  C   UNL     1       6.196   5.232  17.328  0.00  0.00    +0.000 A 
ATOM     11  C   UNL     1       5.181   4.384  16.863  0.00  0.00    +0.000 A 
ATOM     12  O   UNL     1       5.068   3.981  15.557  0.00  0.00    +0.000 OA
ATOM     13  C   UNL     1       5.818   4.718  14.583  0.00  0.00    +0.000 C 
ATOM     14  C   UNL     1       7.229   5.037  15.044  0.00  0.00    +0.000 C 
ATOM     15  C   UNL     1       7.142   5.784  16.335  0.00  0.00    +0.000 C 
ATOM     16  O   UNL     1       7.827   6.782  16.539  0.00  0.00    +0.000 OA
ATOM     17  O   UNL     1       3.418   3.777  20.058  0.00  0.00    +0.000 OA
ENDROOT
BRANCH  13  18
ATOM     18  C   UNL     1       5.904   3.878  13.316  0.00  0.00    +0.000 A 
ATOM     19  C   UNL     1       7.152   3.587  12.742  0.00  0.00    +0.000 A 
ATOM     20  C   UNL     1       7.245   2.735  11.637  0.00  0.00    +0.000 A 
ATOM     21  C   UNL     1       6.089   2.173  11.103  0.00  0.00    +0.000 A 
ATOM     22  C   UNL     1       4.844   2.456  11.646  0.00  0.00    +0.000 A 
ATOM     23  C   UNL     1       4.751   3.303  12.751  0.00  0.00    +0.000 A 
BRANCH  21  24
ATOM     24  O   UNL     1       6.136   1.319  10.040  0.00  0.00    +0.000 OA
ATOM     25  H   UNL     1       5.470   1.595   9.391  0.00  0.00    +0.000 HD
ENDBRANCH  21  24
ENDBRANCH  13  18
BRANCH   9  26
ATOM     26  O   UNL     1       7.332   6.262  19.184  0.00  0.00    +0.000 OA
ATOM     27  H   UNL     1       7.661   5.887  20.016  0.00  0.00    +0.000 HD
ENDBRANCH   9  26
TORSDOF 3
ENDMDL
MODEL 4
REMARK VINA RESULT:      -7.2      1.637      6.904
REMARK  Name = 
REMARK  5 active torsions:
REMARK  status: ('A' for Active; 'I' for Inactive)
REMARK    1  A    between atoms: C_1  and  C_2
REMARK    2  A    between atoms: C_2  and  C_3
REMARK    3  A    between atoms: C_9  and  O_10
REMARK    4  A    between atoms: C_14  and  C_15
REMARK    5  A    between atoms: C_18  and  O_19
REMARK                            x       y       z     vdW  Elec       q    Type
REMARK                         _______ _______ _______ _____ _____    ______ ____
ROOT
ATOM      1  C   UNL     1       1.997   9.090  21.668  0.00  0.00    +0.000 C 
ATOM      2  C   UNL     1       1.104   8.571  20.532  0.00  0.00    +0.000 C 
ATOM      3  C   UNL     1      -0.192   9.389  20.495  0.00  0.00    +0.000 C 
ATOM      4  C   UNL     1       1.814   8.682  19.202  0.00  0.00    +0.000 C 
ATOM      5  C   UNL     1       2.461   7.645  18.657  0.00  0.00    +0.000 C 
ATOM      6  C   UNL     1       2.491   6.389  19.407  0.00  0.00    +0.000 A 
ATOM      7  C   UNL     1       1.598   6.236  20.475  0.00  0.00    +0.000 A 
ATOM      8  C   UNL     1       1.547   5.049  21.201  0.00  0.00    +0.000 A 
ATOM      9  C   UNL     1       2.444   4.026  20.908  0.00  0.00    +0.000 A 
ATOM     10  C   UNL     1       3.381   4.178  19.875  0.00  0.00    +0.000 A 
ATOM     11  C   UNL     1       3.382   5.345  19.099  0.00  0.00    +0.000 A 
ATOM     12  O   UNL     1       4.196   5.532  18.011  0.00  0.00    +0.000 OA
ATOM     13  C   UNL     1       5.308   4.639  17.871  0.00  0.00    +0.000 C 
ATOM     14  C   UNL     1       4.946   3.196  18.169  0.00  0.00    +0.000 C 
ATOM     15  C   UNL     1       4.374   3.132  19.548  0.00  0.00    +0.000 C 
ATOM     16  O   UNL     1       4.712   2.254  20.337  0.00  0.00    +0.000 OA
ATOM     17  O   UNL     1       0.714   7.215  20.852  0.00  0.00    +0.000 OA
ENDROOT
BRANCH  13  18
ATOM     18  C   UNL     1       5.807   4.723  16.435  0.00  0.00    +0.000 A 
ATOM     19  C   UNL     1       7.062   5.286  16.153  0.00  0.00    +0.000 A 
ATOM     20  C   UNL     1       7.569   5.277  14.849  0.00  0.00    +0.000 A 
ATOM     21  C   UNL     1       6.821   4.703  13.825  0.00  0.00    +0.000 A 
ATOM     22  C   UNL     1       5.573   4.152  14.078  0.00  0.00    +0.000 A 
ATOM     23  C   UNL     1       5.069   4.158  15.380  0.00  0.00    +0.000 A 
BRANCH  21  24
ATOM     24  O   UNL     1       7.287   4.652  12.545  0.00  0.00    +0.000 OA
ATOM     25  H   UNL     1       6.746   4.021  12.043  0.00  0.00    +0.000 HD
ENDBRANCH  21  24
ENDBRANCH  13  18
BRANCH   9  26
ATOM     26  O   UNL     1       2.367   2.861  21.617  0.00  0.00    +0.000 OA
ATOM     27  H   UNL     1       1.570   2.855  22.171  0.00  0.00    +0.000 HD
ENDBRANCH   9  26
TORSDOF 3
ENDMDL
MODEL 5
REMARK VINA RESULT:      -6.7      2.704      8.137
REMARK  Name = 
REMARK  5 active torsions:
REMARK  status: ('A' for Active; 'I' for Inactive)
REMARK    1  A    between atoms: C_1  and  C_2
REMARK    2  A    between atoms: C_2  and  C_3
REMARK    3  A    between atoms: C_9  and  O_10
REMARK    4  A    between atoms: C_14  and  C_15
REMARK    5  A    between atoms: C_18  and  O_19
REMARK                            x       y       z     vdW  Elec       q    Type
REMARK                         _______ _______ _______ _____ _____    ______ ____
ROOT
ATOM      1  C   UNL     1       2.945  15.369  20.377  0.00  0.00    +0.000 C 
ATOM      2  C   UNL     1       1.959  14.939  19.282  0.00  0.00    +0.000 C 
ATOM      3  C   UNL     1       1.795  16.083  18.273  0.00  0.00    +0.000 C 
ATOM      4  C   UNL     1       2.457  13.701  18.570  0.00  0.00    +0.000 C 
ATOM      5  C   UNL     1       2.034  12.476  18.903  0.00  0.00    +0.000 C 
ATOM      6  C   UNL     1       1.085  12.360  20.010  0.00  0.00    +0.000 A 
ATOM      7  C   UNL     1       0.434  13.520  20.447  0.00  0.00    +0.000 A 
ATOM      8  C   UNL     1      -0.512  13.470  21.468  0.00  0.00    +0.000 A 
ATOM      9  C   UNL     1      -0.764  12.261  22.111  0.00  0.00    +0.000 A 
ATOM     10  C   UNL     1      -0.086  11.095  21.722  0.00  0.00    +0.000 A 
ATOM     11  C   UNL     1       0.812  11.135  20.647  0.00  0.00    +0.000 A 
ATOM     12  O   UNL     1       1.440  10.026  20.141  0.00  0.00    +0.000 OA
ATOM     13  C   UNL     1       1.427   8.845  20.954  0.00  0.00    +0.000 C 
ATOM     14  C   UNL     1       0.078   8.589  21.599  0.00  0.00    +0.000 C 
ATOM     15  C   UNL     1      -0.297   9.796  22.396  0.00  0.00    +0.000 C 
ATOM     16  O   UNL     1      -0.757   9.691  23.529  0.00  0.00    +0.000 OA
ATOM     17  O   UNL     1       0.661  14.754  19.893  0.00  0.00    +0.000 OA
ENDROOT
BRANCH  13  18
ATOM     18  C   UNL     1       1.771   7.656  20.068  0.00  0.00    +0.000 A 
ATOM     19  C   UNL     1       2.265   7.858  18.770  0.00  0.00    +0.000 A 
ATOM     20  C   UNL     1       2.677   6.773  17.989  0.00  0.00    +0.000 A 
ATOM     21  C   UNL     1       2.595   5.483  18.505  0.00  0.00    +0.000 A 
ATOM     22  C   UNL     1       2.098   5.258  19.781  0.00  0.00    +0.000 A 
ATOM     23  C   UNL     1       1.691   6.341  20.562  0.00  0.00    +0.000 A 
BRANCH  21  24
ATOM     24  O   UNL     1       3.006   4.400  17.786  0.00  0.00    +0.000 OA
ATOM     25  H   UNL     1       3.962   4.291  17.910  0.00  0.00    +0.000 HD
ENDBRANCH  21  24
ENDBRANCH  13  18
BRANCH   9  26
ATOM     26  O   UNL     1      -1.708  12.225  23.096  0.00  0.00    +0.000 OA
ATOM     27  H   UNL     1      -2.317  12.975  23.008  0.00  0.00    +0.000 HD
ENDBRANCH   9  26
TORSDOF 3
ENDMDL
MODEL 6
REMARK VINA RESULT:      -6.5      3.453      8.772
REMARK  Name = 
REMARK  5 active torsions:
REMARK  status: ('A' for Active; 'I' for Inactive)
REMARK    1  A    between atoms: C_1  and  C_2
REMARK    2  A    between atoms: C_2  and  C_3
REMARK    3  A    between atoms: C_9  and  O_10
REMARK    4  A    between atoms: C_14  and  C_15
REMARK    5  A    between atoms: C_18  and  O_19
REMARK                            x       y       z     vdW  Elec       q    Type
REMARK                         _______ _______ _______ _____ _____    ______ ____
ROOT
ATOM      1  C   UNL     1       3.177  16.597  19.582  0.00  0.00    +0.000 C 
ATOM      2  C   UNL     1       2.509  16.086  18.298  0.00  0.00    +0.000 C 
ATOM      3  C   UNL     1       2.742  17.098  17.169  0.00  0.00    +0.000 C 
ATOM      4  C   UNL     1       3.075  14.741  17.900  0.00  0.00    +0.000 C 
ATOM      5  C   UNL     1       2.466  13.594  18.222  0.00  0.00    +0.000 C 
ATOM      6  C   UNL     1       1.235  13.673  19.009  0.00  0.00    +0.000 A 
ATOM      7  C   UNL     1       0.594  14.914  19.110  0.00  0.00    +0.000 A 
ATOM      8  C   UNL     1      -0.603  15.047  19.807  0.00  0.00    +0.000 A 
ATOM      9  C   UNL     1      -1.136  13.946  20.473  0.00  0.00    +0.000 A 
ATOM     10  C   UNL     1      -0.484  12.705  20.427  0.00  0.00    +0.000 A 
ATOM     11  C   UNL     1       0.683  12.557  19.665  0.00  0.00    +0.000 A 
ATOM     12  O   UNL     1       1.326  11.359  19.486  0.00  0.00    +0.000 OA
ATOM     13  C   UNL     1       0.977  10.295  20.380  0.00  0.00    +0.000 C 
ATOM     14  C   UNL     1      -0.518  10.199  20.625  0.00  0.00    +0.000 C 
ATOM     15  C   UNL     1      -0.993  11.517  21.144  0.00  0.00    +0.000 C 
ATOM     16  O   UNL     1      -1.764  11.584  22.097  0.00  0.00    +0.000 OA
ATOM     17  O   UNL     1       1.079  16.052  18.518  0.00  0.00    +0.000 OA
ENDROOT
BRANCH  13  18
ATOM     18  C   UNL     1       1.450   8.984  19.767  0.00  0.00    +0.000 A 
ATOM     19  C   UNL     1       1.833   8.931  18.417  0.00  0.00    +0.000 A 
ATOM     20  C   UNL     1       2.362   7.756  17.874  0.00  0.00    +0.000 A 
ATOM     21  C   UNL     1       2.509   6.631  18.680  0.00  0.00    +0.000 A 
ATOM     22  C   UNL     1       2.125   6.656  20.013  0.00  0.00    +0.000 A 
ATOM     23  C   UNL     1       1.601   7.830  20.557  0.00  0.00    +0.000 A 
BRANCH  21  24
ATOM     24  O   UNL     1       3.041   5.472  18.197  0.00  0.00    +0.000 OA
ATOM     25  H   UNL     1       2.709   5.331  17.296  0.00  0.00    +0.000 HD
ENDBRANCH  21  24
ENDBRANCH  13  18
BRANCH   9  26
ATOM     26  O   UNL     1      -2.321  14.089  21.137  0.00  0.00    +0.000 OA
ATOM     27  H   UNL     1      -3.018  14.374  20.525  0.00  0.00    +0.000 HD
ENDBRANCH   9  26
TORSDOF 3
ENDMDL
MODEL 7
REMARK VINA RESULT:      -6.5      8.464     10.504
REMARK  Name = 
REMARK  5 active torsions:
REMARK  status: ('A' for Active; 'I' for Inactive)
REMARK    1  A    between atoms: C_1  and  C_2
REMARK    2  A    between atoms: C_2  and  C_3
REMARK    3  A    between atoms: C_9  and  O_10
REMARK    4  A    between atoms: C_14  and  C_15
REMARK    5  A    between atoms: C_18  and  O_19
REMARK                            x       y       z     vdW  Elec       q    Type
REMARK                         _______ _______ _______ _____ _____    ______ ____
ROOT
ATOM      1  C   UNL     1      11.888  11.882  20.108  0.00  0.00    +0.000 C 
ATOM      2  C   UNL     1      10.424  12.069  19.685  0.00  0.00    +0.000 C 
ATOM      3  C   UNL     1      10.299  11.822  18.177  0.00  0.00    +0.000 C 
ATOM      4  C   UNL     1       9.526  11.110  20.434  0.00  0.00    +0.000 C 
ATOM      5  C   UNL     1       8.859  11.478  21.534  0.00  0.00    +0.000 C 
ATOM      6  C   UNL     1       9.048  12.845  22.020  0.00  0.00    +0.000 A 
ATOM      7  C   UNL     1       9.645  13.776  21.160  0.00  0.00    +0.000 A 
ATOM      8  C   UNL     1       9.815  15.103  21.546  0.00  0.00    +0.000 A 
ATOM      9  C   UNL     1       9.450  15.495  22.832  0.00  0.00    +0.000 A 
ATOM     10  C   UNL     1       8.897  14.567  23.727  0.00  0.00    +0.000 A 
ATOM     11  C   UNL     1       8.661  13.250  23.311  0.00  0.00    +0.000 A 
ATOM     12  O   UNL     1       8.035  12.309  24.087  0.00  0.00    +0.000 OA
ATOM     13  C   UNL     1       7.920  12.595  25.487  0.00  0.00    +0.000 C 
ATOM     14  C   UNL     1       7.522  14.033  25.764  0.00  0.00    +0.000 C 
ATOM     15  C   UNL     1       8.524  14.929  25.111  0.00  0.00    +0.000 C 
ATOM     16  O   UNL     1       8.985  15.902  25.701  0.00  0.00    +0.000 OA
ATOM     17  O   UNL     1      10.070  13.456  19.896  0.00  0.00    +0.000 OA
ENDROOT
BRANCH  13  18
ATOM     18  C   UNL     1       6.854  11.679  26.073  0.00  0.00    +0.000 A 
ATOM     19  C   UNL     1       6.819  11.423  27.453  0.00  0.00    +0.000 A 
ATOM     20  C   UNL     1       5.785  10.664  28.010  0.00  0.00    +0.000 A 
ATOM     21  C   UNL     1       4.782  10.160  27.187  0.00  0.00    +0.000 A 
ATOM     22  C   UNL     1       4.801  10.390  25.819  0.00  0.00    +0.000 A 
ATOM     23  C   UNL     1       5.831  11.151  25.263  0.00  0.00    +0.000 A 
BRANCH  21  24
ATOM     24  O   UNL     1       3.743   9.435  27.692  0.00  0.00    +0.000 OA
ATOM     25  H   UNL     1       2.963  10.009  27.747  0.00  0.00    +0.000 HD
ENDBRANCH  21  24
ENDBRANCH  13  18
BRANCH   9  26
ATOM     26  O   UNL     1       9.605  16.804  23.188  0.00  0.00    +0.000 OA
ATOM     27  H   UNL     1      10.187  16.877  23.962  0.00  0.00    +0.000 HD
ENDBRANCH   9  26
TORSDOF 3
ENDMDL
MODEL 8
REMARK VINA RESULT:      -6.5      1.723      2.456
REMARK  Name = 
REMARK  5 active torsions:
REMARK  status: ('A' for Active; 'I' for Inactive)
REMARK    1  A    between atoms: C_1  and  C_2
REMARK    2  A    between atoms: C_2  and  C_3
REMARK    3  A    between atoms: C_9  and  O_10
REMARK    4  A    between atoms: C_14  and  C_15
REMARK    5  A    between atoms: C_18  and  O_19
REMARK                            x       y       z     vdW  Elec       q    Type
REMARK                         _______ _______ _______ _____ _____    ______ ____
ROOT
ATOM      1  C   UNL     1       4.665   4.109  15.326  0.00  0.00    +0.000 C 
ATOM      2  C   UNL     1       5.669   5.000  16.072  0.00  0.00    +0.000 C 
ATOM      3  C   UNL     1       7.091   4.644  15.622  0.00  0.00    +0.000 C 
ATOM      4  C   UNL     1       5.397   6.461  15.792  0.00  0.00    +0.000 C 
ATOM      5  C   UNL     1       4.679   7.220  16.629  0.00  0.00    +0.000 C 
ATOM      6  C   UNL     1       4.129   6.583  17.825  0.00  0.00    +0.000 A 
ATOM      7  C   UNL     1       4.631   5.329  18.197  0.00  0.00    +0.000 A 
ATOM      8  C   UNL     1       4.180   4.689  19.348  0.00  0.00    +0.000 A 
ATOM      9  C   UNL     1       3.166   5.271  20.104  0.00  0.00    +0.000 A 
ATOM     10  C   UNL     1       2.614   6.503  19.722  0.00  0.00    +0.000 A 
ATOM     11  C   UNL     1       3.119   7.178  18.603  0.00  0.00    +0.000 A 
ATOM     12  O   UNL     1       2.706   8.428  18.220  0.00  0.00    +0.000 OA
ATOM     13  C   UNL     1       1.483   8.911  18.792  0.00  0.00    +0.000 C 
ATOM     14  C   UNL     1       1.372   8.617  20.277  0.00  0.00    +0.000 C 
ATOM     15  C   UNL     1       1.514   7.143  20.475  0.00  0.00    +0.000 C 
ATOM     16  O   UNL     1       0.763   6.527  21.225  0.00  0.00    +0.000 OA
ATOM     17  O   UNL     1       5.599   4.673  17.480  0.00  0.00    +0.000 OA
ENDROOT
BRANCH  13  18
ATOM     18  C   UNL     1       1.429  10.420  18.594  0.00  0.00    +0.000 A 
ATOM     19  C   UNL     1       0.350  11.163  19.097  0.00  0.00    +0.000 A 
ATOM     20  C   UNL     1       0.343  12.558  19.007  0.00  0.00    +0.000 A 
ATOM     21  C   UNL     1       1.417  13.214  18.412  0.00  0.00    +0.000 A 
ATOM     22  C   UNL     1       2.490  12.500  17.898  0.00  0.00    +0.000 A 
ATOM     23  C   UNL     1       2.498  11.108  17.992  0.00  0.00    +0.000 A 
BRANCH  21  24
ATOM     24  O   UNL     1       1.462  14.574  18.324  0.00  0.00    +0.000 OA
ATOM     25  H   UNL     1       2.080  14.818  17.618  0.00  0.00    +0.000 HD
ENDBRANCH  21  24
ENDBRANCH  13  18
BRANCH   9  26
ATOM     26  O   UNL     1       2.749   4.639  21.240  0.00  0.00    +0.000 OA
ATOM     27  H   UNL     1       2.380   5.282  21.868  0.00  0.00    +0.000 HD
ENDBRANCH   9  26
TORSDOF 3
ENDMDL
MODEL 9
REMARK VINA RESULT:      -6.5      5.718      9.127
REMARK  Name = 
REMARK  5 active torsions:
REMARK  status: ('A' for Active; 'I' for Inactive)
REMARK    1  A    between atoms: C_1  and  C_2
REMARK    2  A    between atoms: C_2  and  C_3
REMARK    3  A    between atoms: C_9  and  O_10
REMARK    4  A    between atoms: C_14  and  C_15
REMARK    5  A    between atoms: C_18  and  O_19
REMARK                            x       y       z     vdW  Elec       q    Type
REMARK                         _______ _______ _______ _____ _____    ______ ____
ROOT
ATOM      1  C   UNL     1       1.520  11.365  18.261  0.00  0.00    +0.000 C 
ATOM      2  C   UNL     1       0.807  10.117  18.803  0.00  0.00    +0.000 C 
ATOM      3  C   UNL     1       1.832   8.993  18.994  0.00  0.00    +0.000 C 
ATOM      4  C   UNL     1       0.131  10.419  20.122  0.00  0.00    +0.000 C 
ATOM      5  C   UNL     1      -1.169  10.730  20.195  0.00  0.00    +0.000 C 
ATOM      6  C   UNL     1      -1.925  10.801  18.945  0.00  0.00    +0.000 A 
ATOM      7  C   UNL     1      -1.352  10.244  17.794  0.00  0.00    +0.000 A 
ATOM      8  C   UNL     1      -2.038  10.241  16.582  0.00  0.00    +0.000 A 
ATOM      9  C   UNL     1      -3.281  10.863  16.496  0.00  0.00    +0.000 A 
ATOM     10  C   UNL     1      -3.850  11.472  17.625  0.00  0.00    +0.000 A 
ATOM     11  C   UNL     1      -3.190  11.410  18.859  0.00  0.00    +0.000 A 
ATOM     12  O   UNL     1      -3.721  11.891  20.029  0.00  0.00    +0.000 OA
ATOM     13  C   UNL     1      -4.840  12.779  19.917  0.00  0.00    +0.000 C 
ATOM     14  C   UNL     1      -5.854  12.322  18.884  0.00  0.00    +0.000 C 
ATOM     15  C   UNL     1      -5.152  12.172  17.574  0.00  0.00    +0.000 C 
ATOM     16  O   UNL     1      -5.647  12.599  16.535  0.00  0.00    +0.000 OA
ATOM     17  O   UNL     1      -0.115   9.652  17.790  0.00  0.00    +0.000 OA
ENDROOT
BRANCH  13  18
ATOM     18  C   UNL     1      -5.530  12.847  21.272  0.00  0.00    +0.000 A 
ATOM     19  C   UNL     1      -4.790  13.130  22.431  0.00  0.00    +0.000 A 
ATOM     20  C   UNL     1      -5.432  13.292  23.663  0.00  0.00    +0.000 A 
ATOM     21  C   UNL     1      -6.817  13.171  23.738  0.00  0.00    +0.000 A 
ATOM     22  C   UNL     1      -7.567  12.879  22.609  0.00  0.00    +0.000 A 
ATOM     23  C   UNL     1      -6.927  12.721  21.378  0.00  0.00    +0.000 A 
BRANCH  21  24
ATOM     24  O   UNL     1      -7.485  13.343  24.914  0.00  0.00    +0.000 OA
ATOM     25  H   UNL     1      -7.273  12.601  25.502  0.00  0.00    +0.000 HD
ENDBRANCH  21  24
ENDBRANCH  13  18
BRANCH   9  26
ATOM     26  O   UNL     1      -3.949  10.835  15.305  0.00  0.00    +0.000 OA
ATOM     27  H   UNL     1      -4.886  10.625  15.448  0.00  0.00    +0.000 HD
ENDBRANCH   9  26
TORSDOF 3
ENDMDL
