MODEL 1
REMARK VINA RESULT:      -7.8      0.000      0.000
REMARK  Name = 
REMARK  2 active torsions:
REMARK  status: ('A' for Active; 'I' for Inactive)
REMARK    1  A    between atoms: C_1  and  C_2
REMARK    2  A    between atoms: C_9  and  C_10
REMARK                            x       y       z     vdW  Elec       q    Type
REMARK                         _______ _______ _______ _____ _____    ______ ____
ROOT
ATOM      1  C   UNL     1       5.686   2.615  11.225  0.00  0.00    +0.000 C 
ATOM      2  C   UNL     1       6.102   3.457  12.395  0.00  0.00    +0.000 A 
ATOM      3  C   UNL     1       7.274   4.211  12.357  0.00  0.00    +0.000 A 
ATOM      4  C   UNL     1       7.651   4.985  13.460  0.00  0.00    +0.000 A 
ATOM      5  C   UNL     1       6.887   5.028  14.618  0.00  0.00    +0.000 A 
ATOM      6  N   UNL     1       7.303   5.777  15.651  0.00  0.00    +0.000 NA
ATOM      7  C   UNL     1       6.553   5.768  16.775  0.00  0.00    +0.000 A 
ATOM      8 CL   UNL     1       7.213   6.753  18.026  0.00  0.00    +0.000 Cl
ATOM      9  C   UNL     1       5.371   5.050  16.937  0.00  0.00    +0.000 A 
ATOM     10  C   UNL     1       4.938   4.297  15.843  0.00  0.00    +0.000 A 
ATOM     11  C   UNL     1       5.700   4.267  14.662  0.00  0.00    +0.000 A 
ATOM     12  C   UNL     1       5.314   3.493  13.552  0.00  0.00    +0.000 A 
ENDROOT
BRANCH   9  13
ATOM     13  C   UNL     1       4.602   5.025  18.188  0.00  0.00    +0.000 C 
ATOM     14  C   UNL     1       3.744   5.978  18.570  0.00  0.00    +0.000 C 
ATOM     15  S   UNL     1       3.344   7.441  17.744  0.00  0.00    +0.000 S 
ATOM     16  C   UNL     1       2.216   7.934  18.987  0.00  0.00    +0.000 C 
ATOM     17  S   UNL     1       1.328   9.329  19.014  0.00  0.00    +0.000 S 
ATOM     18  N   UNL     1       2.171   6.990  19.968  0.00  0.00    +0.000 N 
ATOM     19  C   UNL     1       2.969   5.889  19.838  0.00  0.00    +0.000 C 
ATOM     20  O   UNL     1       3.040   4.979  20.648  0.00  0.00    +0.000 OA
ATOM     21  H   UNL     1       1.578   7.094  20.778  0.00  0.00    +0.000 HD
ENDBRANCH   9  13
TORSDOF 1
ENDMDL
MODEL 2
REMARK VINA RESULT:      -7.3      1.861      2.244
REMARK  Name = 
REMARK  2 active torsions:
REMARK  status: ('A' for Active; 'I' for Inactive)
REMARK    1  A    between atoms: C_1  and  C_2
REMARK    2  A    between atoms: C_9  and  C_10
REMARK                            x       y       z     vdW  Elec       q    Type
REMARK                         _______ _______ _______ _____ _____    ______ ____
ROOT
ATOM      1  C   UNL     1       5.466   2.520  11.503  0.00  0.00    +0.000 C 
ATOM      2  C   UNL     1       5.960   3.426  12.592  0.00  0.00    +0.000 A 
ATOM      3  C   UNL     1       7.303   3.791  12.669  0.00  0.00    +0.000 A 
ATOM      4  C   UNL     1       7.748   4.632  13.695  0.00  0.00    +0.000 A 
ATOM      5  C   UNL     1       6.884   5.123  14.664  0.00  0.00    +0.000 A 
ATOM      6  N   UNL     1       7.367   5.914  15.634  0.00  0.00    +0.000 NA
ATOM      7  C   UNL     1       6.505   6.347  16.580  0.00  0.00    +0.000 A 
ATOM      8 CL   UNL     1       7.261   7.334  17.773  0.00  0.00    +0.000 Cl
ATOM      9  C   UNL     1       5.146   6.044  16.615  0.00  0.00    +0.000 A 
ATOM     10  C   UNL     1       4.654   5.241  15.583  0.00  0.00    +0.000 A 
ATOM     11  C   UNL     1       5.523   4.757  14.591  0.00  0.00    +0.000 A 
ATOM     12  C   UNL     1       5.071   3.918  13.555  0.00  0.00    +0.000 A 
ENDROOT
BRANCH   9  13
ATOM     13  C   UNL     1       4.242   6.492  17.683  0.00  0.00    +0.000 C 
ATOM     14  C   UNL     1       3.752   5.700  18.643  0.00  0.00    +0.000 C 
ATOM     15  S   UNL     1       4.016   4.008  18.862  0.00  0.00    +0.000 S 
ATOM     16  C   UNL     1       3.010   3.950  20.292  0.00  0.00    +0.000 C 
ATOM     17  S   UNL     1       2.670   2.612  21.204  0.00  0.00    +0.000 S 
ATOM     18  N   UNL     1       2.519   5.192  20.560  0.00  0.00    +0.000 N 
ATOM     19  C   UNL     1       2.860   6.213  19.718  0.00  0.00    +0.000 C 
ATOM     20  O   UNL     1       2.478   7.367  19.830  0.00  0.00    +0.000 OA
ATOM     21  H   UNL     1       1.911   5.364  21.347  0.00  0.00    +0.000 HD
ENDBRANCH   9  13
TORSDOF 1
ENDMDL
MODEL 3
REMARK VINA RESULT:      -7.3      1.145      1.216
REMARK  Name = 
REMARK  2 active torsions:
REMARK  status: ('A' for Active; 'I' for Inactive)
REMARK    1  A    between atoms: C_1  and  C_2
REMARK    2  A    between atoms: C_9  and  C_10
REMARK                            x       y       z     vdW  Elec       q    Type
REMARK                         _______ _______ _______ _____ _____    ______ ____
ROOT
ATOM      1  C   UNL     1       5.297   3.306  11.761  0.00  0.00    +0.000 C 
ATOM      2  C   UNL     1       5.761   3.805  13.097  0.00  0.00    +0.000 A 
ATOM      3  C   UNL     1       7.034   4.352  13.257  0.00  0.00    +0.000 A 
ATOM      4  C   UNL     1       7.454   4.807  14.512  0.00  0.00    +0.000 A 
ATOM      5  C   UNL     1       6.635   4.727  15.629  0.00  0.00    +0.000 A 
ATOM      6  N   UNL     1       7.095   5.166  16.812  0.00  0.00    +0.000 NA
ATOM      7  C   UNL     1       6.283   5.042  17.886  0.00  0.00    +0.000 A 
ATOM      8 CL   UNL     1       7.005   5.623  19.339  0.00  0.00    +0.000 Cl
ATOM      9  C   UNL     1       4.998   4.506  17.854  0.00  0.00    +0.000 A 
ATOM     10  C   UNL     1       4.526   4.079  16.611  0.00  0.00    +0.000 A 
ATOM     11  C   UNL     1       5.346   4.175  15.474  0.00  0.00    +0.000 A 
ATOM     12  C   UNL     1       4.918   3.723  14.212  0.00  0.00    +0.000 A 
ENDROOT
BRANCH   9  13
ATOM     13  C   UNL     1       4.158   4.343  19.048  0.00  0.00    +0.000 C 
ATOM     14  C   UNL     1       3.345   5.285  19.537  0.00  0.00    +0.000 C 
ATOM     15  S   UNL     1       3.092   6.886  18.940  0.00  0.00    +0.000 S 
ATOM     16  C   UNL     1       1.930   7.261  20.192  0.00  0.00    +0.000 C 
ATOM     17  S   UNL     1       1.136   8.697  20.400  0.00  0.00    +0.000 S 
ATOM     18  N   UNL     1       1.765   6.181  21.005  0.00  0.00    +0.000 N 
ATOM     19  C   UNL     1       2.494   5.057  20.737  0.00  0.00    +0.000 C 
ATOM     20  O   UNL     1       2.458   4.029  21.393  0.00  0.00    +0.000 OA
ATOM     21  H   UNL     1       1.135   6.201  21.793  0.00  0.00    +0.000 HD
ENDBRANCH   9  13
TORSDOF 1
ENDMDL
MODEL 4
REMARK VINA RESULT:      -7.2      4.890      7.184
REMARK  Name = 
REMARK  2 active torsions:
REMARK  status: ('A' for Active; 'I' for Inactive)
REMARK    1  A    between atoms: C_1  and  C_2
REMARK    2  A    between atoms: C_9  and  C_10
REMARK                            x       y       z     vdW  Elec       q    Type
REMARK                         _______ _______ _______ _____ _____    ______ ____
ROOT
ATOM      1  C   UNL     1       3.864   4.087  17.401  0.00  0.00    +0.000 C 
ATOM      2  C   UNL     1       3.196   5.002  18.386  0.00  0.00    +0.000 A 
ATOM      3  C   UNL     1       2.842   4.553  19.658  0.00  0.00    +0.000 A 
ATOM      4  C   UNL     1       2.213   5.417  20.561  0.00  0.00    +0.000 A 
ATOM      5  C   UNL     1       1.917   6.731  20.229  0.00  0.00    +0.000 A 
ATOM      6  N   UNL     1       1.300   7.512  21.130  0.00  0.00    +0.000 NA
ATOM      7  C   UNL     1       0.996   8.776  20.762  0.00  0.00    +0.000 A 
ATOM      8 CL   UNL     1       0.189   9.658  22.003  0.00  0.00    +0.000 Cl
ATOM      9  C   UNL     1       1.289   9.335  19.520  0.00  0.00    +0.000 A 
ATOM     10  C   UNL     1       1.955   8.517  18.604  0.00  0.00    +0.000 A 
ATOM     11  C   UNL     1       2.272   7.191  18.943  0.00  0.00    +0.000 A 
ATOM     12  C   UNL     1       2.912   6.327  18.035  0.00  0.00    +0.000 A 
ENDROOT
BRANCH   9  13
ATOM     13  C   UNL     1       0.904  10.699  19.133  0.00  0.00    +0.000 C 
ATOM     14  C   UNL     1      -0.209  11.010  18.460  0.00  0.00    +0.000 C 
ATOM     15  S   UNL     1      -1.428   9.939  17.868  0.00  0.00    +0.000 S 
ATOM     16  C   UNL     1      -2.371  11.249  17.194  0.00  0.00    +0.000 C 
ATOM     17  S   UNL     1      -3.798  11.112  16.368  0.00  0.00    +0.000 S 
ATOM     18  N   UNL     1      -1.750  12.436  17.438  0.00  0.00    +0.000 N 
ATOM     19  C   UNL     1      -0.565  12.414  18.117  0.00  0.00    +0.000 C 
ATOM     20  O   UNL     1       0.104  13.399  18.387  0.00  0.00    +0.000 OA
ATOM     21  H   UNL     1      -2.139  13.313  17.124  0.00  0.00    +0.000 HD
ENDBRANCH   9  13
TORSDOF 1
ENDMDL
MODEL 5
REMARK VINA RESULT:      -7.2      4.257      6.757
REMARK  Name = 
REMARK  2 active torsions:
REMARK  status: ('A' for Active; 'I' for Inactive)
REMARK    1  A    between atoms: C_1  and  C_2
REMARK    2  A    between atoms: C_9  and  C_10
REMARK                            x       y       z     vdW  Elec       q    Type
REMARK                         _______ _______ _______ _____ _____    ______ ____
ROOT
ATOM      1  C   UNL     1       5.075   5.552  16.082  0.00  0.00    +0.000 C 
ATOM      2  C   UNL     1       4.199   6.018  17.207  0.00  0.00    +0.000 A 
ATOM      3  C   UNL     1       3.916   5.185  18.290  0.00  0.00    +0.000 A 
ATOM      4  C   UNL     1       3.092   5.633  19.328  0.00  0.00    +0.000 A 
ATOM      5  C   UNL     1       2.528   6.901  19.318  0.00  0.00    +0.000 A 
ATOM      6  N   UNL     1       1.733   7.274  20.333  0.00  0.00    +0.000 NA
ATOM      7  C   UNL     1       1.174   8.502  20.274  0.00  0.00    +0.000 A 
ATOM      8 CL   UNL     1       0.162   8.842  21.628  0.00  0.00    +0.000 Cl
ATOM      9  C   UNL     1       1.372   9.418  19.244  0.00  0.00    +0.000 A 
ATOM     10  C   UNL     1       2.223   9.024  18.209  0.00  0.00    +0.000 A 
ATOM     11  C   UNL     1       2.810   7.748  18.225  0.00  0.00    +0.000 A 
ATOM     12  C   UNL     1       3.645   7.303  17.183  0.00  0.00    +0.000 A 
ENDROOT
BRANCH   9  13
ATOM     13  C   UNL     1       0.713  10.729  19.186  0.00  0.00    +0.000 C 
ATOM     14  C   UNL     1      -0.412  10.983  18.507  0.00  0.00    +0.000 C 
ATOM     15  S   UNL     1      -1.338   9.893  17.539  0.00  0.00    +0.000 S 
ATOM     16  C   UNL     1      -2.516  11.120  17.134  0.00  0.00    +0.000 C 
ATOM     17  S   UNL     1      -3.841  10.931  16.162  0.00  0.00    +0.000 S 
ATOM     18  N   UNL     1      -2.185  12.295  17.739  0.00  0.00    +0.000 N 
ATOM     19  C   UNL     1      -1.053  12.326  18.504  0.00  0.00    +0.000 C 
ATOM     20  O   UNL     1      -0.631  13.313  19.086  0.00  0.00    +0.000 OA
ATOM     21  H   UNL     1      -2.743  13.127  17.624  0.00  0.00    +0.000 HD
ENDBRANCH   9  13
TORSDOF 1
ENDMDL
MODEL 6
REMARK VINA RESULT:      -6.9      3.621      6.666
REMARK  Name = 
REMARK  2 active torsions:
REMARK  status: ('A' for Active; 'I' for Inactive)
REMARK    1  A    between atoms: C_1  and  C_2
REMARK    2  A    between atoms: C_9  and  C_10
REMARK                            x       y       z     vdW  Elec       q    Type
REMARK                         _______ _______ _______ _____ _____    ______ ____
ROOT
ATOM      1  C   UNL     1       0.616   2.892  18.610  0.00  0.00    +0.000 C 
ATOM      2  C   UNL     1       1.935   3.593  18.750  0.00  0.00    +0.000 A 
ATOM      3  C   UNL     1       2.340   4.124  19.975  0.00  0.00    +0.000 A 
ATOM      4  C   UNL     1       3.570   4.781  20.086  0.00  0.00    +0.000 A 
ATOM      5  C   UNL     1       4.419   4.933  18.999  0.00  0.00    +0.000 A 
ATOM      6  N   UNL     1       5.581   5.585  19.159  0.00  0.00    +0.000 NA
ATOM      7  C   UNL     1       6.367   5.744  18.072  0.00  0.00    +0.000 A 
ATOM      8 CL   UNL     1       7.814   6.615  18.415  0.00  0.00    +0.000 Cl
ATOM      9  C   UNL     1       6.068   5.268  16.798  0.00  0.00    +0.000 A 
ATOM     10  C   UNL     1       4.867   4.570  16.654  0.00  0.00    +0.000 A 
ATOM     11  C   UNL     1       4.014   4.399  17.757  0.00  0.00    +0.000 A 
ATOM     12  C   UNL     1       2.781   3.730  17.643  0.00  0.00    +0.000 A 
ENDROOT
BRANCH   9  13
ATOM     13  C   UNL     1       6.922   5.498  15.625  0.00  0.00    +0.000 C 
ATOM     14  C   UNL     1       6.813   4.838  14.467  0.00  0.00    +0.000 C 
ATOM     15  S   UNL     1       5.704   3.577  14.062  0.00  0.00    +0.000 S 
ATOM     16  C   UNL     1       6.343   3.419  12.442  0.00  0.00    +0.000 C 
ATOM     17  S   UNL     1       5.836   2.353  11.283  0.00  0.00    +0.000 S 
ATOM     18  N   UNL     1       7.353   4.314  12.256  0.00  0.00    +0.000 N 
ATOM     19  C   UNL     1       7.690   5.129  13.299  0.00  0.00    +0.000 C 
ATOM     20  O   UNL     1       8.583   5.960  13.276  0.00  0.00    +0.000 OA
ATOM     21  H   UNL     1       7.853   4.376  11.382  0.00  0.00    +0.000 HD
ENDBRANCH   9  13
TORSDOF 1
ENDMDL
MODEL 7
REMARK VINA RESULT:      -6.4      3.179      4.528
REMARK  Name = 
REMARK  2 active torsions:
REMARK  status: ('A' for Active; 'I' for Inactive)
REMARK    1  A    between atoms: C_1  and  C_2
REMARK    2  A    between atoms: C_9  and  C_10
REMARK                            x       y       z     vdW  Elec       q    Type
REMARK                         _______ _______ _______ _____ _____    ______ ____
ROOT
ATOM      1  C   UNL     1       6.816   5.467  15.285  0.00  0.00    +0.000 C 
ATOM      2  C   UNL     1       5.675   5.070  16.175  0.00  0.00    +0.000 A 
ATOM      3  C   UNL     1       5.066   3.822  16.048  0.00  0.00    +0.000 A 
ATOM      4  C   UNL     1       3.999   3.470  16.882  0.00  0.00    +0.000 A 
ATOM      5  C   UNL     1       3.509   4.337  17.848  0.00  0.00    +0.000 A 
ATOM      6  N   UNL     1       2.474   3.953  18.611  0.00  0.00    +0.000 NA
ATOM      7  C   UNL     1       2.002   4.835  19.519  0.00  0.00    +0.000 A 
ATOM      8 CL   UNL     1       0.661   4.222  20.412  0.00  0.00    +0.000 Cl
ATOM      9  C   UNL     1       2.519   6.110  19.732  0.00  0.00    +0.000 A 
ATOM     10  C   UNL     1       3.612   6.484  18.948  0.00  0.00    +0.000 A 
ATOM     11  C   UNL     1       4.122   5.601  17.981  0.00  0.00    +0.000 A 
ATOM     12  C   UNL     1       5.200   5.956  17.149  0.00  0.00    +0.000 A 
ENDROOT
BRANCH   9  13
ATOM     13  C   UNL     1       1.953   7.064  20.696  0.00  0.00    +0.000 C 
ATOM     14  C   UNL     1       1.498   8.282  20.379  0.00  0.00    +0.000 C 
ATOM     15  S   UNL     1       1.477   9.038  18.826  0.00  0.00    +0.000 S 
ATOM     16  C   UNL     1       0.737  10.494  19.451  0.00  0.00    +0.000 C 
ATOM     17  S   UNL     1       0.346  11.850  18.587  0.00  0.00    +0.000 S 
ATOM     18  N   UNL     1       0.525  10.364  20.791  0.00  0.00    +0.000 N 
ATOM     19  C   UNL     1       0.909   9.199  21.392  0.00  0.00    +0.000 C 
ATOM     20  O   UNL     1       0.795   8.958  22.583  0.00  0.00    +0.000 OA
ATOM     21  H   UNL     1       0.108  11.103  21.336  0.00  0.00    +0.000 HD
ENDBRANCH   9  13
TORSDOF 1
ENDMDL
MODEL 8
REMARK VINA RESULT:      -6.4      4.309      6.822
REMARK  Name = 
REMARK  2 active torsions:
REMARK  status: ('A' for Active; 'I' for Inactive)
REMARK    1  A    between atoms: C_1  and  C_2
REMARK    2  A    between atoms: C_9  and  C_10
REMARK                            x       y       z     vdW  Elec       q    Type
REMARK                         _______ _______ _______ _____ _____    ______ ____
ROOT
ATOM      1  C   UNL     1       5.220   5.785  16.160  0.00  0.00    +0.000 C 
ATOM      2  C   UNL     1       4.336   6.235  17.286  0.00  0.00    +0.000 A 
ATOM      3  C   UNL     1       4.324   5.557  18.505  0.00  0.00    +0.000 A 
ATOM      4  C   UNL     1       3.489   5.986  19.542  0.00  0.00    +0.000 A 
ATOM      5  C   UNL     1       2.648   7.080  19.399  0.00  0.00    +0.000 A 
ATOM      6  N   UNL     1       1.858   7.439  20.422  0.00  0.00    +0.000 NA
ATOM      7  C   UNL     1       1.027   8.489  20.236  0.00  0.00    +0.000 A 
ATOM      8 CL   UNL     1       0.055   8.826  21.619  0.00  0.00    +0.000 Cl
ATOM      9  C   UNL     1       0.941   9.237  19.065  0.00  0.00    +0.000 A 
ATOM     10  C   UNL     1       1.790   8.867  18.019  0.00  0.00    +0.000 A 
ATOM     11  C   UNL     1       2.655   7.770  18.168  0.00  0.00    +0.000 A 
ATOM     12  C   UNL     1       3.500   7.346  17.125  0.00  0.00    +0.000 A 
ENDROOT
BRANCH   9  13
ATOM     13  C   UNL     1      -0.005  10.345  18.877  0.00  0.00    +0.000 C 
ATOM     14  C   UNL     1       0.341  11.635  18.813  0.00  0.00    +0.000 C 
ATOM     15  S   UNL     1       1.921  12.320  18.951  0.00  0.00    +0.000 S 
ATOM     16  C   UNL     1       1.325  13.951  18.739  0.00  0.00    +0.000 C 
ATOM     17  S   UNL     1       2.226  15.338  18.751  0.00  0.00    +0.000 S 
ATOM     18  N   UNL     1      -0.026  13.928  18.566  0.00  0.00    +0.000 N 
ATOM     19  C   UNL     1      -0.658  12.717  18.594  0.00  0.00    +0.000 C 
ATOM     20  O   UNL     1      -1.861  12.554  18.471  0.00  0.00    +0.000 OA
ATOM     21  H   UNL     1      -0.558  14.775  18.430  0.00  0.00    +0.000 HD
ENDBRANCH   9  13
TORSDOF 1
ENDMDL
MODEL 9
REMARK VINA RESULT:      -6.4      5.301      7.320
REMARK  Name = 
REMARK  2 active torsions:
REMARK  status: ('A' for Active; 'I' for Inactive)
REMARK    1  A    between atoms: C_1  and  C_2
REMARK    2  A    between atoms: C_9  and  C_10
REMARK                            x       y       z     vdW  Elec       q    Type
REMARK                         _______ _______ _______ _____ _____    ______ ____
ROOT
ATOM      1  C   UNL     1       2.254   3.208  21.445  0.00  0.00    +0.000 C 
ATOM      2  C   UNL     1       2.347   4.463  20.629  0.00  0.00    +0.000 A 
ATOM      3  C   UNL     1       3.204   4.545  19.531  0.00  0.00    +0.000 A 
ATOM      4  C   UNL     1       3.284   5.726  18.785  0.00  0.00    +0.000 A 
ATOM      5  C   UNL     1       2.530   6.845  19.107  0.00  0.00    +0.000 A 
ATOM      6  N   UNL     1       2.657   7.956  18.365  0.00  0.00    +0.000 NA
ATOM      7  C   UNL     1       1.933   9.039  18.727  0.00  0.00    +0.000 A 
ATOM      8 CL   UNL     1       2.208  10.399  17.704  0.00  0.00    +0.000 Cl
ATOM      9  C   UNL     1       1.053   9.083  19.805  0.00  0.00    +0.000 A 
ATOM     10  C   UNL     1       0.914   7.911  20.551  0.00  0.00    +0.000 A 
ATOM     11  C   UNL     1       1.662   6.769  20.217  0.00  0.00    +0.000 A 
ATOM     12  C   UNL     1       1.573   5.580  20.964  0.00  0.00    +0.000 A 
ENDROOT
BRANCH   9  13
ATOM     13  C   UNL     1       0.315  10.290  20.201  0.00  0.00    +0.000 C 
ATOM     14  C   UNL     1      -0.779  10.747  19.581  0.00  0.00    +0.000 C 
ATOM     15  S   UNL     1      -1.570  10.086  18.196  0.00  0.00    +0.000 S 
ATOM     16  C   UNL     1      -2.798  11.331  18.197  0.00  0.00    +0.000 C 
ATOM     17  S   UNL     1      -4.045  11.487  17.121  0.00  0.00    +0.000 S 
ATOM     18  N   UNL     1      -2.581  12.190  19.232  0.00  0.00    +0.000 N 
ATOM     19  C   UNL     1      -1.504  11.963  20.041  0.00  0.00    +0.000 C 
ATOM     20  O   UNL     1      -1.184  12.661  20.990  0.00  0.00    +0.000 OA
ATOM     21  H   UNL     1      -3.184  12.982  19.400  0.00  0.00    +0.000 HD
ENDBRANCH   9  13
TORSDOF 1
ENDMDL
