MODEL 1
REMARK VINA RESULT:      -6.7      0.000      0.000
REMARK  Name = 
REMARK  9 active torsions:
REMARK  status: ('A' for Active; 'I' for Inactive)
REMARK    1  A    between atoms: C_1  and  N_2
REMARK    2  A    between atoms: N_2  and  C_3
REMARK    3  A    between atoms: C_3  and  C_4
REMARK    4  A    between atoms: C_9  and  S_10
REMARK    5  A    between atoms: S_10  and  C_11
REMARK    6  A    between atoms: C_14  and  O_15
REMARK    7  A    between atoms: O_15  and  C_16
REMARK    8  A    between atoms: C_17  and  O_18
REMARK    9  A    between atoms: O_18  and  C_19
REMARK                            x       y       z     vdW  Elec       q    Type
REMARK                         _______ _______ _______ _____ _____    ______ ____
ROOT
ATOM      1  S   UNL     1       2.849   3.607  17.100  0.00  0.00    +0.000 S 
ENDROOT
BRANCH   1   7
ATOM      2  C   UNL     1       2.403   5.016  19.805  0.00  0.00    +0.000 A 
ATOM      3  C   UNL     1       2.163   4.733  21.183  0.00  0.00    +0.000 A 
ATOM      4  C   UNL     1       2.038   3.449  21.699  0.00  0.00    +0.000 A 
ATOM      5  C   UNL     1       2.125   2.364  20.859  0.00  0.00    +0.000 A 
ATOM      6  C   UNL     1       2.362   2.561  19.507  0.00  0.00    +0.000 A 
ATOM      7  C   UNL     1       2.515   3.837  18.916  0.00  0.00    +0.000 A 
BRANCH   2   8
ATOM      8  C   UNL     1       2.475   6.594  19.661  0.00  0.00    +0.000 C 
BRANCH   8  10
ATOM      9  C   UNL     1       1.242   8.599  20.633  0.00  0.00    +0.000 C 
ATOM     10  N   UNL     1       1.985   7.363  20.825  0.00  0.00    +0.000 NA
ATOM     11  H   UNL     1       1.505   6.780  21.504  0.00  0.00    +0.000 HD
ENDBRANCH   8  10
ENDBRANCH   2   8
ENDBRANCH   1   7
BRANCH   1  12
ATOM     12  C   UNL     1       4.506   4.184  16.604  0.00  0.00    +0.000 A 
ATOM     13  C   UNL     1       5.293   3.381  15.765  0.00  0.00    +0.000 A 
ATOM     14  C   UNL     1       6.446   3.898  15.152  0.00  0.00    +0.000 A 
ATOM     15  C   UNL     1       6.833   5.223  15.370  0.00  0.00    +0.000 A 
ATOM     16  C   UNL     1       6.197   5.958  16.375  0.00  0.00    +0.000 A 
ATOM     17  C   UNL     1       5.045   5.423  17.001  0.00  0.00    +0.000 A 
BRANCH  15  18
ATOM     18  O   UNL     1       7.869   5.631  14.551  0.00  0.00    +0.000 OA
ATOM     19  C   UNL     1       7.863   5.196  13.191  0.00  0.00    +0.000 C 
ENDBRANCH  15  18
BRANCH  16  20
ATOM     20  O   UNL     1       6.638   7.234  16.610  0.00  0.00    +0.000 OA
ATOM     21  C   UNL     1       7.594   7.422  17.644  0.00  0.00    +0.000 C 
ENDBRANCH  16  20
ENDBRANCH   1  12
TORSDOF 6
ENDMDL
MODEL 2
REMARK VINA RESULT:      -6.7      1.272      1.915
REMARK  Name = 
REMARK  9 active torsions:
REMARK  status: ('A' for Active; 'I' for Inactive)
REMARK    1  A    between atoms: C_1  and  N_2
REMARK    2  A    between atoms: N_2  and  C_3
REMARK    3  A    between atoms: C_3  and  C_4
REMARK    4  A    between atoms: C_9  and  S_10
REMARK    5  A    between atoms: S_10  and  C_11
REMARK    6  A    between atoms: C_14  and  O_15
REMARK    7  A    between atoms: O_15  and  C_16
REMARK    8  A    between atoms: C_17  and  O_18
REMARK    9  A    between atoms: O_18  and  C_19
REMARK                            x       y       z     vdW  Elec       q    Type
REMARK                         _______ _______ _______ _____ _____    ______ ____
ROOT
ATOM      1  S   UNL     1       3.146   3.433  17.163  0.00  0.00    +0.000 S 
ENDROOT
BRANCH   1   7
ATOM      2  C   UNL     1       2.211   4.890  19.713  0.00  0.00    +0.000 A 
ATOM      3  C   UNL     1       1.679   4.634  21.012  0.00  0.00    +0.000 A 
ATOM      4  C   UNL     1       1.395   3.362  21.494  0.00  0.00    +0.000 A 
ATOM      5  C   UNL     1       1.608   2.265  20.693  0.00  0.00    +0.000 A 
ATOM      6  C   UNL     1       2.128   2.436  19.420  0.00  0.00    +0.000 A 
ATOM      7  C   UNL     1       2.453   3.698  18.870  0.00  0.00    +0.000 A 
BRANCH   2   8
ATOM      8  C   UNL     1       2.379   6.463  19.582  0.00  0.00    +0.000 C 
BRANCH   8  10
ATOM      9  C   UNL     1       1.246   8.417  20.759  0.00  0.00    +0.000 C 
ATOM     10  N   UNL     1       2.096   7.237  20.811  0.00  0.00    +0.000 NA
ATOM     11  H   UNL     1       1.812   6.648  21.587  0.00  0.00    +0.000 HD
ENDBRANCH   8  10
ENDBRANCH   2   8
ENDBRANCH   1   7
BRANCH   1  12
ATOM     12  C   UNL     1       4.732   4.294  16.899  0.00  0.00    +0.000 A 
ATOM     13  C   UNL     1       4.842   5.233  15.863  0.00  0.00    +0.000 A 
ATOM     14  C   UNL     1       5.946   6.099  15.794  0.00  0.00    +0.000 A 
ATOM     15  C   UNL     1       6.957   6.039  16.756  0.00  0.00    +0.000 A 
ATOM     16  C   UNL     1       6.977   4.965  17.652  0.00  0.00    +0.000 A 
ATOM     17  C   UNL     1       5.869   4.085  17.703  0.00  0.00    +0.000 A 
BRANCH  15  18
ATOM     18  O   UNL     1       7.865   7.076  16.660  0.00  0.00    +0.000 OA
ATOM     19  C   UNL     1       7.694   8.203  17.520  0.00  0.00    +0.000 C 
ENDBRANCH  15  18
BRANCH  16  20
ATOM     20  O   UNL     1       8.015   4.897  18.544  0.00  0.00    +0.000 OA
ATOM     21  C   UNL     1       7.837   5.511  19.812  0.00  0.00    +0.000 C 
ENDBRANCH  16  20
ENDBRANCH   1  12
TORSDOF 6
ENDMDL
MODEL 3
REMARK VINA RESULT:      -6.6      1.335      2.707
REMARK  Name = 
REMARK  9 active torsions:
REMARK  status: ('A' for Active; 'I' for Inactive)
REMARK    1  A    between atoms: C_1  and  N_2
REMARK    2  A    between atoms: N_2  and  C_3
REMARK    3  A    between atoms: C_3  and  C_4
REMARK    4  A    between atoms: C_9  and  S_10
REMARK    5  A    between atoms: S_10  and  C_11
REMARK    6  A    between atoms: C_14  and  O_15
REMARK    7  A    between atoms: O_15  and  C_16
REMARK    8  A    between atoms: C_17  and  O_18
REMARK    9  A    between atoms: O_18  and  C_19
REMARK                            x       y       z     vdW  Elec       q    Type
REMARK                         _______ _______ _______ _____ _____    ______ ____
ROOT
ATOM      1  S   UNL     1       3.196   3.989  17.319  0.00  0.00    +0.000 S 
ENDROOT
BRANCH   1   7
ATOM      2  C   UNL     1       2.260   5.183  20.002  0.00  0.00    +0.000 A 
ATOM      3  C   UNL     1       1.916   6.428  20.609  0.00  0.00    +0.000 A 
ATOM      4  C   UNL     1       1.964   7.650  19.949  0.00  0.00    +0.000 A 
ATOM      5  C   UNL     1       2.380   7.702  18.640  0.00  0.00    +0.000 A 
ATOM      6  C   UNL     1       2.724   6.531  17.981  0.00  0.00    +0.000 A 
ATOM      7  C   UNL     1       2.686   5.254  18.586  0.00  0.00    +0.000 A 
BRANCH   2   8
ATOM      8  C   UNL     1       2.064   4.059  21.106  0.00  0.00    +0.000 C 
BRANCH   8  10
ATOM      9  C   UNL     1       0.667   2.622  19.534  0.00  0.00    +0.000 C 
ATOM     10  N   UNL     1       0.940   3.126  20.871  0.00  0.00    +0.000 NA
ATOM     11  H   UNL     1       0.927   2.356  21.533  0.00  0.00    +0.000 HD
ENDBRANCH   8  10
ENDBRANCH   2   8
ENDBRANCH   1   7
BRANCH   1  12
ATOM     12  C   UNL     1       4.826   4.340  16.582  0.00  0.00    +0.000 A 
ATOM     13  C   UNL     1       5.235   3.630  15.443  0.00  0.00    +0.000 A 
ATOM     14  C   UNL     1       6.350   4.049  14.698  0.00  0.00    +0.000 A 
ATOM     15  C   UNL     1       7.075   5.181  15.079  0.00  0.00    +0.000 A 
ATOM     16  C   UNL     1       6.823   5.757  16.329  0.00  0.00    +0.000 A 
ATOM     17  C   UNL     1       5.709   5.317  17.083  0.00  0.00    +0.000 A 
BRANCH  15  18
ATOM     18  O   UNL     1       8.014   5.569  14.143  0.00  0.00    +0.000 OA
ATOM     19  C   UNL     1       7.833   5.144  12.791  0.00  0.00    +0.000 C 
ENDBRANCH  15  18
BRANCH  16  20
ATOM     20  O   UNL     1       7.592   6.827  16.705  0.00  0.00    +0.000 OA
ATOM     21  C   UNL     1       7.775   7.053  18.095  0.00  0.00    +0.000 C 
ENDBRANCH  16  20
ENDBRANCH   1  12
TORSDOF 6
ENDMDL
MODEL 4
REMARK VINA RESULT:      -6.5      4.036      7.105
REMARK  Name = 
REMARK  9 active torsions:
REMARK  status: ('A' for Active; 'I' for Inactive)
REMARK    1  A    between atoms: C_1  and  N_2
REMARK    2  A    between atoms: N_2  and  C_3
REMARK    3  A    between atoms: C_3  and  C_4
REMARK    4  A    between atoms: C_9  and  S_10
REMARK    5  A    between atoms: S_10  and  C_11
REMARK    6  A    between atoms: C_14  and  O_15
REMARK    7  A    between atoms: O_15  and  C_16
REMARK    8  A    between atoms: C_17  and  O_18
REMARK    9  A    between atoms: O_18  and  C_19
REMARK                            x       y       z     vdW  Elec       q    Type
REMARK                         _______ _______ _______ _____ _____    ______ ____
ROOT
ATOM      1  S   UNL     1       2.972   7.429  17.860  0.00  0.00    +0.000 S 
ENDROOT
BRANCH   1   7
ATOM      2  C   UNL     1       4.293   4.766  18.674  0.00  0.00    +0.000 A 
ATOM      3  C   UNL     1       4.016   3.370  18.780  0.00  0.00    +0.000 A 
ATOM      4  C   UNL     1       2.785   2.801  18.475  0.00  0.00    +0.000 A 
ATOM      5  C   UNL     1       1.746   3.601  18.063  0.00  0.00    +0.000 A 
ATOM      6  C   UNL     1       1.942   4.967  17.931  0.00  0.00    +0.000 A 
ATOM      7  C   UNL     1       3.170   5.612  18.210  0.00  0.00    +0.000 A 
BRANCH   2   8
ATOM      8  C   UNL     1       5.803   4.974  19.116  0.00  0.00    +0.000 C 
BRANCH   8  10
ATOM      9  C   UNL     1       6.998   4.619  16.895  0.00  0.00    +0.000 C 
ATOM     10  N   UNL     1       6.809   4.267  18.294  0.00  0.00    +0.000 NA
ATOM     11  H   UNL     1       7.713   4.203  18.753  0.00  0.00    +0.000 HD
ENDBRANCH   8  10
ENDBRANCH   2   8
ENDBRANCH   1   7
BRANCH   1  12
ATOM     12  C   UNL     1       1.948   8.284  19.103  0.00  0.00    +0.000 A 
ATOM     13  C   UNL     1       1.779   7.709  20.371  0.00  0.00    +0.000 A 
ATOM     14  C   UNL     1       1.228   8.451  21.428  0.00  0.00    +0.000 A 
ATOM     15  C   UNL     1       0.834   9.778  21.235  0.00  0.00    +0.000 A 
ATOM     16  C   UNL     1       0.781  10.286  19.934  0.00  0.00    +0.000 A 
ATOM     17  C   UNL     1       1.322   9.524  18.870  0.00  0.00    +0.000 A 
BRANCH  15  18
ATOM     18  O   UNL     1       0.496  10.423  22.410  0.00  0.00    +0.000 OA
ATOM     19  C   UNL     1      -0.723  10.053  23.055  0.00  0.00    +0.000 C 
ENDBRANCH  15  18
BRANCH  16  20
ATOM     20  O   UNL     1       0.331  11.570  19.767  0.00  0.00    +0.000 OA
ATOM     21  C   UNL     1       1.291  12.616  19.801  0.00  0.00    +0.000 C 
ENDBRANCH  16  20
ENDBRANCH   1  12
TORSDOF 6
ENDMDL
MODEL 5
REMARK VINA RESULT:      -6.5      0.722      2.280
REMARK  Name = 
REMARK  9 active torsions:
REMARK  status: ('A' for Active; 'I' for Inactive)
REMARK    1  A    between atoms: C_1  and  N_2
REMARK    2  A    between atoms: N_2  and  C_3
REMARK    3  A    between atoms: C_3  and  C_4
REMARK    4  A    between atoms: C_9  and  S_10
REMARK    5  A    between atoms: S_10  and  C_11
REMARK    6  A    between atoms: C_14  and  O_15
REMARK    7  A    between atoms: O_15  and  C_16
REMARK    8  A    between atoms: C_17  and  O_18
REMARK    9  A    between atoms: O_18  and  C_19
REMARK                            x       y       z     vdW  Elec       q    Type
REMARK                         _______ _______ _______ _____ _____    ______ ____
ROOT
ATOM      1  S   UNL     1       3.093   3.744  17.235  0.00  0.00    +0.000 S 
ENDROOT
BRANCH   1   7
ATOM      2  C   UNL     1       2.217   4.995  19.912  0.00  0.00    +0.000 A 
ATOM      3  C   UNL     1       1.909   4.643  21.260  0.00  0.00    +0.000 A 
ATOM      4  C   UNL     1       1.935   3.340  21.744  0.00  0.00    +0.000 A 
ATOM      5  C   UNL     1       2.253   2.304  20.898  0.00  0.00    +0.000 A 
ATOM      6  C   UNL     1       2.571   2.571  19.575  0.00  0.00    +0.000 A 
ATOM      7  C   UNL     1       2.578   3.871  19.019  0.00  0.00    +0.000 A 
BRANCH   2   8
ATOM      8  C   UNL     1       2.064   6.571  19.798  0.00  0.00    +0.000 C 
BRANCH   8  10
ATOM      9  C   UNL     1       1.060   8.480  21.152  0.00  0.00    +0.000 C 
ATOM     10  N   UNL     1       1.891   7.288  21.080  0.00  0.00    +0.000 NA
ATOM     11  H   UNL     1       1.657   6.665  21.848  0.00  0.00    +0.000 HD
ENDBRANCH   8  10
ENDBRANCH   2   8
ENDBRANCH   1   7
BRANCH   1  12
ATOM     12  C   UNL     1       4.411   4.923  16.790  0.00  0.00    +0.000 A 
ATOM     13  C   UNL     1       4.494   6.151  17.464  0.00  0.00    +0.000 A 
ATOM     14  C   UNL     1       5.634   6.961  17.341  0.00  0.00    +0.000 A 
ATOM     15  C   UNL     1       6.708   6.561  16.541  0.00  0.00    +0.000 A 
ATOM     16  C   UNL     1       6.545   5.464  15.689  0.00  0.00    +0.000 A 
ATOM     17  C   UNL     1       5.384   4.662  15.806  0.00  0.00    +0.000 A 
BRANCH  15  18
ATOM     18  O   UNL     1       7.821   7.367  16.678  0.00  0.00    +0.000 OA
ATOM     19  C   UNL     1       8.046   7.997  17.940  0.00  0.00    +0.000 C 
ENDBRANCH  15  18
BRANCH  16  20
ATOM     20  O   UNL     1       7.592   5.131  14.870  0.00  0.00    +0.000 OA
ATOM     21  C   UNL     1       7.294   4.788  13.524  0.00  0.00    +0.000 C 
ENDBRANCH  16  20
ENDBRANCH   1  12
TORSDOF 6
ENDMDL
MODEL 6
REMARK VINA RESULT:      -6.4      2.220      3.699
REMARK  Name = 
REMARK  9 active torsions:
REMARK  status: ('A' for Active; 'I' for Inactive)
REMARK    1  A    between atoms: C_1  and  N_2
REMARK    2  A    between atoms: N_2  and  C_3
REMARK    3  A    between atoms: C_3  and  C_4
REMARK    4  A    between atoms: C_9  and  S_10
REMARK    5  A    between atoms: S_10  and  C_11
REMARK    6  A    between atoms: C_14  and  O_15
REMARK    7  A    between atoms: O_15  and  C_16
REMARK    8  A    between atoms: C_17  and  O_18
REMARK    9  A    between atoms: O_18  and  C_19
REMARK                            x       y       z     vdW  Elec       q    Type
REMARK                         _______ _______ _______ _____ _____    ______ ____
ROOT
ATOM      1  S   UNL     1       2.714   5.481  20.116  0.00  0.00    +0.000 S 
ENDROOT
BRANCH   1   7
ATOM      2  C   UNL     1       1.515   8.306  20.402  0.00  0.00    +0.000 A 
ATOM      3  C   UNL     1       1.236   9.481  19.642  0.00  0.00    +0.000 A 
ATOM      4  C   UNL     1       1.540   9.620  18.294  0.00  0.00    +0.000 A 
ATOM      5  C   UNL     1       2.164   8.593  17.625  0.00  0.00    +0.000 A 
ATOM      6  C   UNL     1       2.461   7.417  18.297  0.00  0.00    +0.000 A 
ATOM      7  C   UNL     1       2.169   7.202  19.664  0.00  0.00    +0.000 A 
BRANCH   2   8
ATOM      8  C   UNL     1       1.007   8.578  21.881  0.00  0.00    +0.000 C 
BRANCH   8  10
ATOM      9  C   UNL     1      -0.660  10.071  23.097  0.00  0.00    +0.000 C 
ATOM     10  N   UNL     1      -0.339   9.182  21.991  0.00  0.00    +0.000 NA
ATOM     11  H   UNL     1      -0.652   9.598  21.119  0.00  0.00    +0.000 HD
ENDBRANCH   8  10
ENDBRANCH   2   8
ENDBRANCH   1   7
BRANCH   1  12
ATOM     12  C   UNL     1       3.968   4.810  18.975  0.00  0.00    +0.000 A 
ATOM     13  C   UNL     1       3.562   4.005  17.901  0.00  0.00    +0.000 A 
ATOM     14  C   UNL     1       4.454   3.693  16.861  0.00  0.00    +0.000 A 
ATOM     15  C   UNL     1       5.764   4.177  16.878  0.00  0.00    +0.000 A 
ATOM     16  C   UNL     1       6.247   4.781  18.043  0.00  0.00    +0.000 A 
ATOM     17  C   UNL     1       5.346   5.076  19.096  0.00  0.00    +0.000 A 
BRANCH  15  18
ATOM     18  O   UNL     1       6.447   3.946  15.700  0.00  0.00    +0.000 OA
ATOM     19  C   UNL     1       6.410   4.954  14.690  0.00  0.00    +0.000 C 
ENDBRANCH  15  18
BRANCH  16  20
ATOM     20  O   UNL     1       7.554   5.191  18.056  0.00  0.00    +0.000 OA
ATOM     21  C   UNL     1       7.842   6.468  18.606  0.00  0.00    +0.000 C 
ENDBRANCH  16  20
ENDBRANCH   1  12
TORSDOF 6
ENDMDL
MODEL 7
REMARK VINA RESULT:      -6.4      2.100      3.122
REMARK  Name = 
REMARK  9 active torsions:
REMARK  status: ('A' for Active; 'I' for Inactive)
REMARK    1  A    between atoms: C_1  and  N_2
REMARK    2  A    between atoms: N_2  and  C_3
REMARK    3  A    between atoms: C_3  and  C_4
REMARK    4  A    between atoms: C_9  and  S_10
REMARK    5  A    between atoms: S_10  and  C_11
REMARK    6  A    between atoms: C_14  and  O_15
REMARK    7  A    between atoms: O_15  and  C_16
REMARK    8  A    between atoms: C_17  and  O_18
REMARK    9  A    between atoms: O_18  and  C_19
REMARK                            x       y       z     vdW  Elec       q    Type
REMARK                         _______ _______ _______ _____ _____    ______ ____
ROOT
ATOM      1  S   UNL     1       2.826   3.522  17.113  0.00  0.00    +0.000 S 
ENDROOT
BRANCH   1   7
ATOM      2  C   UNL     1       3.486   2.601  19.980  0.00  0.00    +0.000 A 
ATOM      3  C   UNL     1       2.992   2.674  21.316  0.00  0.00    +0.000 A 
ATOM      4  C   UNL     1       1.837   3.359  21.677  0.00  0.00    +0.000 A 
ATOM      5  C   UNL     1       1.115   4.031  20.719  0.00  0.00    +0.000 A 
ATOM      6  C   UNL     1       1.532   4.000  19.397  0.00  0.00    +0.000 A 
ATOM      7  C   UNL     1       2.687   3.314  18.957  0.00  0.00    +0.000 A 
BRANCH   2   8
ATOM      8  C   UNL     1       4.812   1.730  20.023  0.00  0.00    +0.000 C 
BRANCH   8  10
ATOM      9  C   UNL     1       5.872   0.202  21.762  0.00  0.00    +0.000 C 
ATOM     10  N   UNL     1       5.390   1.517  21.368  0.00  0.00    +0.000 NA
ATOM     11  H   UNL     1       6.083   2.219  21.611  0.00  0.00    +0.000 HD
ENDBRANCH   8  10
ENDBRANCH   2   8
ENDBRANCH   1   7
BRANCH   1  12
ATOM     12  C   UNL     1       4.513   3.957  16.573  0.00  0.00    +0.000 A 
ATOM     13  C   UNL     1       4.981   3.494  15.334  0.00  0.00    +0.000 A 
ATOM     14  C   UNL     1       6.156   4.018  14.770  0.00  0.00    +0.000 A 
ATOM     15  C   UNL     1       6.883   5.009  15.434  0.00  0.00    +0.000 A 
ATOM     16  C   UNL     1       6.560   5.311  16.761  0.00  0.00    +0.000 A 
ATOM     17  C   UNL     1       5.384   4.765  17.330  0.00  0.00    +0.000 A 
BRANCH  15  18
ATOM     18  O   UNL     1       7.894   5.552  14.665  0.00  0.00    +0.000 OA
ATOM     19  C   UNL     1       7.878   5.306  13.258  0.00  0.00    +0.000 C 
ENDBRANCH  15  18
BRANCH  16  20
ATOM     20  O   UNL     1       7.329   6.242  17.409  0.00  0.00    +0.000 OA
ATOM     21  C   UNL     1       7.652   6.000  18.770  0.00  0.00    +0.000 C 
ENDBRANCH  16  20
ENDBRANCH   1  12
TORSDOF 6
ENDMDL
MODEL 8
REMARK VINA RESULT:      -6.3      2.393      3.878
REMARK  Name = 
REMARK  9 active torsions:
REMARK  status: ('A' for Active; 'I' for Inactive)
REMARK    1  A    between atoms: C_1  and  N_2
REMARK    2  A    between atoms: N_2  and  C_3
REMARK    3  A    between atoms: C_3  and  C_4
REMARK    4  A    between atoms: C_9  and  S_10
REMARK    5  A    between atoms: S_10  and  C_11
REMARK    6  A    between atoms: C_14  and  O_15
REMARK    7  A    between atoms: O_15  and  C_16
REMARK    8  A    between atoms: C_17  and  O_18
REMARK    9  A    between atoms: O_18  and  C_19
REMARK                            x       y       z     vdW  Elec       q    Type
REMARK                         _______ _______ _______ _____ _____    ______ ____
ROOT
ATOM      1  S   UNL     1       3.413   2.805  17.305  0.00  0.00    +0.000 S 
ENDROOT
BRANCH   1   7
ATOM      2  C   UNL     1       3.435   2.519  20.374  0.00  0.00    +0.000 A 
ATOM      3  C   UNL     1       2.585   2.654  21.513  0.00  0.00    +0.000 A 
ATOM      4  C   UNL     1       1.256   3.055  21.443  0.00  0.00    +0.000 A 
ATOM      5  C   UNL     1       0.700   3.366  20.224  0.00  0.00    +0.000 A 
ATOM      6  C   UNL     1       1.464   3.253  19.073  0.00  0.00    +0.000 A 
ATOM      7  C   UNL     1       2.816   2.839  19.068  0.00  0.00    +0.000 A 
BRANCH   2   8
ATOM      8  C   UNL     1       4.852   2.044  20.907  0.00  0.00    +0.000 C 
BRANCH   8  10
ATOM      9  C   UNL     1       5.932  -0.249  21.148  0.00  0.00    +0.000 C 
ATOM     10  N   UNL     1       5.373   0.797  20.306  0.00  0.00    +0.000 NA
ATOM     11  H   UNL     1       4.728   0.387  19.638  0.00  0.00    +0.000 HD
ENDBRANCH   8  10
ENDBRANCH   2   8
ENDBRANCH   1   7
BRANCH   1  12
ATOM     12  C   UNL     1       4.513   4.202  16.901  0.00  0.00    +0.000 A 
ATOM     13  C   UNL     1       4.768   5.182  17.872  0.00  0.00    +0.000 A 
ATOM     14  C   UNL     1       5.802   6.116  17.695  0.00  0.00    +0.000 A 
ATOM     15  C   UNL     1       6.595   6.088  16.545  0.00  0.00    +0.000 A 
ATOM     16  C   UNL     1       6.208   5.275  15.475  0.00  0.00    +0.000 A 
ATOM     17  C   UNL     1       5.152   4.349  15.655  0.00  0.00    +0.000 A 
BRANCH  15  18
ATOM     18  O   UNL     1       7.681   6.940  16.610  0.00  0.00    +0.000 OA
ATOM     19  C   UNL     1       7.793   7.804  17.741  0.00  0.00    +0.000 C 
ENDBRANCH  15  18
BRANCH  16  20
ATOM     20  O   UNL     1       6.968   5.315  14.335  0.00  0.00    +0.000 OA
ATOM     21  C   UNL     1       6.813   4.257  13.401  0.00  0.00    +0.000 C 
ENDBRANCH  16  20
ENDBRANCH   1  12
TORSDOF 6
ENDMDL
MODEL 9
REMARK VINA RESULT:      -6.3      1.267      1.374
REMARK  Name = 
REMARK  9 active torsions:
REMARK  status: ('A' for Active; 'I' for Inactive)
REMARK    1  A    between atoms: C_1  and  N_2
REMARK    2  A    between atoms: N_2  and  C_3
REMARK    3  A    between atoms: C_3  and  C_4
REMARK    4  A    between atoms: C_9  and  S_10
REMARK    5  A    between atoms: S_10  and  C_11
REMARK    6  A    between atoms: C_14  and  O_15
REMARK    7  A    between atoms: O_15  and  C_16
REMARK    8  A    between atoms: C_17  and  O_18
REMARK    9  A    between atoms: O_18  and  C_19
REMARK                            x       y       z     vdW  Elec       q    Type
REMARK                         _______ _______ _______ _____ _____    ______ ____
ROOT
ATOM      1  S   UNL     1       3.224   3.236  17.059  0.00  0.00    +0.000 S 
ENDROOT
BRANCH   1   7
ATOM      2  C   UNL     1       2.589   5.664  18.848  0.00  0.00    +0.000 A 
ATOM      3  C   UNL     1       2.118   5.994  20.154  0.00  0.00    +0.000 A 
ATOM      4  C   UNL     1       1.748   5.050  21.104  0.00  0.00    +0.000 A 
ATOM      5  C   UNL     1       1.809   3.712  20.796  0.00  0.00    +0.000 A 
ATOM      6  C   UNL     1       2.262   3.315  19.547  0.00  0.00    +0.000 A 
ATOM      7  C   UNL     1       2.667   4.219  18.538  0.00  0.00    +0.000 A 
BRANCH   2   8
ATOM      8  C   UNL     1       2.893   7.034  18.105  0.00  0.00    +0.000 C 
BRANCH   8  10
ATOM      9  C   UNL     1       1.834   9.327  17.781  0.00  0.00    +0.000 C 
ATOM     10  N   UNL     1       2.203   8.222  18.653  0.00  0.00    +0.000 NA
ATOM     11  H   UNL     1       1.413   7.978  19.243  0.00  0.00    +0.000 HD
ENDBRANCH   8  10
ENDBRANCH   2   8
ENDBRANCH   1   7
BRANCH   1  12
ATOM     12  C   UNL     1       4.847   3.771  16.421  0.00  0.00    +0.000 A 
ATOM     13  C   UNL     1       5.203   3.464  15.099  0.00  0.00    +0.000 A 
ATOM     14  C   UNL     1       6.312   4.078  14.494  0.00  0.00    +0.000 A 
ATOM     15  C   UNL     1       7.084   5.005  15.200  0.00  0.00    +0.000 A 
ATOM     16  C   UNL     1       6.883   5.146  16.576  0.00  0.00    +0.000 A 
ATOM     17  C   UNL     1       5.773   4.509  17.183  0.00  0.00    +0.000 A 
BRANCH  15  18
ATOM     18  O   UNL     1       8.012   5.657  14.410  0.00  0.00    +0.000 OA
ATOM     19  C   UNL     1       8.025   5.371  13.011  0.00  0.00    +0.000 C 
ENDBRANCH  15  18
BRANCH  16  20
ATOM     20  O   UNL     1       7.696   6.016  17.255  0.00  0.00    +0.000 OA
ATOM     21  C   UNL     1       7.686   5.959  18.674  0.00  0.00    +0.000 C 
ENDBRANCH  16  20
ENDBRANCH   1  12
TORSDOF 6
ENDMDL
