MODEL 1
REMARK VINA RESULT:      -8.9      0.000      0.000
REMARK  Name = 
REMARK  7 active torsions:
REMARK  status: ('A' for Active; 'I' for Inactive)
REMARK    1  A    between atoms: C_1  and  O_2
REMARK    2  A    between atoms: O_2  and  C_3
REMARK    3  A    between atoms: C_6  and  C_7
REMARK    4  A    between atoms: C_7  and  C_9
REMARK    5  A    between atoms: C_12  and  N_13
REMARK    6  A    between atoms: C_25  and  N_26
REMARK    7  A    between atoms: C_28  and  O_29
REMARK                            x       y       z     vdW  Elec       q    Type
REMARK                         _______ _______ _______ _____ _____    ______ ____
ROOT
ATOM      1  C   UNL     1       4.418   5.764  18.206  0.00  0.00    +0.000 A 
ATOM      2  C   UNL     1       4.189   6.889  17.459  0.00  0.00    +0.000 A 
ATOM      3  C   UNL     1       3.245   7.803  17.881  0.00  0.00    +0.000 A 
ATOM      4  C   UNL     1       2.388   7.687  19.024  0.00  0.00    +0.000 A 
ATOM      5  C   UNL     1       2.585   6.481  19.756  0.00  0.00    +0.000 A 
ATOM      6  C   UNL     1       3.634   5.566  19.360  0.00  0.00    +0.000 A 
ENDROOT
BRANCH   4   7
ATOM      7  N   UNL     1       1.434   8.715  19.245  0.00  0.00    +0.000 N 
ATOM      8  C   UNL     1       1.211   9.480  18.018  0.00  0.00    +0.000 C 
ATOM      9  C   UNL     1       0.065  10.469  18.004  0.00  0.00    +0.000 C 
ATOM     10  N   UNL     1      -0.902  10.821  19.056  0.00  0.00    +0.000 N 
ATOM     11  C   UNL     1      -2.156  10.726  18.382  0.00  0.00    +0.000 A 
ATOM     12  C   UNL     1      -3.179  11.629  18.589  0.00  0.00    +0.000 A 
ATOM     13  C   UNL     1      -4.224  11.713  17.636  0.00  0.00    +0.000 A 
ATOM     14  C   UNL     1      -4.216  10.917  16.491  0.00  0.00    +0.000 A 
ATOM     15  C   UNL     1      -3.188  10.042  16.346  0.00  0.00    +0.000 A 
ATOM     16  N   UNL     1      -2.214   9.930  17.264  0.00  0.00    +0.000 NA
ATOM     17  C   UNL     1      -0.547  10.228  20.367  0.00  0.00    +0.000 C 
ATOM     18  C   UNL     1       0.670   9.143  20.462  0.00  0.00    +0.000 C 
ENDBRANCH   4   7
BRANCH   5  19
ATOM     19  N   UNL     1       1.936   6.195  20.970  0.00  0.00    +0.000 N 
ATOM     20  H   UNL     1       2.369   6.725  21.735  0.00  0.00    +0.000 HD
ATOM     21  H   UNL     1       0.930   6.410  20.936  0.00  0.00    +0.000 HD
ENDBRANCH   5  19
BRANCH   1  22
ATOM     22  C   UNL     1       5.523   4.914  17.702  0.00  0.00    +0.000 C 
ATOM     23  O   UNL     1       6.223   4.326  18.518  0.00  0.00    +0.000 OA
BRANCH  22  27
ATOM     24  C   UNL     1       6.426   4.115  13.613  0.00  0.00    +0.000 A 
ATOM     25  C   UNL     1       5.393   3.456  14.273  0.00  0.00    +0.000 A 
ATOM     26  C   UNL     1       5.110   3.757  15.605  0.00  0.00    +0.000 A 
ATOM     27  C   UNL     1       5.861   4.731  16.288  0.00  0.00    +0.000 A 
ATOM     28  C   UNL     1       6.925   5.348  15.640  0.00  0.00    +0.000 A 
ATOM     29  C   UNL     1       7.188   5.063  14.295  0.00  0.00    +0.000 A 
BRANCH  24  31
ATOM     30  C   UNL     1       5.721   2.723  11.824  0.00  0.00    +0.000 C 
ATOM     31  O   UNL     1       6.599   3.728  12.312  0.00  0.00    +0.000 OA
ENDBRANCH  24  31
BRANCH  28  32
ATOM     32  O   UNL     1       7.798   6.209  16.245  0.00  0.00    +0.000 OA
ATOM     33  H   UNL     1       7.316   6.778  16.870  0.00  0.00    +0.000 HD
ENDBRANCH  28  32
ENDBRANCH  22  27
ENDBRANCH   1  22
TORSDOF 6
ENDMDL
MODEL 2
REMARK VINA RESULT:      -8.4      2.902      3.960
REMARK  Name = 
REMARK  7 active torsions:
REMARK  status: ('A' for Active; 'I' for Inactive)
REMARK    1  A    between atoms: C_1  and  O_2
REMARK    2  A    between atoms: O_2  and  C_3
REMARK    3  A    between atoms: C_6  and  C_7
REMARK    4  A    between atoms: C_7  and  C_9
REMARK    5  A    between atoms: C_12  and  N_13
REMARK    6  A    between atoms: C_25  and  N_26
REMARK    7  A    between atoms: C_28  and  O_29
REMARK                            x       y       z     vdW  Elec       q    Type
REMARK                         _______ _______ _______ _____ _____    ______ ____
ROOT
ATOM      1  C   UNL     1       2.743   6.840  19.255  0.00  0.00    +0.000 A 
ATOM      2  C   UNL     1       2.659   7.702  18.194  0.00  0.00    +0.000 A 
ATOM      3  C   UNL     1       1.960   8.883  18.334  0.00  0.00    +0.000 A 
ATOM      4  C   UNL     1       1.224   9.315  19.485  0.00  0.00    +0.000 A 
ATOM      5  C   UNL     1       1.259   8.381  20.559  0.00  0.00    +0.000 A 
ATOM      6  C   UNL     1       2.063   7.183  20.440  0.00  0.00    +0.000 A 
ENDROOT
BRANCH   4   7
ATOM      7  N   UNL     1       0.516  10.543  19.399  0.00  0.00    +0.000 N 
ATOM      8  C   UNL     1       1.105  11.539  20.294  0.00  0.00    +0.000 C 
ATOM      9  C   UNL     1       0.624  12.968  20.171  0.00  0.00    +0.000 C 
ATOM     10  N   UNL     1      -0.385  13.560  19.278  0.00  0.00    +0.000 N 
ATOM     11  C   UNL     1       0.295  14.688  18.730  0.00  0.00    +0.000 A 
ATOM     12  C   UNL     1      -0.326  15.903  18.530  0.00  0.00    +0.000 A 
ATOM     13  C   UNL     1       0.470  17.062  18.354  0.00  0.00    +0.000 A 
ATOM     14  C   UNL     1       1.862  16.988  18.405  0.00  0.00    +0.000 A 
ATOM     15  C   UNL     1       2.416  15.765  18.596  0.00  0.00    +0.000 A 
ATOM     16  N   UNL     1       1.669  14.657  18.725  0.00  0.00    +0.000 NA
ATOM     17  C   UNL     1      -1.149  12.531  18.533  0.00  0.00    +0.000 C 
ATOM     18  C   UNL     1      -0.684  10.967  18.606  0.00  0.00    +0.000 C 
ENDBRANCH   4   7
BRANCH   5  19
ATOM     19  N   UNL     1       0.699   8.630  21.825  0.00  0.00    +0.000 N 
ATOM     20  H   UNL     1       0.232   9.545  21.830  0.00  0.00    +0.000 HD
ATOM     21  H   UNL     1       0.025   7.906  22.104  0.00  0.00    +0.000 HD
ENDBRANCH   5  19
BRANCH   1  22
ATOM     22  C   UNL     1       3.603   5.657  19.011  0.00  0.00    +0.000 C 
ATOM     23  O   UNL     1       3.357   4.624  19.621  0.00  0.00    +0.000 OA
BRANCH  22  27
ATOM     24  C   UNL     1       6.773   5.435  16.169  0.00  0.00    +0.000 A 
ATOM     25  C   UNL     1       5.442   5.521  15.771  0.00  0.00    +0.000 A 
ATOM     26  C   UNL     1       4.431   5.614  16.725  0.00  0.00    +0.000 A 
ATOM     27  C   UNL     1       4.747   5.628  18.096  0.00  0.00    +0.000 A 
ATOM     28  C   UNL     1       6.074   5.490  18.490  0.00  0.00    +0.000 A 
ATOM     29  C   UNL     1       7.088   5.424  17.527  0.00  0.00    +0.000 A 
BRANCH  24  31
ATOM     30  C   UNL     1       7.157   4.883  13.893  0.00  0.00    +0.000 C 
ATOM     31  O   UNL     1       7.665   5.349  15.134  0.00  0.00    +0.000 OA
ENDBRANCH  24  31
BRANCH  28  32
ATOM     32  O   UNL     1       6.480   5.361  19.788  0.00  0.00    +0.000 OA
ATOM     33  H   UNL     1       5.905   5.894  20.365  0.00  0.00    +0.000 HD
ENDBRANCH  28  32
ENDBRANCH  22  27
ENDBRANCH   1  22
TORSDOF 6
ENDMDL
MODEL 3
REMARK VINA RESULT:      -8.2      3.047      4.521
REMARK  Name = 
REMARK  7 active torsions:
REMARK  status: ('A' for Active; 'I' for Inactive)
REMARK    1  A    between atoms: C_1  and  O_2
REMARK    2  A    between atoms: O_2  and  C_3
REMARK    3  A    between atoms: C_6  and  C_7
REMARK    4  A    between atoms: C_7  and  C_9
REMARK    5  A    between atoms: C_12  and  N_13
REMARK    6  A    between atoms: C_25  and  N_26
REMARK    7  A    between atoms: C_28  and  O_29
REMARK                            x       y       z     vdW  Elec       q    Type
REMARK                         _______ _______ _______ _____ _____    ______ ____
ROOT
ATOM      1  C   UNL     1       2.162   7.000  19.634  0.00  0.00    +0.000 A 
ATOM      2  C   UNL     1       1.611   7.389  20.827  0.00  0.00    +0.000 A 
ATOM      3  C   UNL     1       1.085   8.659  20.948  0.00  0.00    +0.000 A 
ATOM      4  C   UNL     1       1.100   9.693  19.956  0.00  0.00    +0.000 A 
ATOM      5  C   UNL     1       1.737   9.303  18.744  0.00  0.00    +0.000 A 
ATOM      6  C   UNL     1       2.210   7.944  18.590  0.00  0.00    +0.000 A 
ENDROOT
BRANCH   4   7
ATOM      7  N   UNL     1       0.560  10.959  20.308  0.00  0.00    +0.000 N 
ATOM      8  C   UNL     1      -0.899  10.945  20.191  0.00  0.00    +0.000 C 
ATOM      9  C   UNL     1      -1.660  12.132  20.738  0.00  0.00    +0.000 C 
ATOM     10  N   UNL     1      -1.171  13.360  21.388  0.00  0.00    +0.000 N 
ATOM     11  C   UNL     1      -1.975  13.441  22.563  0.00  0.00    +0.000 A 
ATOM     12  C   UNL     1      -2.481  14.635  23.035  0.00  0.00    +0.000 A 
ATOM     13  C   UNL     1      -3.559  14.610  23.953  0.00  0.00    +0.000 A 
ATOM     14  C   UNL     1      -4.124  13.402  24.362  0.00  0.00    +0.000 A 
ATOM     15  C   UNL     1      -3.580  12.260  23.871  0.00  0.00    +0.000 A 
ATOM     16  N   UNL     1      -2.533  12.275  23.030  0.00  0.00    +0.000 NA
ATOM     17  C   UNL     1       0.303  13.491  21.304  0.00  0.00    +0.000 C 
ATOM     18  C   UNL     1       1.196  12.248  20.736  0.00  0.00    +0.000 C 
ENDBRANCH   4   7
BRANCH   5  19
ATOM     19  N   UNL     1       1.779  10.110  17.594  0.00  0.00    +0.000 N 
ATOM     20  H   UNL     1       2.741  10.166  17.237  0.00  0.00    +0.000 HD
ATOM     21  H   UNL     1       1.163   9.761  16.848  0.00  0.00    +0.000 HD
ENDBRANCH   5  19
BRANCH   1  22
ATOM     22  C   UNL     1       2.600   5.584  19.601  0.00  0.00    +0.000 C 
ATOM     23  O   UNL     1       2.188   4.827  20.472  0.00  0.00    +0.000 OA
BRANCH  22  27
ATOM     24  C   UNL     1       5.390   4.159  16.709  0.00  0.00    +0.000 A 
ATOM     25  C   UNL     1       5.765   5.062  17.701  0.00  0.00    +0.000 A 
ATOM     26  C   UNL     1       4.833   5.491  18.644  0.00  0.00    +0.000 A 
ATOM     27  C   UNL     1       3.511   5.012  18.606  0.00  0.00    +0.000 A 
ATOM     28  C   UNL     1       3.128   4.152  17.582  0.00  0.00    +0.000 A 
ATOM     29  C   UNL     1       4.074   3.703  16.653  0.00  0.00    +0.000 A 
BRANCH  24  31
ATOM     30  C   UNL     1       6.203   4.146  14.479  0.00  0.00    +0.000 C 
ATOM     31  O   UNL     1       6.397   3.820  15.847  0.00  0.00    +0.000 OA
ENDBRANCH  24  31
BRANCH  28  32
ATOM     32  O   UNL     1       1.845   3.730  17.373  0.00  0.00    +0.000 OA
ATOM     33  H   UNL     1       1.682   2.915  17.880  0.00  0.00    +0.000 HD
ENDBRANCH  28  32
ENDBRANCH  22  27
ENDBRANCH   1  22
TORSDOF 6
ENDMDL
MODEL 4
REMARK VINA RESULT:      -8.1      2.249      3.340
REMARK  Name = 
REMARK  7 active torsions:
REMARK  status: ('A' for Active; 'I' for Inactive)
REMARK    1  A    between atoms: C_1  and  O_2
REMARK    2  A    between atoms: O_2  and  C_3
REMARK    3  A    between atoms: C_6  and  C_7
REMARK    4  A    between atoms: C_7  and  C_9
REMARK    5  A    between atoms: C_12  and  N_13
REMARK    6  A    between atoms: C_25  and  N_26
REMARK    7  A    between atoms: C_28  and  O_29
REMARK                            x       y       z     vdW  Elec       q    Type
REMARK                         _______ _______ _______ _____ _____    ______ ____
ROOT
ATOM      1  C   UNL     1       2.723   6.668  19.217  0.00  0.00    +0.000 A 
ATOM      2  C   UNL     1       2.616   7.492  18.128  0.00  0.00    +0.000 A 
ATOM      3  C   UNL     1       1.981   8.709  18.258  0.00  0.00    +0.000 A 
ATOM      4  C   UNL     1       1.333   9.219  19.431  0.00  0.00    +0.000 A 
ATOM      5  C   UNL     1       1.388   8.326  20.539  0.00  0.00    +0.000 A 
ATOM      6  C   UNL     1       2.129   7.088  20.424  0.00  0.00    +0.000 A 
ENDROOT
BRANCH   4   7
ATOM      7  N   UNL     1       0.677  10.475  19.334  0.00  0.00    +0.000 N 
ATOM      8  C   UNL     1      -0.775  10.296  19.322  0.00  0.00    +0.000 C 
ATOM      9  C   UNL     1      -1.638  11.533  19.449  0.00  0.00    +0.000 C 
ATOM     10  N   UNL     1      -1.259  12.949  19.579  0.00  0.00    +0.000 N 
ATOM     11  C   UNL     1      -2.034  13.387  20.694  0.00  0.00    +0.000 A 
ATOM     12  C   UNL     1      -2.645  14.624  20.732  0.00  0.00    +0.000 A 
ATOM     13  C   UNL     1      -3.689  14.845  21.663  0.00  0.00    +0.000 A 
ATOM     14  C   UNL     1      -4.117  13.828  22.515  0.00  0.00    +0.000 A 
ATOM     15  C   UNL     1      -3.473  12.636  22.437  0.00  0.00    +0.000 A 
ATOM     16  N   UNL     1      -2.457  12.430  21.584  0.00  0.00    +0.000 NA
ATOM     17  C   UNL     1       0.192  13.165  19.361  0.00  0.00    +0.000 C 
ATOM     18  C   UNL     1       1.190  11.880  19.226  0.00  0.00    +0.000 C 
ENDBRANCH   4   7
BRANCH   5  19
ATOM     19  N   UNL     1       0.915   8.651  21.822  0.00  0.00    +0.000 N 
ATOM     20  H   UNL     1       1.456   9.433  22.210  0.00  0.00    +0.000 HD
ATOM     21  H   UNL     1      -0.083   8.898  21.821  0.00  0.00    +0.000 HD
ENDBRANCH   5  19
BRANCH   1  22
ATOM     22  C   UNL     1       3.512   5.437  18.973  0.00  0.00    +0.000 C 
ATOM     23  O   UNL     1       3.188   4.412  19.562  0.00  0.00    +0.000 OA
BRANCH  22  27
ATOM     24  C   UNL     1       6.737   5.031  16.214  0.00  0.00    +0.000 A 
ATOM     25  C   UNL     1       5.413   5.083  15.786  0.00  0.00    +0.000 A 
ATOM     26  C   UNL     1       4.383   5.239  16.713  0.00  0.00    +0.000 A 
ATOM     27  C   UNL     1       4.674   5.349  18.084  0.00  0.00    +0.000 A 
ATOM     28  C   UNL     1       5.993   5.244  18.512  0.00  0.00    +0.000 A 
ATOM     29  C   UNL     1       7.026   5.116  17.575  0.00  0.00    +0.000 A 
BRANCH  24  31
ATOM     30  C   UNL     1       7.128   4.771  13.888  0.00  0.00    +0.000 C 
ATOM     31  O   UNL     1       7.648   4.877  15.205  0.00  0.00    +0.000 OA
ENDBRANCH  24  31
BRANCH  28  32
ATOM     32  O   UNL     1       6.375   5.207  19.823  0.00  0.00    +0.000 OA
ATOM     33  H   UNL     1       7.113   5.825  19.967  0.00  0.00    +0.000 HD
ENDBRANCH  28  32
ENDBRANCH  22  27
ENDBRANCH   1  22
TORSDOF 6
ENDMDL
MODEL 5
REMARK VINA RESULT:      -8.0      3.015      4.171
REMARK  Name = 
REMARK  7 active torsions:
REMARK  status: ('A' for Active; 'I' for Inactive)
REMARK    1  A    between atoms: C_1  and  O_2
REMARK    2  A    between atoms: O_2  and  C_3
REMARK    3  A    between atoms: C_6  and  C_7
REMARK    4  A    between atoms: C_7  and  C_9
REMARK    5  A    between atoms: C_12  and  N_13
REMARK    6  A    between atoms: C_25  and  N_26
REMARK    7  A    between atoms: C_28  and  O_29
REMARK                            x       y       z     vdW  Elec       q    Type
REMARK                         _______ _______ _______ _____ _____    ______ ____
ROOT
ATOM      1  C   UNL     1       2.474   6.813  19.412  0.00  0.00    +0.000 A 
ATOM      2  C   UNL     1       2.369   7.638  18.324  0.00  0.00    +0.000 A 
ATOM      3  C   UNL     1       1.734   8.856  18.455  0.00  0.00    +0.000 A 
ATOM      4  C   UNL     1       1.084   9.364  19.627  0.00  0.00    +0.000 A 
ATOM      5  C   UNL     1       1.137   8.470  20.734  0.00  0.00    +0.000 A 
ATOM      6  C   UNL     1       1.878   7.231  20.618  0.00  0.00    +0.000 A 
ENDROOT
BRANCH   4   7
ATOM      7  N   UNL     1       0.430  10.621  19.532  0.00  0.00    +0.000 N 
ATOM      8  C   UNL     1       1.095  11.611  20.378  0.00  0.00    +0.000 C 
ATOM      9  C   UNL     1       0.675  13.058  20.233  0.00  0.00    +0.000 C 
ATOM     10  N   UNL     1      -0.338  13.672  19.359  0.00  0.00    +0.000 N 
ATOM     11  C   UNL     1       0.373  14.752  18.757  0.00  0.00    +0.000 A 
ATOM     12  C   UNL     1      -0.201  15.990  18.544  0.00  0.00    +0.000 A 
ATOM     13  C   UNL     1       0.640  17.105  18.310  0.00  0.00    +0.000 A 
ATOM     14  C   UNL     1       2.028  16.970  18.314  0.00  0.00    +0.000 A 
ATOM     15  C   UNL     1       2.534  15.727  18.519  0.00  0.00    +0.000 A 
ATOM     16  N   UNL     1       1.742  14.658  18.705  0.00  0.00    +0.000 NA
ATOM     17  C   UNL     1      -1.174  12.660  18.670  0.00  0.00    +0.000 C 
ATOM     18  C   UNL     1      -0.778  11.079  18.770  0.00  0.00    +0.000 C 
ENDBRANCH   4   7
BRANCH   5  19
ATOM     19  N   UNL     1       0.662   8.792  22.017  0.00  0.00    +0.000 N 
ATOM     20  H   UNL     1      -0.148   9.420  21.946  0.00  0.00    +0.000 HD
ATOM     21  H   UNL     1       0.396   7.957  22.557  0.00  0.00    +0.000 HD
ENDBRANCH   5  19
BRANCH   1  22
ATOM     22  C   UNL     1       3.263   5.582  19.168  0.00  0.00    +0.000 C 
ATOM     23  O   UNL     1       3.088   4.622  19.909  0.00  0.00    +0.000 OA
BRANCH  22  27
ATOM     24  C   UNL     1       6.198   5.396  16.081  0.00  0.00    +0.000 A 
ATOM     25  C   UNL     1       6.253   6.361  17.083  0.00  0.00    +0.000 A 
ATOM     26  C   UNL     1       5.290   6.381  18.090  0.00  0.00    +0.000 A 
ATOM     27  C   UNL     1       4.259   5.423  18.105  0.00  0.00    +0.000 A 
ATOM     28  C   UNL     1       4.178   4.494  17.074  0.00  0.00    +0.000 A 
ATOM     29  C   UNL     1       5.163   4.461  16.080  0.00  0.00    +0.000 A 
BRANCH  24  31
ATOM     30  C   UNL     1       7.014   4.779  13.940  0.00  0.00    +0.000 C 
ATOM     31  O   UNL     1       7.202   5.488  15.156  0.00  0.00    +0.000 OA
ENDBRANCH  24  31
BRANCH  28  32
ATOM     32  O   UNL     1       3.151   3.606  16.919  0.00  0.00    +0.000 OA
ATOM     33  H   UNL     1       3.086   3.039  17.708  0.00  0.00    +0.000 HD
ENDBRANCH  28  32
ENDBRANCH  22  27
ENDBRANCH   1  22
TORSDOF 6
ENDMDL
MODEL 6
REMARK VINA RESULT:      -8.0      3.207      4.620
REMARK  Name = 
REMARK  7 active torsions:
REMARK  status: ('A' for Active; 'I' for Inactive)
REMARK    1  A    between atoms: C_1  and  O_2
REMARK    2  A    between atoms: O_2  and  C_3
REMARK    3  A    between atoms: C_6  and  C_7
REMARK    4  A    between atoms: C_7  and  C_9
REMARK    5  A    between atoms: C_12  and  N_13
REMARK    6  A    between atoms: C_25  and  N_26
REMARK    7  A    between atoms: C_28  and  O_29
REMARK                            x       y       z     vdW  Elec       q    Type
REMARK                         _______ _______ _______ _____ _____    ______ ____
ROOT
ATOM      1  C   UNL     1       2.152   7.098  19.741  0.00  0.00    +0.000 A 
ATOM      2  C   UNL     1       1.476   7.491  20.866  0.00  0.00    +0.000 A 
ATOM      3  C   UNL     1       0.847   8.719  20.885  0.00  0.00    +0.000 A 
ATOM      4  C   UNL     1       0.866   9.709  19.849  0.00  0.00    +0.000 A 
ATOM      5  C   UNL     1       1.629   9.322  18.711  0.00  0.00    +0.000 A 
ATOM      6  C   UNL     1       2.216   7.999  18.660  0.00  0.00    +0.000 A 
ENDROOT
BRANCH   4   7
ATOM      7  N   UNL     1       0.204  10.941  20.097  0.00  0.00    +0.000 N 
ATOM      8  C   UNL     1       1.141  11.926  20.640  0.00  0.00    +0.000 C 
ATOM      9  C   UNL     1       0.668  13.359  20.754  0.00  0.00    +0.000 C 
ATOM     10  N   UNL     1      -0.630  13.964  20.410  0.00  0.00    +0.000 N 
ATOM     11  C   UNL     1      -0.256  15.093  19.623  0.00  0.00    +0.000 A 
ATOM     12  C   UNL     1      -0.892  16.314  19.730  0.00  0.00    +0.000 A 
ATOM     13  C   UNL     1      -0.248  17.470  19.224  0.00  0.00    +0.000 A 
ATOM     14  C   UNL     1       1.019  17.390  18.646  0.00  0.00    +0.000 A 
ATOM     15  C   UNL     1       1.590  16.162  18.561  0.00  0.00    +0.000 A 
ATOM     16  N   UNL     1       0.969  15.056  19.004  0.00  0.00    +0.000 NA
ATOM     17  C   UNL     1      -1.655  12.945  20.080  0.00  0.00    +0.000 C 
ATOM     18  C   UNL     1      -1.220  11.379  19.927  0.00  0.00    +0.000 C 
ENDBRANCH   4   7
BRANCH   5  19
ATOM     19  N   UNL     1       1.706  10.081  17.531  0.00  0.00    +0.000 N 
ATOM     20  H   UNL     1       0.889  10.699  17.455  0.00  0.00    +0.000 HD
ATOM     21  H   UNL     1       2.563  10.649  17.486  0.00  0.00    +0.000 HD
ENDBRANCH   5  19
BRANCH   1  22
ATOM     22  C   UNL     1       2.697   5.721  19.810  0.00  0.00    +0.000 C 
ATOM     23  O   UNL     1       2.452   5.048  20.804  0.00  0.00    +0.000 OA
BRANCH  22  27
ATOM     24  C   UNL     1       5.292   4.125  16.827  0.00  0.00    +0.000 A 
ATOM     25  C   UNL     1       5.777   4.904  17.875  0.00  0.00    +0.000 A 
ATOM     26  C   UNL     1       4.904   5.392  18.846  0.00  0.00    +0.000 A 
ATOM     27  C   UNL     1       3.531   5.098  18.778  0.00  0.00    +0.000 A 
ATOM     28  C   UNL     1       3.043   4.364  17.702  0.00  0.00    +0.000 A 
ATOM     29  C   UNL     1       3.927   3.853  16.744  0.00  0.00    +0.000 A 
BRANCH  24  31
ATOM     30  C   UNL     1       6.798   4.700  15.086  0.00  0.00    +0.000 C 
ATOM     31  O   UNL     1       6.252   3.710  15.944  0.00  0.00    +0.000 OA
ENDBRANCH  24  31
BRANCH  28  32
ATOM     32  O   UNL     1       1.717   4.132  17.468  0.00  0.00    +0.000 OA
ATOM     33  H   UNL     1       1.406   3.408  18.040  0.00  0.00    +0.000 HD
ENDBRANCH  28  32
ENDBRANCH  22  27
ENDBRANCH   1  22
TORSDOF 6
ENDMDL
MODEL 7
REMARK VINA RESULT:      -8.0      5.354     11.007
REMARK  Name = 
REMARK  7 active torsions:
REMARK  status: ('A' for Active; 'I' for Inactive)
REMARK    1  A    between atoms: C_1  and  O_2
REMARK    2  A    between atoms: O_2  and  C_3
REMARK    3  A    between atoms: C_6  and  C_7
REMARK    4  A    between atoms: C_7  and  C_9
REMARK    5  A    between atoms: C_12  and  N_13
REMARK    6  A    between atoms: C_25  and  N_26
REMARK    7  A    between atoms: C_28  and  O_29
REMARK                            x       y       z     vdW  Elec       q    Type
REMARK                         _______ _______ _______ _____ _____    ______ ____
ROOT
ATOM      1  C   UNL     1      -0.834  11.969  20.640  0.00  0.00    +0.000 A 
ATOM      2  C   UNL     1       0.230  11.457  21.334  0.00  0.00    +0.000 A 
ATOM      3  C   UNL     1       1.005  10.472  20.758  0.00  0.00    +0.000 A 
ATOM      4  C   UNL     1       0.788   9.841  19.490  0.00  0.00    +0.000 A 
ATOM      5  C   UNL     1      -0.361  10.330  18.805  0.00  0.00    +0.000 A 
ATOM      6  C   UNL     1      -1.121  11.423  19.374  0.00  0.00    +0.000 A 
ENDROOT
BRANCH   4   7
ATOM      7  N   UNL     1       1.670   8.795  19.109  0.00  0.00    +0.000 N 
ATOM      8  C   UNL     1       1.774   7.799  20.175  0.00  0.00    +0.000 C 
ATOM      9  C   UNL     1       2.492   6.504  19.861  0.00  0.00    +0.000 C 
ATOM     10  N   UNL     1       3.142   6.052  18.619  0.00  0.00    +0.000 N 
ATOM     11  C   UNL     1       2.591   4.750  18.426  0.00  0.00    +0.000 A 
ATOM     12  C   UNL     1       3.347   3.685  17.980  0.00  0.00    +0.000 A 
ATOM     13  C   UNL     1       2.860   2.369  18.173  0.00  0.00    +0.000 A 
ATOM     14  C   UNL     1       1.647   2.142  18.824  0.00  0.00    +0.000 A 
ATOM     15  C   UNL     1       0.945   3.229  19.232  0.00  0.00    +0.000 A 
ATOM     16  N   UNL     1       1.382   4.480  19.019  0.00  0.00    +0.000 NA
ATOM     17  C   UNL     1       3.245   7.136  17.613  0.00  0.00    +0.000 C 
ATOM     18  C   UNL     1       2.488   8.559  17.874  0.00  0.00    +0.000 C 
ENDBRANCH   4   7
BRANCH   5  19
ATOM     19  N   UNL     1      -0.715   9.939  17.503  0.00  0.00    +0.000 N 
ATOM     20  H   UNL     1      -0.100   9.181  17.182  0.00  0.00    +0.000 HD
ATOM     21  H   UNL     1      -1.694   9.629  17.439  0.00  0.00    +0.000 HD
ENDBRANCH   5  19
BRANCH   1  22
ATOM     22  C   UNL     1      -1.524  13.089  21.325  0.00  0.00    +0.000 C 
ATOM     23  O   UNL     1      -0.963  14.178  21.367  0.00  0.00    +0.000 OA
BRANCH  22  27
ATOM     24  C   UNL     1      -5.228  12.614  23.382  0.00  0.00    +0.000 A 
ATOM     25  C   UNL     1      -4.007  12.411  24.021  0.00  0.00    +0.000 A 
ATOM     26  C   UNL     1      -2.814  12.596  23.325  0.00  0.00    +0.000 A 
ATOM     27  C   UNL     1      -2.833  12.994  21.976  0.00  0.00    +0.000 A 
ATOM     28  C   UNL     1      -4.054  13.145  21.328  0.00  0.00    +0.000 A 
ATOM     29  C   UNL     1      -5.250  12.985  22.038  0.00  0.00    +0.000 A 
BRANCH  24  31
ATOM     30  C   UNL     1      -7.574  12.282  23.518  0.00  0.00    +0.000 C 
ATOM     31  O   UNL     1      -6.321  12.399  24.176  0.00  0.00    +0.000 OA
ENDBRANCH  24  31
BRANCH  28  32
ATOM     32  O   UNL     1      -4.188  13.400  19.992  0.00  0.00    +0.000 OA
ATOM     33  H   UNL     1      -4.211  12.561  19.499  0.00  0.00    +0.000 HD
ENDBRANCH  28  32
ENDBRANCH  22  27
ENDBRANCH   1  22
TORSDOF 6
ENDMDL
MODEL 8
REMARK VINA RESULT:      -7.9      0.708      1.289
REMARK  Name = 
REMARK  7 active torsions:
REMARK  status: ('A' for Active; 'I' for Inactive)
REMARK    1  A    between atoms: C_1  and  O_2
REMARK    2  A    between atoms: O_2  and  C_3
REMARK    3  A    between atoms: C_6  and  C_7
REMARK    4  A    between atoms: C_7  and  C_9
REMARK    5  A    between atoms: C_12  and  N_13
REMARK    6  A    between atoms: C_25  and  N_26
REMARK    7  A    between atoms: C_28  and  O_29
REMARK                            x       y       z     vdW  Elec       q    Type
REMARK                         _______ _______ _______ _____ _____    ______ ____
ROOT
ATOM      1  C   UNL     1       4.393   5.819  18.472  0.00  0.00    +0.000 A 
ATOM      2  C   UNL     1       4.165   6.909  17.675  0.00  0.00    +0.000 A 
ATOM      3  C   UNL     1       3.199   7.825  18.038  0.00  0.00    +0.000 A 
ATOM      4  C   UNL     1       2.319   7.744  19.167  0.00  0.00    +0.000 A 
ATOM      5  C   UNL     1       2.516   6.572  19.952  0.00  0.00    +0.000 A 
ATOM      6  C   UNL     1       3.586   5.657  19.616  0.00  0.00    +0.000 A 
ENDROOT
BRANCH   4   7
ATOM      7  N   UNL     1       1.346   8.766  19.325  0.00  0.00    +0.000 N 
ATOM      8  C   UNL     1       1.176   9.509  18.076  0.00  0.00    +0.000 C 
ATOM      9  C   UNL     1       0.023  10.487  17.991  0.00  0.00    +0.000 C 
ATOM     10  N   UNL     1      -0.996  10.846  18.990  0.00  0.00    +0.000 N 
ATOM     11  C   UNL     1      -2.215  10.729  18.258  0.00  0.00    +0.000 A 
ATOM     12  C   UNL     1      -3.255  11.625  18.401  0.00  0.00    +0.000 A 
ATOM     13  C   UNL     1      -4.254  11.683  17.399  0.00  0.00    +0.000 A 
ATOM     14  C   UNL     1      -4.184  10.869  16.269  0.00  0.00    +0.000 A 
ATOM     15  C   UNL     1      -3.143  10.002  16.188  0.00  0.00    +0.000 A 
ATOM     16  N   UNL     1      -2.213   9.914  17.152  0.00  0.00    +0.000 NA
ATOM     17  C   UNL     1      -0.699  10.278  20.326  0.00  0.00    +0.000 C 
ATOM     18  C   UNL     1       0.521   9.206  20.497  0.00  0.00    +0.000 C 
ENDBRANCH   4   7
BRANCH   5  19
ATOM     19  N   UNL     1       1.844   6.325  21.162  0.00  0.00    +0.000 N 
ATOM     20  H   UNL     1       2.135   5.419  21.549  0.00  0.00    +0.000 HD
ATOM     21  H   UNL     1       2.014   7.061  21.860  0.00  0.00    +0.000 HD
ENDBRANCH   5  19
BRANCH   1  22
ATOM     22  C   UNL     1       5.520   4.965  18.027  0.00  0.00    +0.000 C 
ATOM     23  O   UNL     1       6.285   4.524  18.876  0.00  0.00    +0.000 OA
BRANCH  22  27
ATOM     24  C   UNL     1       6.477   4.193  13.945  0.00  0.00    +0.000 A 
ATOM     25  C   UNL     1       7.305   4.967  14.754  0.00  0.00    +0.000 A 
ATOM     26  C   UNL     1       6.974   5.182  16.091  0.00  0.00    +0.000 A 
ATOM     27  C   UNL     1       5.806   4.615  16.633  0.00  0.00    +0.000 A 
ATOM     28  C   UNL     1       4.956   3.887  15.808  0.00  0.00    +0.000 A 
ATOM     29  C   UNL     1       5.306   3.651  14.473  0.00  0.00    +0.000 A 
BRANCH  24  31
ATOM     30  C   UNL     1       6.308   3.040  11.878  0.00  0.00    +0.000 C 
ATOM     31  O   UNL     1       6.916   4.061  12.656  0.00  0.00    +0.000 OA
ENDBRANCH  24  31
BRANCH  28  32
ATOM     32  O   UNL     1       3.737   3.405  16.195  0.00  0.00    +0.000 OA
ATOM     33  H   UNL     1       3.833   2.900  17.022  0.00  0.00    +0.000 HD
ENDBRANCH  28  32
ENDBRANCH  22  27
ENDBRANCH   1  22
TORSDOF 6
ENDMDL
MODEL 9
REMARK VINA RESULT:      -7.9      2.827      4.353
REMARK  Name = 
REMARK  7 active torsions:
REMARK  status: ('A' for Active; 'I' for Inactive)
REMARK    1  A    between atoms: C_1  and  O_2
REMARK    2  A    between atoms: O_2  and  C_3
REMARK    3  A    between atoms: C_6  and  C_7
REMARK    4  A    between atoms: C_7  and  C_9
REMARK    5  A    between atoms: C_12  and  N_13
REMARK    6  A    between atoms: C_25  and  N_26
REMARK    7  A    between atoms: C_28  and  O_29
REMARK                            x       y       z     vdW  Elec       q    Type
REMARK                         _______ _______ _______ _____ _____    ______ ____
ROOT
ATOM      1  C   UNL     1       2.731   7.124  19.275  0.00  0.00    +0.000 A 
ATOM      2  C   UNL     1       2.004   7.164  20.435  0.00  0.00    +0.000 A 
ATOM      3  C   UNL     1       1.102   8.189  20.634  0.00  0.00    +0.000 A 
ATOM      4  C   UNL     1       0.863   9.304  19.767  0.00  0.00    +0.000 A 
ATOM      5  C   UNL     1       1.673   9.291  18.596  0.00  0.00    +0.000 A 
ATOM      6  C   UNL     1       2.556   8.171  18.349  0.00  0.00    +0.000 A 
ENDROOT
BRANCH   4   7
ATOM      7  N   UNL     1      -0.067  10.289  20.192  0.00  0.00    +0.000 N 
ATOM      8  C   UNL     1       0.263  10.760  21.537  0.00  0.00    +0.000 C 
ATOM      9  C   UNL     1      -0.483  11.967  22.064  0.00  0.00    +0.000 C 
ATOM     10  N   UNL     1      -1.537  12.782  21.439  0.00  0.00    +0.000 N 
ATOM     11  C   UNL     1      -1.062  14.114  21.624  0.00  0.00    +0.000 A 
ATOM     12  C   UNL     1      -1.899  15.160  21.958  0.00  0.00    +0.000 A 
ATOM     13  C   UNL     1      -1.338  16.344  22.496  0.00  0.00    +0.000 A 
ATOM     14  C   UNL     1       0.036  16.453  22.710  0.00  0.00    +0.000 A 
ATOM     15  C   UNL     1       0.809  15.396  22.354  0.00  0.00    +0.000 A 
ATOM     16  N   UNL     1       0.288  14.285  21.809  0.00  0.00    +0.000 NA
ATOM     17  C   UNL     1      -2.040  12.181  20.180  0.00  0.00    +0.000 C 
ATOM     18  C   UNL     1      -1.281  10.884  19.542  0.00  0.00    +0.000 C 
ENDBRANCH   4   7
BRANCH   5  19
ATOM     19  N   UNL     1       1.543  10.222  17.550  0.00  0.00    +0.000 N 
ATOM     20  H   UNL     1       0.893   9.866  16.839  0.00  0.00    +0.000 HD
ATOM     21  H   UNL     1       1.213  11.138  17.881  0.00  0.00    +0.000 HD
ENDBRANCH   5  19
BRANCH   1  22
ATOM     22  C   UNL     1       3.589   5.923  19.137  0.00  0.00    +0.000 C 
ATOM     23  O   UNL     1       3.364   4.961  19.862  0.00  0.00    +0.000 OA
BRANCH  22  27
ATOM     24  C   UNL     1       6.673   5.456  16.231  0.00  0.00    +0.000 A 
ATOM     25  C   UNL     1       5.364   5.754  15.863  0.00  0.00    +0.000 A 
ATOM     26  C   UNL     1       4.384   5.922  16.840  0.00  0.00    +0.000 A 
ATOM     27  C   UNL     1       4.711   5.797  18.202  0.00  0.00    +0.000 A 
ATOM     28  C   UNL     1       6.008   5.448  18.562  0.00  0.00    +0.000 A 
ATOM     29  C   UNL     1       6.995   5.307  17.579  0.00  0.00    +0.000 A 
BRANCH  24  31
ATOM     30  C   UNL     1       7.022   4.685  14.013  0.00  0.00    +0.000 C 
ATOM     31  O   UNL     1       7.535   5.317  15.177  0.00  0.00    +0.000 OA
ENDBRANCH  24  31
BRANCH  28  32
ATOM     32  O   UNL     1       6.403   5.174  19.842  0.00  0.00    +0.000 OA
ATOM     33  H   UNL     1       6.241   4.234  20.040  0.00  0.00    +0.000 HD
ENDBRANCH  28  32
ENDBRANCH  22  27
ENDBRANCH   1  22
TORSDOF 6
ENDMDL
