MODEL 1
REMARK VINA RESULT:      -7.6      0.000      0.000
REMARK  Name = 
REMARK  6 active torsions:
REMARK  status: ('A' for Active; 'I' for Inactive)
REMARK    1  A    between atoms: C_2  and  C_3
REMARK    2  A    between atoms: C_3  and  N_4
REMARK    3  A    between atoms: C_5  and  C_7
REMARK    4  A    between atoms: C_7  and  C_8
REMARK    5  A    between atoms: C_7  and  C_10
REMARK    6  A    between atoms: C_10  and  C_12
REMARK                            x       y       z     vdW  Elec       q    Type
REMARK                         _______ _______ _______ _____ _____    ______ ____
ROOT
ATOM      1  C   UNL     1       4.619   5.570  17.595  0.00  0.00    +0.000 C 
ATOM      2  O   UNL     1       4.246   6.585  17.003  0.00  0.00    +0.000 OA
ENDROOT
BRANCH   1   3
ATOM      3  C   UNL     1       3.595   4.918  18.462  0.00  0.00    +0.000 A 
ATOM      4  C   UNL     1       2.767   5.616  19.342  0.00  0.00    +0.000 A 
ATOM      5  C   UNL     1       1.796   4.914  20.065  0.00  0.00    +0.000 A 
ATOM      6  F   UNL     1       0.987   5.594  20.886  0.00  0.00    +0.000 F 
ATOM      7  C   UNL     1       1.648   3.537  19.934  0.00  0.00    +0.000 A 
ATOM      8  F   UNL     1       0.702   2.887  20.628  0.00  0.00    +0.000 F 
ATOM      9  C   UNL     1       2.483   2.843  19.080  0.00  0.00    +0.000 A 
ATOM     10  F   UNL     1       2.361   1.516  18.938  0.00  0.00    +0.000 F 
ATOM     11  C   UNL     1       3.449   3.519  18.345  0.00  0.00    +0.000 A 
ENDBRANCH   1   3
BRANCH   1  12
ATOM     12  C   UNL     1       6.030   5.012  17.441  0.00  0.00    +0.000 C 
BRANCH  12  14
ATOM     13  N   UNL     1       6.626   5.349  15.017  0.00  0.00    +0.000 N 
ATOM     14  C   UNL     1       6.808   5.691  16.335  0.00  0.00    +0.000 C 
ATOM     15  O   UNL     1       7.627   6.572  16.608  0.00  0.00    +0.000 OA
ATOM     16  H   UNL     1       7.192   5.898  14.379  0.00  0.00    +0.000 HD
BRANCH  13  17
ATOM     17  C   UNL     1       6.057   4.121  14.493  0.00  0.00    +0.000 C 
BRANCH  17  19
ATOM     18  C   UNL     1       5.758   3.180  12.213  0.00  0.00    +0.000 C 
ATOM     19  C   UNL     1       6.459   3.935  13.070  0.00  0.00    +0.000 C 
ENDBRANCH  17  19
ENDBRANCH  13  17
ENDBRANCH  12  14
BRANCH  12  20
ATOM     20  C   UNL     1       6.767   5.230  18.753  0.00  0.00    +0.000 C 
ATOM     21  N   UNL     1       7.378   5.410  19.841  0.00  0.00    +0.000 NA
ENDBRANCH  12  20
ENDBRANCH   1  12
TORSDOF 6
ENDMDL
MODEL 2
REMARK VINA RESULT:      -7.5      0.472      1.871
REMARK  Name = 
REMARK  6 active torsions:
REMARK  status: ('A' for Active; 'I' for Inactive)
REMARK    1  A    between atoms: C_2  and  C_3
REMARK    2  A    between atoms: C_3  and  N_4
REMARK    3  A    between atoms: C_5  and  C_7
REMARK    4  A    between atoms: C_7  and  C_8
REMARK    5  A    between atoms: C_7  and  C_10
REMARK    6  A    between atoms: C_10  and  C_12
REMARK                            x       y       z     vdW  Elec       q    Type
REMARK                         _______ _______ _______ _____ _____    ______ ____
ROOT
ATOM      1  C   UNL     1       4.671   5.677  17.399  0.00  0.00    +0.000 C 
ATOM      2  O   UNL     1       4.393   6.696  16.760  0.00  0.00    +0.000 OA
ENDROOT
BRANCH   1   3
ATOM      3  C   UNL     1       3.558   5.101  18.207  0.00  0.00    +0.000 A 
ATOM      4  C   UNL     1       3.084   3.798  18.055  0.00  0.00    +0.000 A 
ATOM      5  C   UNL     1       2.076   3.335  18.908  0.00  0.00    +0.000 A 
ATOM      6  F   UNL     1       1.646   2.075  18.774  0.00  0.00    +0.000 F 
ATOM      7  C   UNL     1       1.529   4.150  19.894  0.00  0.00    +0.000 A 
ATOM      8  F   UNL     1       0.573   3.681  20.709  0.00  0.00    +0.000 F 
ATOM      9  C   UNL     1       1.983   5.448  20.030  0.00  0.00    +0.000 A 
ATOM     10  F   UNL     1       1.471   6.254  20.971  0.00  0.00    +0.000 F 
ATOM     11  C   UNL     1       2.989   5.927  19.199  0.00  0.00    +0.000 A 
ENDBRANCH   1   3
BRANCH   1  12
ATOM     12  C   UNL     1       6.058   5.044  17.354  0.00  0.00    +0.000 C 
BRANCH  12  14
ATOM     13  N   UNL     1       6.953   5.295  15.013  0.00  0.00    +0.000 N 
ATOM     14  C   UNL     1       6.963   5.692  16.328  0.00  0.00    +0.000 C 
ATOM     15  O   UNL     1       7.729   6.597  16.666  0.00  0.00    +0.000 OA
ATOM     16  H   UNL     1       7.589   5.828  14.429  0.00  0.00    +0.000 HD
BRANCH  13  17
ATOM     17  C   UNL     1       6.470   4.038  14.472  0.00  0.00    +0.000 C 
BRANCH  17  19
ATOM     18  C   UNL     1       5.841   3.153  12.238  0.00  0.00    +0.000 C 
ATOM     19  C   UNL     1       6.416   4.106  12.984  0.00  0.00    +0.000 C 
ENDBRANCH  17  19
ENDBRANCH  13  17
ENDBRANCH  12  14
BRANCH  12  20
ATOM     20  C   UNL     1       6.692   5.205  18.726  0.00  0.00    +0.000 C 
ATOM     21  N   UNL     1       7.217   5.338  19.864  0.00  0.00    +0.000 NA
ENDBRANCH  12  20
ENDBRANCH   1  12
TORSDOF 6
ENDMDL
MODEL 3
REMARK VINA RESULT:      -7.4      1.560      1.901
REMARK  Name = 
REMARK  6 active torsions:
REMARK  status: ('A' for Active; 'I' for Inactive)
REMARK    1  A    between atoms: C_2  and  C_3
REMARK    2  A    between atoms: C_3  and  N_4
REMARK    3  A    between atoms: C_5  and  C_7
REMARK    4  A    between atoms: C_7  and  C_8
REMARK    5  A    between atoms: C_7  and  C_10
REMARK    6  A    between atoms: C_10  and  C_12
REMARK                            x       y       z     vdW  Elec       q    Type
REMARK                         _______ _______ _______ _____ _____    ______ ____
ROOT
ATOM      1  C   UNL     1       5.238   5.636  16.149  0.00  0.00    +0.000 C 
ATOM      2  O   UNL     1       5.233   6.742  15.604  0.00  0.00    +0.000 OA
ENDROOT
BRANCH   1   3
ATOM      3  C   UNL     1       4.203   5.433  17.203  0.00  0.00    +0.000 A 
ATOM      4  C   UNL     1       3.827   6.417  18.119  0.00  0.00    +0.000 A 
ATOM      5  C   UNL     1       2.800   6.143  19.029  0.00  0.00    +0.000 A 
ATOM      6  F   UNL     1       2.427   7.101  19.887  0.00  0.00    +0.000 F 
ATOM      7  C   UNL     1       2.155   4.911  19.048  0.00  0.00    +0.000 A 
ATOM      8  F   UNL     1       1.165   4.676  19.921  0.00  0.00    +0.000 F 
ATOM      9  C   UNL     1       2.542   3.929  18.156  0.00  0.00    +0.000 A 
ATOM     10  F   UNL     1       1.938   2.733  18.155  0.00  0.00    +0.000 F 
ATOM     11  C   UNL     1       3.555   4.180  17.237  0.00  0.00    +0.000 A 
ENDBRANCH   1   3
BRANCH   1  12
ATOM     12  C   UNL     1       6.230   4.544  15.761  0.00  0.00    +0.000 C 
BRANCH  12  14
ATOM     13  N   UNL     1       6.458   4.357  13.260  0.00  0.00    +0.000 N 
ATOM     14  C   UNL     1       6.937   4.834  14.455  0.00  0.00    +0.000 C 
ATOM     15  O   UNL     1       7.965   5.514  14.450  0.00  0.00    +0.000 OA
ATOM     16  H   UNL     1       7.014   4.646  12.462  0.00  0.00    +0.000 HD
BRANCH  13  17
ATOM     17  C   UNL     1       5.548   3.245  13.052  0.00  0.00    +0.000 C 
BRANCH  17  19
ATOM     18  C   UNL     1       3.965   3.225  11.138  0.00  0.00    +0.000 C 
ATOM     19  C   UNL     1       5.216   3.117  11.605  0.00  0.00    +0.000 C 
ENDBRANCH  17  19
ENDBRANCH  13  17
ENDBRANCH  12  14
BRANCH  12  20
ATOM     20  C   UNL     1       7.272   4.443  16.863  0.00  0.00    +0.000 C 
ATOM     21  N   UNL     1       8.136   4.361  17.777  0.00  0.00    +0.000 NA
ENDBRANCH  12  20
ENDBRANCH   1  12
TORSDOF 6
ENDMDL
MODEL 4
REMARK VINA RESULT:      -7.4      1.603      2.627
REMARK  Name = 
REMARK  6 active torsions:
REMARK  status: ('A' for Active; 'I' for Inactive)
REMARK    1  A    between atoms: C_2  and  C_3
REMARK    2  A    between atoms: C_3  and  N_4
REMARK    3  A    between atoms: C_5  and  C_7
REMARK    4  A    between atoms: C_7  and  C_8
REMARK    5  A    between atoms: C_7  and  C_10
REMARK    6  A    between atoms: C_10  and  C_12
REMARK                            x       y       z     vdW  Elec       q    Type
REMARK                         _______ _______ _______ _____ _____    ______ ____
ROOT
ATOM      1  C   UNL     1       5.223   5.391  15.948  0.00  0.00    +0.000 C 
ATOM      2  O   UNL     1       5.179   6.546  15.518  0.00  0.00    +0.000 OA
ENDROOT
BRANCH   1   3
ATOM      3  C   UNL     1       4.118   5.006  16.872  0.00  0.00    +0.000 A 
ATOM      4  C   UNL     1       3.551   3.731  16.914  0.00  0.00    +0.000 A 
ATOM      5  C   UNL     1       2.560   3.457  17.863  0.00  0.00    +0.000 A 
ATOM      6  F   UNL     1       2.041   2.224  17.914  0.00  0.00    +0.000 F 
ATOM      7  C   UNL     1       2.120   4.429  18.755  0.00  0.00    +0.000 A 
ATOM      8  F   UNL     1       1.177   4.139  19.664  0.00  0.00    +0.000 F 
ATOM      9  C   UNL     1       2.665   5.697  18.699  0.00  0.00    +0.000 A 
ATOM     10  F   UNL     1       2.256   6.652  19.546  0.00  0.00    +0.000 F 
ATOM     11  C   UNL     1       3.657   5.991  17.770  0.00  0.00    +0.000 A 
ENDBRANCH   1   3
BRANCH   1  12
ATOM     12  C   UNL     1       6.330   4.419  15.552  0.00  0.00    +0.000 C 
BRANCH  12  14
ATOM     13  N   UNL     1       6.730   4.397  13.065  0.00  0.00    +0.000 N 
ATOM     14  C   UNL     1       7.077   4.859  14.311  0.00  0.00    +0.000 C 
ATOM     15  O   UNL     1       8.017   5.649  14.407  0.00  0.00    +0.000 OA
ATOM     16  H   UNL     1       7.296   4.790  12.321  0.00  0.00    +0.000 HD
BRANCH  13  17
ATOM     17  C   UNL     1       5.970   3.203  12.744  0.00  0.00    +0.000 C 
BRANCH  17  19
ATOM     18  C   UNL     1       4.138   3.142  11.068  0.00  0.00    +0.000 C 
ATOM     19  C   UNL     1       4.617   3.574  12.242  0.00  0.00    +0.000 C 
ENDBRANCH  17  19
ENDBRANCH  13  17
ENDBRANCH  12  14
BRANCH  12  20
ATOM     20  C   UNL     1       7.316   4.334  16.705  0.00  0.00    +0.000 C 
ATOM     21  N   UNL     1       8.134   4.263  17.662  0.00  0.00    +0.000 NA
ENDBRANCH  12  20
ENDBRANCH   1  12
TORSDOF 6
ENDMDL
MODEL 5
REMARK VINA RESULT:      -7.3      1.007      1.708
REMARK  Name = 
REMARK  6 active torsions:
REMARK  status: ('A' for Active; 'I' for Inactive)
REMARK    1  A    between atoms: C_2  and  C_3
REMARK    2  A    between atoms: C_3  and  N_4
REMARK    3  A    between atoms: C_5  and  C_7
REMARK    4  A    between atoms: C_7  and  C_8
REMARK    5  A    between atoms: C_7  and  C_10
REMARK    6  A    between atoms: C_10  and  C_12
REMARK                            x       y       z     vdW  Elec       q    Type
REMARK                         _______ _______ _______ _____ _____    ______ ____
ROOT
ATOM      1  C   UNL     1       4.084   5.707  17.807  0.00  0.00    +0.000 C 
ATOM      2  O   UNL     1       3.692   6.812  17.424  0.00  0.00    +0.000 OA
ENDROOT
BRANCH   1   3
ATOM      3  C   UNL     1       3.105   4.917  18.606  0.00  0.00    +0.000 A 
ATOM      4  C   UNL     1       2.155   4.062  18.045  0.00  0.00    +0.000 A 
ATOM      5  C   UNL     1       1.323   3.319  18.889  0.00  0.00    +0.000 A 
ATOM      6  F   UNL     1       0.434   2.481  18.343  0.00  0.00    +0.000 F 
ATOM      7  C   UNL     1       1.413   3.424  20.273  0.00  0.00    +0.000 A 
ATOM      8  F   UNL     1       0.613   2.692  21.063  0.00  0.00    +0.000 F 
ATOM      9  C   UNL     1       2.338   4.287  20.829  0.00  0.00    +0.000 A 
ATOM     10  F   UNL     1       2.444   4.406  22.160  0.00  0.00    +0.000 F 
ATOM     11  C   UNL     1       3.181   5.029  20.011  0.00  0.00    +0.000 A 
ENDBRANCH   1   3
BRANCH   1  12
ATOM     12  C   UNL     1       5.477   5.180  17.473  0.00  0.00    +0.000 C 
BRANCH  12  14
ATOM     13  N   UNL     1       6.013   5.558  15.041  0.00  0.00    +0.000 N 
ATOM     14  C   UNL     1       6.139   5.950  16.352  0.00  0.00    +0.000 C 
ATOM     15  O   UNL     1       6.809   6.954  16.605  0.00  0.00    +0.000 OA
ATOM     16  H   UNL     1       6.486   6.176  14.391  0.00  0.00    +0.000 HD
BRANCH  13  17
ATOM     17  C   UNL     1       5.644   4.246  14.543  0.00  0.00    +0.000 C 
BRANCH  17  19
ATOM     18  C   UNL     1       5.800   3.269  12.264  0.00  0.00    +0.000 C 
ATOM     19  C   UNL     1       6.358   3.963  13.266  0.00  0.00    +0.000 C 
ENDBRANCH  17  19
ENDBRANCH  13  17
ENDBRANCH  12  14
BRANCH  12  20
ATOM     20  C   UNL     1       6.337   5.306  18.720  0.00  0.00    +0.000 C 
ATOM     21  N   UNL     1       7.050   5.411  19.754  0.00  0.00    +0.000 NA
ENDBRANCH  12  20
ENDBRANCH   1  12
TORSDOF 6
ENDMDL
MODEL 6
REMARK VINA RESULT:      -7.3      1.359      1.667
REMARK  Name = 
REMARK  6 active torsions:
REMARK  status: ('A' for Active; 'I' for Inactive)
REMARK    1  A    between atoms: C_2  and  C_3
REMARK    2  A    between atoms: C_3  and  N_4
REMARK    3  A    between atoms: C_5  and  C_7
REMARK    4  A    between atoms: C_7  and  C_8
REMARK    5  A    between atoms: C_7  and  C_10
REMARK    6  A    between atoms: C_10  and  C_12
REMARK                            x       y       z     vdW  Elec       q    Type
REMARK                         _______ _______ _______ _____ _____    ______ ____
ROOT
ATOM      1  C   UNL     1       4.961   4.928  17.306  0.00  0.00    +0.000 C 
ATOM      2  O   UNL     1       4.386   5.889  16.789  0.00  0.00    +0.000 OA
ENDROOT
BRANCH   1   3
ATOM      3  C   UNL     1       4.112   4.060  18.172  0.00  0.00    +0.000 A 
ATOM      4  C   UNL     1       4.580   3.408  19.313  0.00  0.00    +0.000 A 
ATOM      5  C   UNL     1       3.684   2.667  20.091  0.00  0.00    +0.000 A 
ATOM      6  F   UNL     1       4.136   2.067  21.199  0.00  0.00    +0.000 F 
ATOM      7  C   UNL     1       2.341   2.556  19.744  0.00  0.00    +0.000 A 
ATOM      8  F   UNL     1       1.498   1.850  20.512  0.00  0.00    +0.000 F 
ATOM      9  C   UNL     1       1.882   3.183  18.602  0.00  0.00    +0.000 A 
ATOM     10  F   UNL     1       0.593   3.090  18.246  0.00  0.00    +0.000 F 
ATOM     11  C   UNL     1       2.752   3.932  17.818  0.00  0.00    +0.000 A 
ENDBRANCH   1   3
BRANCH   1  12
ATOM     12  C   UNL     1       6.440   4.642  17.067  0.00  0.00    +0.000 C 
BRANCH  12  14
ATOM     13  N   UNL     1       6.697   5.042  14.593  0.00  0.00    +0.000 N 
ATOM     14  C   UNL     1       6.998   5.403  15.884  0.00  0.00    +0.000 C 
ATOM     15  O   UNL     1       7.739   6.371  16.068  0.00  0.00    +0.000 OA
ATOM     16  H   UNL     1       7.116   5.650  13.899  0.00  0.00    +0.000 HD
BRANCH  13  17
ATOM     17  C   UNL     1       6.210   3.757  14.125  0.00  0.00    +0.000 C 
BRANCH  17  19
ATOM     18  C   UNL     1       5.311   3.131  11.896  0.00  0.00    +0.000 C 
ATOM     19  C   UNL     1       6.274   3.694  12.638  0.00  0.00    +0.000 C 
ENDBRANCH  17  19
ENDBRANCH  13  17
ENDBRANCH  12  14
BRANCH  12  20
ATOM     20  C   UNL     1       7.206   5.056  18.312  0.00  0.00    +0.000 C 
ATOM     21  N   UNL     1       7.841   5.400  19.345  0.00  0.00    +0.000 NA
ENDBRANCH  12  20
ENDBRANCH   1  12
TORSDOF 6
ENDMDL
MODEL 7
REMARK VINA RESULT:      -7.2      1.596      1.979
REMARK  Name = 
REMARK  6 active torsions:
REMARK  status: ('A' for Active; 'I' for Inactive)
REMARK    1  A    between atoms: C_2  and  C_3
REMARK    2  A    between atoms: C_3  and  N_4
REMARK    3  A    between atoms: C_5  and  C_7
REMARK    4  A    between atoms: C_7  and  C_8
REMARK    5  A    between atoms: C_7  and  C_10
REMARK    6  A    between atoms: C_10  and  C_12
REMARK                            x       y       z     vdW  Elec       q    Type
REMARK                         _______ _______ _______ _____ _____    ______ ____
ROOT
ATOM      1  C   UNL     1       6.349   4.804  17.730  0.00  0.00    +0.000 C 
ATOM      2  O   UNL     1       7.131   4.297  18.538  0.00  0.00    +0.000 OA
ENDROOT
BRANCH   1   3
ATOM      3  C   UNL     1       4.901   4.604  18.023  0.00  0.00    +0.000 A 
ATOM      4  C   UNL     1       4.107   5.542  18.684  0.00  0.00    +0.000 A 
ATOM      5  C   UNL     1       2.742   5.281  18.853  0.00  0.00    +0.000 A 
ATOM      6  F   UNL     1       1.982   6.198  19.464  0.00  0.00    +0.000 F 
ATOM      7  C   UNL     1       2.165   4.103  18.389  0.00  0.00    +0.000 A 
ATOM      8  F   UNL     1       0.852   3.881  18.552  0.00  0.00    +0.000 F 
ATOM      9  C   UNL     1       2.955   3.165  17.755  0.00  0.00    +0.000 A 
ATOM     10  F   UNL     1       2.423   2.022  17.300  0.00  0.00    +0.000 F 
ATOM     11  C   UNL     1       4.312   3.405  17.567  0.00  0.00    +0.000 A 
ENDBRANCH   1   3
BRANCH   1  12
ATOM     12  C   UNL     1       6.833   5.593  16.518  0.00  0.00    +0.000 C 
BRANCH  12  14
ATOM     13  N   UNL     1       5.469   4.839  14.539  0.00  0.00    +0.000 N 
ATOM     14  C   UNL     1       5.749   5.797  15.482  0.00  0.00    +0.000 C 
ATOM     15  O   UNL     1       5.093   6.841  15.475  0.00  0.00    +0.000 OA
ATOM     16  H   UNL     1       4.705   5.094  13.924  0.00  0.00    +0.000 HD
BRANCH  13  17
ATOM     17  C   UNL     1       6.330   3.757  14.096  0.00  0.00    +0.000 C 
BRANCH  17  19
ATOM     18  C   UNL     1       5.114   3.260  11.988  0.00  0.00    +0.000 C 
ATOM     19  C   UNL     1       6.246   3.607  12.616  0.00  0.00    +0.000 C 
ENDBRANCH  17  19
ENDBRANCH  13  17
ENDBRANCH  12  14
BRANCH  12  20
ATOM     20  C   UNL     1       7.302   6.956  17.001  0.00  0.00    +0.000 C 
ATOM     21  N   UNL     1       7.691   8.086  17.403  0.00  0.00    +0.000 NA
ENDBRANCH  12  20
ENDBRANCH   1  12
TORSDOF 6
ENDMDL
MODEL 8
REMARK VINA RESULT:      -7.1      0.883      1.028
REMARK  Name = 
REMARK  6 active torsions:
REMARK  status: ('A' for Active; 'I' for Inactive)
REMARK    1  A    between atoms: C_2  and  C_3
REMARK    2  A    between atoms: C_3  and  N_4
REMARK    3  A    between atoms: C_5  and  C_7
REMARK    4  A    between atoms: C_7  and  C_8
REMARK    5  A    between atoms: C_7  and  C_10
REMARK    6  A    between atoms: C_10  and  C_12
REMARK                            x       y       z     vdW  Elec       q    Type
REMARK                         _______ _______ _______ _____ _____    ______ ____
ROOT
ATOM      1  C   UNL     1       4.995   5.249  17.473  0.00  0.00    +0.000 C 
ATOM      2  O   UNL     1       4.542   6.343  17.129  0.00  0.00    +0.000 OA
ENDROOT
BRANCH   1   3
ATOM      3  C   UNL     1       4.018   4.319  18.109  0.00  0.00    +0.000 A 
ATOM      4  C   UNL     1       2.854   4.740  18.754  0.00  0.00    +0.000 A 
ATOM      5  C   UNL     1       1.973   3.780  19.264  0.00  0.00    +0.000 A 
ATOM      6  F   UNL     1       0.846   4.192  19.857  0.00  0.00    +0.000 F 
ATOM      7  C   UNL     1       2.237   2.419  19.152  0.00  0.00    +0.000 A 
ATOM      8  F   UNL     1       1.371   1.517  19.637  0.00  0.00    +0.000 F 
ATOM      9  C   UNL     1       3.400   2.003  18.532  0.00  0.00    +0.000 A 
ATOM     10  F   UNL     1       3.678   0.697  18.413  0.00  0.00    +0.000 F 
ATOM     11  C   UNL     1       4.287   2.937  18.011  0.00  0.00    +0.000 A 
ENDBRANCH   1   3
BRANCH   1  12
ATOM     12  C   UNL     1       6.455   4.869  17.251  0.00  0.00    +0.000 C 
BRANCH  12  14
ATOM     13  N   UNL     1       6.876   5.181  14.787  0.00  0.00    +0.000 N 
ATOM     14  C   UNL     1       7.077   5.598  16.080  0.00  0.00    +0.000 C 
ATOM     15  O   UNL     1       7.781   6.592  16.276  0.00  0.00    +0.000 OA
ATOM     16  H   UNL     1       7.329   5.773  14.100  0.00  0.00    +0.000 HD
BRANCH  13  17
ATOM     17  C   UNL     1       6.454   3.867  14.338  0.00  0.00    +0.000 C 
BRANCH  17  19
ATOM     18  C   UNL     1       5.549   3.380  12.076  0.00  0.00    +0.000 C 
ATOM     19  C   UNL     1       5.432   3.995  13.261  0.00  0.00    +0.000 C 
ENDBRANCH  17  19
ENDBRANCH  13  17
ENDBRANCH  12  14
BRANCH  12  20
ATOM     20  C   UNL     1       7.230   5.226  18.509  0.00  0.00    +0.000 C 
ATOM     21  N   UNL     1       7.872   5.522  19.552  0.00  0.00    +0.000 NA
ENDBRANCH  12  20
ENDBRANCH   1  12
TORSDOF 6
ENDMDL
MODEL 9
REMARK VINA RESULT:      -7.1      1.505      1.789
REMARK  Name = 
REMARK  6 active torsions:
REMARK  status: ('A' for Active; 'I' for Inactive)
REMARK    1  A    between atoms: C_2  and  C_3
REMARK    2  A    between atoms: C_3  and  N_4
REMARK    3  A    between atoms: C_5  and  C_7
REMARK    4  A    between atoms: C_7  and  C_8
REMARK    5  A    between atoms: C_7  and  C_10
REMARK    6  A    between atoms: C_10  and  C_12
REMARK                            x       y       z     vdW  Elec       q    Type
REMARK                         _______ _______ _______ _____ _____    ______ ____
ROOT
ATOM      1  C   UNL     1       6.149   5.329  18.871  0.00  0.00    +0.000 C 
ATOM      2  O   UNL     1       6.920   5.469  19.823  0.00  0.00    +0.000 OA
ENDROOT
BRANCH   1   3
ATOM      3  C   UNL     1       4.805   4.777  19.207  0.00  0.00    +0.000 A 
ATOM      4  C   UNL     1       3.759   5.544  19.723  0.00  0.00    +0.000 A 
ATOM      5  C   UNL     1       2.517   4.939  19.946  0.00  0.00    +0.000 A 
ATOM      6  F   UNL     1       1.512   5.688  20.415  0.00  0.00    +0.000 F 
ATOM      7  C   UNL     1       2.307   3.591  19.676  0.00  0.00    +0.000 A 
ATOM      8  F   UNL     1       1.104   3.036  19.886  0.00  0.00    +0.000 F 
ATOM      9  C   UNL     1       3.348   2.826  19.187  0.00  0.00    +0.000 A 
ATOM     10  F   UNL     1       3.171   1.525  18.921  0.00  0.00    +0.000 F 
ATOM     11  C   UNL     1       4.589   3.406  18.949  0.00  0.00    +0.000 A 
ENDBRANCH   1   3
BRANCH   1  12
ATOM     12  C   UNL     1       6.542   5.705  17.445  0.00  0.00    +0.000 C 
BRANCH  12  14
ATOM     13  N   UNL     1       5.039   4.798  15.639  0.00  0.00    +0.000 N 
ATOM     14  C   UNL     1       5.349   5.806  16.519  0.00  0.00    +0.000 C 
ATOM     15  O   UNL     1       4.632   6.809  16.544  0.00  0.00    +0.000 OA
ATOM     16  H   UNL     1       4.203   4.984  15.096  0.00  0.00    +0.000 HD
BRANCH  13  17
ATOM     17  C   UNL     1       5.917   3.753  15.146  0.00  0.00    +0.000 C 
BRANCH  17  19
ATOM     18  C   UNL     1       6.088   3.494  12.681  0.00  0.00    +0.000 C 
ATOM     19  C   UNL     1       6.454   4.123  13.806  0.00  0.00    +0.000 C 
ENDBRANCH  17  19
ENDBRANCH  13  17
ENDBRANCH  12  14
BRANCH  12  20
ATOM     20  C   UNL     1       7.234   7.057  17.491  0.00  0.00    +0.000 C 
ATOM     21  N   UNL     1       7.809   8.178  17.528  0.00  0.00    +0.000 NA
ENDBRANCH  12  20
ENDBRANCH   1  12
TORSDOF 6
ENDMDL
