MODEL 1
REMARK VINA RESULT:      -8.3      0.000      0.000
REMARK  Name = 
REMARK  5 active torsions:
REMARK  status: ('A' for Active; 'I' for Inactive)
REMARK    1  A    between atoms: C_2  and  C_5
REMARK    2  A    between atoms: N_3  and  O_4
REMARK    3  A    between atoms: N_7  and  C_8
REMARK    4  A    between atoms: C_8  and  C_9
REMARK    5  A    between atoms: C_19  and  N_20
REMARK                            x       y       z     vdW  Elec       q    Type
REMARK                         _______ _______ _______ _____ _____    ______ ____
ROOT
ATOM      1  C   UNL     1       3.762   4.099  19.353  0.00  0.00    +0.000 A 
ATOM      2  C   UNL     1       4.212   4.813  18.310  0.00  0.00    +0.000 A 
ATOM      3  N   UNL     1       3.843   6.109  17.962  0.00  0.00    +0.000 N 
ATOM      4  C   UNL     1       2.930   6.801  18.789  0.00  0.00    +0.000 A 
ATOM      5  C   UNL     1       2.466   8.101  18.525  0.00  0.00    +0.000 A 
ATOM      6  C   UNL     1       1.556   8.749  19.370  0.00  0.00    +0.000 A 
ATOM      7  C   UNL     1       1.106   8.110  20.525  0.00  0.00    +0.000 A 
ATOM      8  C   UNL     1       1.536   6.821  20.828  0.00  0.00    +0.000 A 
ATOM      9  C   UNL     1       2.426   6.172  19.953  0.00  0.00    +0.000 A 
ATOM     10  C   UNL     1       2.801   4.769  20.255  0.00  0.00    +0.000 A 
ATOM     11  O   UNL     1       2.311   4.180  21.214  0.00  0.00    +0.000 OA
ENDROOT
BRANCH   1  13
ATOM     12  O   UNL     1       4.830   2.278  20.467  0.00  0.00    +0.000 OA
ATOM     13  C   UNL     1       4.190   2.681  19.495  0.00  0.00    +0.000 C 
ATOM     14  N   UNL     1       3.863   1.856  18.456  0.00  0.00    +0.000 N 
ATOM     15  H   UNL     1       3.350   2.156  17.624  0.00  0.00    +0.000 HD
BRANCH  14  16
ATOM     16  O   UNL     1       4.358   0.536  18.492  0.00  0.00    +0.000 OA
ATOM     17  H   UNL     1       5.192   0.611  17.978  0.00  0.00    +0.000 HD
ENDBRANCH  14  16
ENDBRANCH   1  13
BRANCH   7  18
ATOM     18  N   UNL     1       0.166   8.803  21.418  0.00  0.00    +0.000 N 
ATOM     19  O   UNL     1      -0.778   8.153  21.874  0.00  0.00    +0.000 OA
ATOM     20  O   UNL     1       0.384  10.002  21.657  0.00  0.00    +0.000 OA
ENDBRANCH   7  18
BRANCH   3  21
ATOM     21  C   UNL     1       4.342   6.730  16.708  0.00  0.00    +0.000 C 
BRANCH  21  22
ATOM     22  C   UNL     1       5.329   5.832  15.992  0.00  0.00    +0.000 A 
ATOM     23  C   UNL     1       6.667   5.762  16.416  0.00  0.00    +0.000 A 
ATOM     24  C   UNL     1       7.611   5.037  15.689  0.00  0.00    +0.000 A 
ATOM     25  C   UNL     1       7.228   4.352  14.537  0.00  0.00    +0.000 A 
ATOM     26  C   UNL     1       5.893   4.361  14.144  0.00  0.00    +0.000 A 
ATOM     27 CL   UNL     1       5.413   3.503  12.732  0.00  0.00    +0.000 Cl
ATOM     28  C   UNL     1       4.943   5.082  14.870  0.00  0.00    +0.000 A 
ENDBRANCH  21  22
ENDBRANCH   3  21
TORSDOF 5
ENDMDL
MODEL 2
REMARK VINA RESULT:      -8.3      3.867      5.551
REMARK  Name = 
REMARK  5 active torsions:
REMARK  status: ('A' for Active; 'I' for Inactive)
REMARK    1  A    between atoms: C_2  and  C_5
REMARK    2  A    between atoms: N_3  and  O_4
REMARK    3  A    between atoms: N_7  and  C_8
REMARK    4  A    between atoms: C_8  and  C_9
REMARK    5  A    between atoms: C_19  and  N_20
REMARK                            x       y       z     vdW  Elec       q    Type
REMARK                         _______ _______ _______ _____ _____    ______ ____
ROOT
ATOM      1  C   UNL     1       5.718   5.043  15.746  0.00  0.00    +0.000 A 
ATOM      2  C   UNL     1       5.548   4.171  16.753  0.00  0.00    +0.000 A 
ATOM      3  N   UNL     1       4.797   4.364  17.909  0.00  0.00    +0.000 N 
ATOM      4  C   UNL     1       4.089   5.578  18.064  0.00  0.00    +0.000 A 
ATOM      5  C   UNL     1       3.320   5.894  19.197  0.00  0.00    +0.000 A 
ATOM      6  C   UNL     1       2.637   7.111  19.313  0.00  0.00    +0.000 A 
ATOM      7  C   UNL     1       2.688   8.037  18.271  0.00  0.00    +0.000 A 
ATOM      8  C   UNL     1       3.438   7.769  17.130  0.00  0.00    +0.000 A 
ATOM      9  C   UNL     1       4.144   6.556  17.042  0.00  0.00    +0.000 A 
ATOM     10  C   UNL     1       5.002   6.332  15.853  0.00  0.00    +0.000 A 
ATOM     11  O   UNL     1       5.127   7.202  14.996  0.00  0.00    +0.000 OA
ENDROOT
BRANCH   1  13
ATOM     12  O   UNL     1       7.706   5.309  14.454  0.00  0.00    +0.000 OA
ATOM     13  C   UNL     1       6.654   4.697  14.644  0.00  0.00    +0.000 C 
ATOM     14  N   UNL     1       6.256   3.679  13.824  0.00  0.00    +0.000 N 
ATOM     15  H   UNL     1       5.382   3.160  13.936  0.00  0.00    +0.000 HD
BRANCH  14  16
ATOM     16  O   UNL     1       7.053   3.403  12.693  0.00  0.00    +0.000 OA
ATOM     17  H   UNL     1       7.923   3.777  12.953  0.00  0.00    +0.000 HD
ENDBRANCH  14  16
ENDBRANCH   1  13
BRANCH   7  18
ATOM     18  N   UNL     1       1.953   9.305  18.391  0.00  0.00    +0.000 N 
ATOM     19  O   UNL     1       1.262   9.474  19.399  0.00  0.00    +0.000 OA
ATOM     20  O   UNL     1       2.077  10.126  17.467  0.00  0.00    +0.000 OA
ENDBRANCH   7  18
BRANCH   3  21
ATOM     21  C   UNL     1       4.797   3.349  18.992  0.00  0.00    +0.000 C 
BRANCH  21  22
ATOM     22  C   UNL     1       3.398   2.857  19.299  0.00  0.00    +0.000 A 
ATOM     23  C   UNL     1       2.527   2.491  18.260  0.00  0.00    +0.000 A 
ATOM     24  C   UNL     1       1.198   2.157  18.524  0.00  0.00    +0.000 A 
ATOM     25  C   UNL     1       0.725   2.163  19.835  0.00  0.00    +0.000 A 
ATOM     26  C   UNL     1       1.596   2.461  20.879  0.00  0.00    +0.000 A 
ATOM     27 CL   UNL     1       1.020   2.454  22.501  0.00  0.00    +0.000 Cl
ATOM     28  C   UNL     1       2.927   2.793  20.620  0.00  0.00    +0.000 A 
ENDBRANCH  21  22
ENDBRANCH   3  21
TORSDOF 5
ENDMDL
MODEL 3
REMARK VINA RESULT:      -8.2      3.608      6.112
REMARK  Name = 
REMARK  5 active torsions:
REMARK  status: ('A' for Active; 'I' for Inactive)
REMARK    1  A    between atoms: C_2  and  C_5
REMARK    2  A    between atoms: N_3  and  O_4
REMARK    3  A    between atoms: N_7  and  C_8
REMARK    4  A    between atoms: C_8  and  C_9
REMARK    5  A    between atoms: C_19  and  N_20
REMARK                            x       y       z     vdW  Elec       q    Type
REMARK                         _______ _______ _______ _____ _____    ______ ____
ROOT
ATOM      1  C   UNL     1       5.155   6.283  17.638  0.00  0.00    +0.000 A 
ATOM      2  C   UNL     1       4.073   7.055  17.451  0.00  0.00    +0.000 A 
ATOM      3  N   UNL     1       2.823   6.902  18.044  0.00  0.00    +0.000 N 
ATOM      4  C   UNL     1       2.640   5.860  18.982  0.00  0.00    +0.000 A 
ATOM      5  C   UNL     1       1.419   5.594  19.624  0.00  0.00    +0.000 A 
ATOM      6  C   UNL     1       1.278   4.546  20.545  0.00  0.00    +0.000 A 
ATOM      7  C   UNL     1       2.380   3.751  20.864  0.00  0.00    +0.000 A 
ATOM      8  C   UNL     1       3.609   3.976  20.251  0.00  0.00    +0.000 A 
ATOM      9  C   UNL     1       3.726   5.011  19.306  0.00  0.00    +0.000 A 
ATOM     10  C   UNL     1       5.024   5.174  18.607  0.00  0.00    +0.000 A 
ATOM     11  O   UNL     1       5.951   4.397  18.815  0.00  0.00    +0.000 OA
ENDROOT
BRANCH   1  13
ATOM     12  O   UNL     1       7.023   7.580  16.915  0.00  0.00    +0.000 OA
ATOM     13  C   UNL     1       6.372   6.539  16.822  0.00  0.00    +0.000 C 
ATOM     14  N   UNL     1       6.704   5.560  15.929  0.00  0.00    +0.000 N 
ATOM     15  H   UNL     1       6.179   4.691  15.808  0.00  0.00    +0.000 HD
BRANCH  14  16
ATOM     16  O   UNL     1       7.776   5.817  15.049  0.00  0.00    +0.000 OA
ATOM     17  H   UNL     1       8.260   6.536  15.512  0.00  0.00    +0.000 HD
ENDBRANCH  14  16
ENDBRANCH   1  13
BRANCH   7  18
ATOM     18  N   UNL     1       2.231   2.667  21.845  0.00  0.00    +0.000 N 
ATOM     19  O   UNL     1       1.124   2.515  22.368  0.00  0.00    +0.000 OA
ATOM     20  O   UNL     1       3.231   1.970  22.082  0.00  0.00    +0.000 OA
ENDBRANCH   7  18
BRANCH   3  21
ATOM     21  C   UNL     1       1.684   7.768  17.650  0.00  0.00    +0.000 C 
BRANCH  21  22
ATOM     22  C   UNL     1       1.624   9.030  18.484  0.00  0.00    +0.000 A 
ATOM     23  C   UNL     1       1.095   9.000  19.786  0.00  0.00    +0.000 A 
ATOM     24  C   UNL     1       0.920  10.177  20.514  0.00  0.00    +0.000 A 
ATOM     25  C   UNL     1       1.291  11.401  19.961  0.00  0.00    +0.000 A 
ATOM     26  C   UNL     1       1.876  11.436  18.699  0.00  0.00    +0.000 A 
ATOM     27 CL   UNL     1       2.351  12.944  18.019  0.00  0.00    +0.000 Cl
ATOM     28  C   UNL     1       2.057  10.261  17.967  0.00  0.00    +0.000 A 
ENDBRANCH  21  22
ENDBRANCH   3  21
TORSDOF 5
ENDMDL
MODEL 4
REMARK VINA RESULT:      -8.1      0.929      1.054
REMARK  Name = 
REMARK  5 active torsions:
REMARK  status: ('A' for Active; 'I' for Inactive)
REMARK    1  A    between atoms: C_2  and  C_5
REMARK    2  A    between atoms: N_3  and  O_4
REMARK    3  A    between atoms: N_7  and  C_8
REMARK    4  A    between atoms: C_8  and  C_9
REMARK    5  A    between atoms: C_19  and  N_20
REMARK                            x       y       z     vdW  Elec       q    Type
REMARK                         _______ _______ _______ _____ _____    ______ ____
ROOT
ATOM      1  C   UNL     1       3.361   4.571  19.379  0.00  0.00    +0.000 A 
ATOM      2  C   UNL     1       3.869   5.136  18.272  0.00  0.00    +0.000 A 
ATOM      3  N   UNL     1       3.636   6.428  17.810  0.00  0.00    +0.000 N 
ATOM      4  C   UNL     1       2.815   7.286  18.577  0.00  0.00    +0.000 A 
ATOM      5  C   UNL     1       2.489   8.599  18.198  0.00  0.00    +0.000 A 
ATOM      6  C   UNL     1       1.667   9.416  18.986  0.00  0.00    +0.000 A 
ATOM      7  C   UNL     1       1.170   8.935  20.198  0.00  0.00    +0.000 A 
ATOM      8  C   UNL     1       1.464   7.640  20.613  0.00  0.00    +0.000 A 
ATOM      9  C   UNL     1       2.265   6.822  19.796  0.00  0.00    +0.000 A 
ATOM     10  C   UNL     1       2.492   5.419  20.222  0.00  0.00    +0.000 A 
ATOM     11  O   UNL     1       1.957   4.975  21.233  0.00  0.00    +0.000 OA
ENDROOT
BRANCH   1  13
ATOM     12  O   UNL     1       2.739   2.311  19.827  0.00  0.00    +0.000 OA
ATOM     13  C   UNL     1       3.637   3.134  19.646  0.00  0.00    +0.000 C 
ATOM     14  N   UNL     1       4.956   2.787  19.719  0.00  0.00    +0.000 N 
ATOM     15  H   UNL     1       5.730   3.442  19.594  0.00  0.00    +0.000 HD
BRANCH  14  16
ATOM     16  O   UNL     1       5.262   1.461  20.094  0.00  0.00    +0.000 OA
ATOM     17  H   UNL     1       5.422   1.029  19.227  0.00  0.00    +0.000 HD
ENDBRANCH  14  16
ENDBRANCH   1  13
BRANCH   7  18
ATOM     18  N   UNL     1       0.323   9.803  21.029  0.00  0.00    +0.000 N 
ATOM     19  O   UNL     1       0.712  10.060  22.171  0.00  0.00    +0.000 OA
ATOM     20  O   UNL     1      -0.730  10.225  20.526  0.00  0.00    +0.000 OA
ENDBRANCH   7  18
BRANCH   3  21
ATOM     21  C   UNL     1       4.178   6.876  16.503  0.00  0.00    +0.000 C 
BRANCH  21  22
ATOM     22  C   UNL     1       5.238   5.929  15.981  0.00  0.00    +0.000 A 
ATOM     23  C   UNL     1       6.484   5.830  16.622  0.00  0.00    +0.000 A 
ATOM     24  C   UNL     1       7.510   5.057  16.078  0.00  0.00    +0.000 A 
ATOM     25  C   UNL     1       7.299   4.352  14.895  0.00  0.00    +0.000 A 
ATOM     26  C   UNL     1       6.048   4.389  14.286  0.00  0.00    +0.000 A 
ATOM     27 CL   UNL     1       5.778   3.506  12.834  0.00  0.00    +0.000 Cl
ATOM     28  C   UNL     1       5.017   5.159  14.828  0.00  0.00    +0.000 A 
ENDBRANCH  21  22
ENDBRANCH   3  21
TORSDOF 5
ENDMDL
MODEL 5
REMARK VINA RESULT:      -8.0      3.517      6.949
REMARK  Name = 
REMARK  5 active torsions:
REMARK  status: ('A' for Active; 'I' for Inactive)
REMARK    1  A    between atoms: C_2  and  C_5
REMARK    2  A    between atoms: N_3  and  O_4
REMARK    3  A    between atoms: N_7  and  C_8
REMARK    4  A    between atoms: C_8  and  C_9
REMARK    5  A    between atoms: C_19  and  N_20
REMARK                            x       y       z     vdW  Elec       q    Type
REMARK                         _______ _______ _______ _____ _____    ______ ____
ROOT
ATOM      1  C   UNL     1       2.484   4.913  19.191  0.00  0.00    +0.000 A 
ATOM      2  C   UNL     1       2.378   6.248  19.090  0.00  0.00    +0.000 A 
ATOM      3  N   UNL     1       3.065   7.076  18.207  0.00  0.00    +0.000 N 
ATOM      4  C   UNL     1       3.950   6.490  17.273  0.00  0.00    +0.000 A 
ATOM      5  C   UNL     1       4.714   7.226  16.353  0.00  0.00    +0.000 A 
ATOM      6  C   UNL     1       5.584   6.605  15.447  0.00  0.00    +0.000 A 
ATOM      7  C   UNL     1       5.685   5.214  15.426  0.00  0.00    +0.000 A 
ATOM      8  C   UNL     1       4.949   4.443  16.320  0.00  0.00    +0.000 A 
ATOM      9  C   UNL     1       4.104   5.083  17.245  0.00  0.00    +0.000 A 
ATOM     10  C   UNL     1       3.396   4.243  18.241  0.00  0.00    +0.000 A 
ATOM     11  O   UNL     1       3.581   3.030  18.284  0.00  0.00    +0.000 OA
ENDROOT
BRANCH   1  13
ATOM     12  O   UNL     1       0.535   4.342  20.445  0.00  0.00    +0.000 OA
ATOM     13  C   UNL     1       1.749   4.213  20.278  0.00  0.00    +0.000 C 
ATOM     14  N   UNL     1       2.512   3.445  21.111  0.00  0.00    +0.000 N 
ATOM     15  H   UNL     1       3.523   3.328  21.018  0.00  0.00    +0.000 HD
BRANCH  14  16
ATOM     16  O   UNL     1       1.876   2.865  22.229  0.00  0.00    +0.000 OA
ATOM     17  H   UNL     1       1.536   2.020  21.862  0.00  0.00    +0.000 HD
ENDBRANCH  14  16
ENDBRANCH   1  13
BRANCH   7  18
ATOM     18  N   UNL     1       6.585   4.567  14.460  0.00  0.00    +0.000 N 
ATOM     19  O   UNL     1       6.204   3.518  13.935  0.00  0.00    +0.000 OA
ATOM     20  O   UNL     1       7.672   5.123  14.231  0.00  0.00    +0.000 OA
ENDBRANCH   7  18
BRANCH   3  21
ATOM     21  C   UNL     1       2.929   8.552  18.290  0.00  0.00    +0.000 C 
BRANCH  21  22
ATOM     22  C   UNL     1       1.581   8.961  18.847  0.00  0.00    +0.000 A 
ATOM     23  C   UNL     1       0.615   9.549  18.014  0.00  0.00    +0.000 A 
ATOM     24  C   UNL     1      -0.579  10.043  18.542  0.00  0.00    +0.000 A 
ATOM     25  C   UNL     1      -0.835   9.936  19.907  0.00  0.00    +0.000 A 
ATOM     26  C   UNL     1       0.087   9.297  20.731  0.00  0.00    +0.000 A 
ATOM     27 CL   UNL     1      -0.233   9.149  22.416  0.00  0.00    +0.000 Cl
ATOM     28  C   UNL     1       1.281   8.799  20.209  0.00  0.00    +0.000 A 
ENDBRANCH  21  22
ENDBRANCH   3  21
TORSDOF 5
ENDMDL
MODEL 6
REMARK VINA RESULT:      -7.9      3.481      6.828
REMARK  Name = 
REMARK  5 active torsions:
REMARK  status: ('A' for Active; 'I' for Inactive)
REMARK    1  A    between atoms: C_2  and  C_5
REMARK    2  A    between atoms: N_3  and  O_4
REMARK    3  A    between atoms: N_7  and  C_8
REMARK    4  A    between atoms: C_8  and  C_9
REMARK    5  A    between atoms: C_19  and  N_20
REMARK                            x       y       z     vdW  Elec       q    Type
REMARK                         _______ _______ _______ _____ _____    ______ ____
ROOT
ATOM      1  C   UNL     1       2.263   4.493  19.387  0.00  0.00    +0.000 A 
ATOM      2  C   UNL     1       1.855   5.721  19.030  0.00  0.00    +0.000 A 
ATOM      3  N   UNL     1       2.534   6.625  18.218  0.00  0.00    +0.000 N 
ATOM      4  C   UNL     1       3.771   6.236  17.655  0.00  0.00    +0.000 A 
ATOM      5  C   UNL     1       4.556   7.072  16.842  0.00  0.00    +0.000 A 
ATOM      6  C   UNL     1       5.780   6.649  16.307  0.00  0.00    +0.000 A 
ATOM      7  C   UNL     1       6.234   5.354  16.557  0.00  0.00    +0.000 A 
ATOM      8  C   UNL     1       5.492   4.491  17.357  0.00  0.00    +0.000 A 
ATOM      9  C   UNL     1       4.281   4.941  17.913  0.00  0.00    +0.000 A 
ATOM     10  C   UNL     1       3.553   4.031  18.830  0.00  0.00    +0.000 A 
ATOM     11  O   UNL     1       4.020   2.936  19.130  0.00  0.00    +0.000 OA
ENDROOT
BRANCH   1  13
ATOM     12  O   UNL     1       0.226   3.605  20.257  0.00  0.00    +0.000 OA
ATOM     13  C   UNL     1       1.448   3.717  20.359  0.00  0.00    +0.000 C 
ATOM     14  N   UNL     1       2.136   3.166  21.403  0.00  0.00    +0.000 N 
ATOM     15  H   UNL     1       3.146   3.252  21.535  0.00  0.00    +0.000 HD
BRANCH  14  16
ATOM     16  O   UNL     1       1.386   2.529  22.414  0.00  0.00    +0.000 OA
ATOM     17  H   UNL     1       0.700   2.052  21.898  0.00  0.00    +0.000 HD
ENDBRANCH  14  16
ENDBRANCH   1  13
BRANCH   7  18
ATOM     18  N   UNL     1       7.510   4.909  15.977  0.00  0.00    +0.000 N 
ATOM     19  O   UNL     1       8.218   4.161  16.654  0.00  0.00    +0.000 OA
ATOM     20  O   UNL     1       7.791   5.315  14.837  0.00  0.00    +0.000 OA
ENDBRANCH   7  18
BRANCH   3  21
ATOM     21  C   UNL     1       2.008   7.997  18.004  0.00  0.00    +0.000 C 
BRANCH  21  22
ATOM     22  C   UNL     1       1.464   8.595  19.285  0.00  0.00    +0.000 A 
ATOM     23  C   UNL     1       1.803   8.042  20.531  0.00  0.00    +0.000 A 
ATOM     24  C   UNL     1       1.209   8.505  21.705  0.00  0.00    +0.000 A 
ATOM     25  C   UNL     1       0.283   9.545  21.655  0.00  0.00    +0.000 A 
ATOM     26  C   UNL     1      -0.011  10.145  20.434  0.00  0.00    +0.000 A 
ATOM     27 CL   UNL     1      -1.142  11.440  20.370  0.00  0.00    +0.000 Cl
ATOM     28  C   UNL     1       0.582   9.687  19.256  0.00  0.00    +0.000 A 
ENDBRANCH  21  22
ENDBRANCH   3  21
TORSDOF 5
ENDMDL
MODEL 7
REMARK VINA RESULT:      -7.8      3.631      6.818
REMARK  Name = 
REMARK  5 active torsions:
REMARK  status: ('A' for Active; 'I' for Inactive)
REMARK    1  A    between atoms: C_2  and  C_5
REMARK    2  A    between atoms: N_3  and  O_4
REMARK    3  A    between atoms: N_7  and  C_8
REMARK    4  A    between atoms: C_8  and  C_9
REMARK    5  A    between atoms: C_19  and  N_20
REMARK                            x       y       z     vdW  Elec       q    Type
REMARK                         _______ _______ _______ _____ _____    ______ ____
ROOT
ATOM      1  C   UNL     1       2.322   4.173  19.174  0.00  0.00    +0.000 A 
ATOM      2  C   UNL     1       2.395   5.484  19.453  0.00  0.00    +0.000 A 
ATOM      3  N   UNL     1       3.191   6.432  18.817  0.00  0.00    +0.000 N 
ATOM      4  C   UNL     1       3.996   6.023  17.729  0.00  0.00    +0.000 A 
ATOM      5  C   UNL     1       4.857   6.884  17.028  0.00  0.00    +0.000 A 
ATOM      6  C   UNL     1       5.643   6.436  15.957  0.00  0.00    +0.000 A 
ATOM      7  C   UNL     1       5.559   5.106  15.545  0.00  0.00    +0.000 A 
ATOM      8  C   UNL     1       4.721   4.216  16.210  0.00  0.00    +0.000 A 
ATOM      9  C   UNL     1       3.963   4.673  17.303  0.00  0.00    +0.000 A 
ATOM     10  C   UNL     1       3.143   3.685  18.046  0.00  0.00    +0.000 A 
ATOM     11  O   UNL     1       3.165   2.496  17.742  0.00  0.00    +0.000 OA
ENDROOT
BRANCH   1  13
ATOM     12  O   UNL     1       0.439   2.790  19.660  0.00  0.00    +0.000 OA
ATOM     13  C   UNL     1       1.494   3.296  20.044  0.00  0.00    +0.000 C 
ATOM     14  N   UNL     1       1.957   3.115  21.317  0.00  0.00    +0.000 N 
ATOM     15  H   UNL     1       2.817   3.533  21.680  0.00  0.00    +0.000 HD
BRANCH  14  16
ATOM     16  O   UNL     1       1.139   2.395  22.212  0.00  0.00    +0.000 OA
ATOM     17  H   UNL     1       0.581   3.103  22.603  0.00  0.00    +0.000 HD
ENDBRANCH  14  16
ENDBRANCH   1  13
BRANCH   7  18
ATOM     18  N   UNL     1       6.371   4.647  14.408  0.00  0.00    +0.000 N 
ATOM     19  O   UNL     1       7.455   5.203  14.217  0.00  0.00    +0.000 OA
ATOM     20  O   UNL     1       5.912   3.725  13.715  0.00  0.00    +0.000 OA
ENDBRANCH   7  18
BRANCH   3  21
ATOM     21  C   UNL     1       3.252   7.829  19.314  0.00  0.00    +0.000 C 
BRANCH  21  22
ATOM     22  C   UNL     1       1.919   8.534  19.172  0.00  0.00    +0.000 A 
ATOM     23  C   UNL     1       1.405   8.838  17.900  0.00  0.00    +0.000 A 
ATOM     24  C   UNL     1       0.242   9.596  17.760  0.00  0.00    +0.000 A 
ATOM     25  C   UNL     1      -0.438  10.043  18.891  0.00  0.00    +0.000 A 
ATOM     26  C   UNL     1       0.024   9.692  20.156  0.00  0.00    +0.000 A 
ATOM     27 CL   UNL     1      -0.823  10.228  21.555  0.00  0.00    +0.000 Cl
ATOM     28  C   UNL     1       1.186   8.931  20.301  0.00  0.00    +0.000 A 
ENDBRANCH  21  22
ENDBRANCH   3  21
TORSDOF 5
ENDMDL
MODEL 8
REMARK VINA RESULT:      -7.8      1.568      1.833
REMARK  Name = 
REMARK  5 active torsions:
REMARK  status: ('A' for Active; 'I' for Inactive)
REMARK    1  A    between atoms: C_2  and  C_5
REMARK    2  A    between atoms: N_3  and  O_4
REMARK    3  A    between atoms: N_7  and  C_8
REMARK    4  A    between atoms: C_8  and  C_9
REMARK    5  A    between atoms: C_19  and  N_20
REMARK                            x       y       z     vdW  Elec       q    Type
REMARK                         _______ _______ _______ _____ _____    ______ ____
ROOT
ATOM      1  C   UNL     1       2.629   3.936  19.104  0.00  0.00    +0.000 A 
ATOM      2  C   UNL     1       3.240   4.711  18.194  0.00  0.00    +0.000 A 
ATOM      3  N   UNL     1       3.192   6.100  18.111  0.00  0.00    +0.000 N 
ATOM      4  C   UNL     1       2.468   6.815  19.092  0.00  0.00    +0.000 A 
ATOM      5  C   UNL     1       2.329   8.213  19.095  0.00  0.00    +0.000 A 
ATOM      6  C   UNL     1       1.597   8.883  20.085  0.00  0.00    +0.000 A 
ATOM      7  C   UNL     1       1.005   8.158  21.119  0.00  0.00    +0.000 A 
ATOM      8  C   UNL     1       1.114   6.771  21.156  0.00  0.00    +0.000 A 
ATOM      9  C   UNL     1       1.825   6.111  20.139  0.00  0.00    +0.000 A 
ATOM     10  C   UNL     1       1.854   4.628  20.156  0.00  0.00    +0.000 A 
ATOM     11  O   UNL     1       1.234   3.998  21.009  0.00  0.00    +0.000 OA
ENDROOT
BRANCH   1  13
ATOM     12  O   UNL     1       1.763   1.717  19.242  0.00  0.00    +0.000 OA
ATOM     13  C   UNL     1       2.706   2.458  18.960  0.00  0.00    +0.000 C 
ATOM     14  N   UNL     1       3.906   1.965  18.531  0.00  0.00    +0.000 N 
ATOM     15  H   UNL     1       4.717   2.545  18.306  0.00  0.00    +0.000 HD
BRANCH  14  16
ATOM     16  O   UNL     1       4.062   0.563  18.502  0.00  0.00    +0.000 OA
ATOM     17  H   UNL     1       3.144   0.253  18.340  0.00  0.00    +0.000 HD
ENDBRANCH  14  16
ENDBRANCH   1  13
BRANCH   7  18
ATOM     18  N   UNL     1       0.255   8.868  22.165  0.00  0.00    +0.000 N 
ATOM     19  O   UNL     1      -0.917   8.534  22.358  0.00  0.00    +0.000 OA
ATOM     20  O   UNL     1       0.852   9.759  22.790  0.00  0.00    +0.000 OA
ENDBRANCH   7  18
BRANCH   3  21
ATOM     21  C   UNL     1       3.828   6.814  16.975  0.00  0.00    +0.000 C 
BRANCH  21  22
ATOM     22  C   UNL     1       5.070   6.099  16.487  0.00  0.00    +0.000 A 
ATOM     23  C   UNL     1       5.225   5.787  15.126  0.00  0.00    +0.000 A 
ATOM     24  C   UNL     1       6.303   5.019  14.686  0.00  0.00    +0.000 A 
ATOM     25  C   UNL     1       7.257   4.570  15.597  0.00  0.00    +0.000 A 
ATOM     26  C   UNL     1       7.150   4.929  16.938  0.00  0.00    +0.000 A 
ATOM     27 CL   UNL     1       8.335   4.391  18.064  0.00  0.00    +0.000 Cl
ATOM     28  C   UNL     1       6.074   5.699  17.383  0.00  0.00    +0.000 A 
ENDBRANCH  21  22
ENDBRANCH   3  21
TORSDOF 5
ENDMDL
MODEL 9
REMARK VINA RESULT:      -7.7      2.741      5.527
REMARK  Name = 
REMARK  5 active torsions:
REMARK  status: ('A' for Active; 'I' for Inactive)
REMARK    1  A    between atoms: C_2  and  C_5
REMARK    2  A    between atoms: N_3  and  O_4
REMARK    3  A    between atoms: N_7  and  C_8
REMARK    4  A    between atoms: C_8  and  C_9
REMARK    5  A    between atoms: C_19  and  N_20
REMARK                            x       y       z     vdW  Elec       q    Type
REMARK                         _______ _______ _______ _____ _____    ______ ____
ROOT
ATOM      1  C   UNL     1       1.974   8.325  19.020  0.00  0.00    +0.000 A 
ATOM      2  C   UNL     1       2.837   7.964  18.057  0.00  0.00    +0.000 A 
ATOM      3  N   UNL     1       3.480   6.737  17.927  0.00  0.00    +0.000 N 
ATOM      4  C   UNL     1       3.194   5.717  18.864  0.00  0.00    +0.000 A 
ATOM      5  C   UNL     1       3.801   4.450  18.848  0.00  0.00    +0.000 A 
ATOM      6  C   UNL     1       3.493   3.468  19.800  0.00  0.00    +0.000 A 
ATOM      7  C   UNL     1       2.539   3.732  20.783  0.00  0.00    +0.000 A 
ATOM      8  C   UNL     1       1.914   4.974  20.840  0.00  0.00    +0.000 A 
ATOM      9  C   UNL     1       2.257   5.959  19.897  0.00  0.00    +0.000 A 
ATOM     10  C   UNL     1       1.638   7.301  20.032  0.00  0.00    +0.000 A 
ATOM     11  O   UNL     1       0.885   7.553  20.968  0.00  0.00    +0.000 OA
ENDROOT
BRANCH   1  13
ATOM     12  O   UNL     1       0.679  10.124  19.905  0.00  0.00    +0.000 OA
ATOM     13  C   UNL     1       1.477   9.726  19.055  0.00  0.00    +0.000 C 
ATOM     14  N   UNL     1       1.930  10.541  18.057  0.00  0.00    +0.000 N 
ATOM     15  H   UNL     1       2.576  10.245  17.322  0.00  0.00    +0.000 HD
BRANCH  14  16
ATOM     16  O   UNL     1       1.386  11.841  17.978  0.00  0.00    +0.000 OA
ATOM     17  H   UNL     1       0.621  11.712  17.376  0.00  0.00    +0.000 HD
ENDBRANCH  14  16
ENDBRANCH   1  13
BRANCH   7  18
ATOM     18  N   UNL     1       2.206   2.692  21.767  0.00  0.00    +0.000 N 
ATOM     19  O   UNL     1       1.043   2.638  22.173  0.00  0.00    +0.000 OA
ATOM     20  O   UNL     1       3.120   1.930  22.124  0.00  0.00    +0.000 OA
ENDBRANCH   7  18
BRANCH   3  21
ATOM     21  C   UNL     1       4.500   6.522  16.870  0.00  0.00    +0.000 C 
BRANCH  21  22
ATOM     22  C   UNL     1       5.905   6.725  17.396  0.00  0.00    +0.000 A 
ATOM     23  C   UNL     1       6.604   5.662  17.993  0.00  0.00    +0.000 A 
ATOM     24  C   UNL     1       7.846   5.869  18.593  0.00  0.00    +0.000 A 
ATOM     25  C   UNL     1       8.420   7.139  18.585  0.00  0.00    +0.000 A 
ATOM     26  C   UNL     1       7.768   8.185  17.940  0.00  0.00    +0.000 A 
ATOM     27 CL   UNL     1       8.482   9.751  17.915  0.00  0.00    +0.000 Cl
ATOM     28  C   UNL     1       6.526   7.983  17.336  0.00  0.00    +0.000 A 
ENDBRANCH  21  22
ENDBRANCH   3  21
TORSDOF 5
ENDMDL
