MODEL 1
REMARK VINA RESULT:      -6.3      0.000      0.000
REMARK  Name = 
REMARK  12 active torsions:
REMARK  status: ('A' for Active; 'I' for Inactive)
REMARK    1  A    between atoms: C_1  and  C_2
REMARK    2  A    between atoms: C_2  and  C_3
REMARK    3  A    between atoms: C_2  and  C_4
REMARK    4  A    between atoms: N_11  and  C_12
REMARK    5  A    between atoms: C_13  and  C_14
REMARK    6  A    between atoms: C_14  and  C_15
REMARK    7  A    between atoms: C_15  and  C_16
REMARK    8  A    between atoms: C_16  and  C_17
REMARK    9  A    between atoms: C_19  and  C_20
REMARK   10  A    between atoms: C_20  and  C_21
REMARK   11  A    between atoms: C_20  and  C_22
REMARK   12  A    between atoms: N_29  and  C_30
REMARK                            x       y       z     vdW  Elec       q    Type
REMARK                         _______ _______ _______ _____ _____    ______ ____
ROOT
ATOM      1  C   UNL     1      -3.556  12.141  19.104  0.00  0.00    +0.000 C 
ENDROOT
BRANCH   1   2
ATOM      2  C   UNL     1      -4.967  12.770  19.180  0.00  0.00    +0.000 C 
BRANCH   2  12
ATOM      3  C   UNL     1      -5.924  14.178  22.055  0.00  0.00    +0.000 A 
ATOM      4  C   UNL     1      -6.512  14.659  23.257  0.00  0.00    +0.000 A 
ATOM      5  C   UNL     1      -7.490  13.953  23.928  0.00  0.00    +0.000 A 
ATOM      6  C   UNL     1      -7.912  12.752  23.410  0.00  0.00    +0.000 A 
ATOM      7  C   UNL     1      -7.392  12.255  22.206  0.00  0.00    +0.000 A 
ATOM      8  C   UNL     1      -7.912  11.032  21.832  0.00  0.00    +0.000 A 
ATOM      9  C   UNL     1      -7.488  10.436  20.680  0.00  0.00    +0.000 A 
ATOM     10  N   UNL     1      -6.583  11.010  19.864  0.00  0.00    +0.000 N 
ATOM     11  C   UNL     1      -6.197  10.201  18.684  0.00  0.00    +0.000 C 
ATOM     12  C   UNL     1      -6.032  12.245  20.139  0.00  0.00    +0.000 A 
ATOM     13  C   UNL     1      -6.399  12.927  21.423  0.00  0.00    +0.000 A 
BRANCH   3  15
ATOM     14  C   UNL     1      -5.406  16.018  20.445  0.00  0.00    +0.000 C 
ATOM     15  C   UNL     1      -4.817  15.080  21.503  0.00  0.00    +0.000 C 
ATOM     16  C   UNL     1      -4.004  15.904  22.520  0.00  0.00    +0.000 C 
ENDBRANCH   3  15
ENDBRANCH   2  12
ENDBRANCH   1   2
BRANCH   1  17
ATOM     17  C   UNL     1      -2.503  13.092  19.749  0.00  0.00    +0.000 C 
BRANCH  17  18
ATOM     18  C   UNL     1      -1.154  12.433  19.997  0.00  0.00    +0.000 A 
ATOM     19  C   UNL     1      -0.895  11.591  21.167  0.00  0.00    +0.000 A 
ATOM     20  C   UNL     1      -1.552  11.548  22.479  0.00  0.00    +0.000 A 
ATOM     21  C   UNL     1      -1.237  10.511  23.392  0.00  0.00    +0.000 A 
ATOM     22  C   UNL     1      -0.275   9.560  23.114  0.00  0.00    +0.000 A 
ATOM     23  C   UNL     1       0.444   9.656  21.942  0.00  0.00    +0.000 A 
ATOM     24  C   UNL     1       0.166  10.652  21.003  0.00  0.00    +0.000 A 
ATOM     25  C   UNL     1       1.001  10.680  19.899  0.00  0.00    +0.000 A 
ATOM     26  C   UNL     1       0.820  11.638  18.934  0.00  0.00    +0.000 A 
ATOM     27  N   UNL     1      -0.221  12.489  18.981  0.00  0.00    +0.000 N 
ATOM     28  C   UNL     1      -0.284  13.503  17.898  0.00  0.00    +0.000 C 
BRANCH  20  29
ATOM     29  C   UNL     1      -2.394  12.695  23.070  0.00  0.00    +0.000 C 
ATOM     30  C   UNL     1      -3.505  12.273  24.051  0.00  0.00    +0.000 C 
ATOM     31  C   UNL     1      -1.471  13.694  23.783  0.00  0.00    +0.000 C 
ENDBRANCH  20  29
ENDBRANCH  17  18
ENDBRANCH   1  17
TORSDOF 6
ENDMDL
MODEL 2
REMARK VINA RESULT:      -6.1      1.705      7.624
REMARK  Name = 
REMARK  12 active torsions:
REMARK  status: ('A' for Active; 'I' for Inactive)
REMARK    1  A    between atoms: C_1  and  C_2
REMARK    2  A    between atoms: C_2  and  C_3
REMARK    3  A    between atoms: C_2  and  C_4
REMARK    4  A    between atoms: N_11  and  C_12
REMARK    5  A    between atoms: C_13  and  C_14
REMARK    6  A    between atoms: C_14  and  C_15
REMARK    7  A    between atoms: C_15  and  C_16
REMARK    8  A    between atoms: C_16  and  C_17
REMARK    9  A    between atoms: C_19  and  C_20
REMARK   10  A    between atoms: C_20  and  C_21
REMARK   11  A    between atoms: C_20  and  C_22
REMARK   12  A    between atoms: N_29  and  C_30
REMARK                            x       y       z     vdW  Elec       q    Type
REMARK                         _______ _______ _______ _____ _____    ______ ____
ROOT
ATOM      1  C   UNL     1      -2.115  12.670  22.122  0.00  0.00    +0.000 C 
ENDROOT
BRANCH   1   2
ATOM      2  C   UNL     1      -0.570  12.751  22.137  0.00  0.00    +0.000 C 
BRANCH   2  12
ATOM      3  C   UNL     1       0.562  10.147  20.376  0.00  0.00    +0.000 A 
ATOM      4  C   UNL     1       1.058   9.178  19.462  0.00  0.00    +0.000 A 
ATOM      5  C   UNL     1       1.782   9.531  18.340  0.00  0.00    +0.000 A 
ATOM      6  C   UNL     1       2.019  10.863  18.100  0.00  0.00    +0.000 A 
ATOM      7  C   UNL     1       1.517  11.859  18.950  0.00  0.00    +0.000 A 
ATOM      8  C   UNL     1       1.856  13.143  18.575  0.00  0.00    +0.000 A 
ATOM      9  C   UNL     1       1.431  14.205  19.319  0.00  0.00    +0.000 A 
ATOM     10  N   UNL     1       0.661  14.053  20.414  0.00  0.00    +0.000 N 
ATOM     11  C   UNL     1       0.334  15.307  21.133  0.00  0.00    +0.000 C 
ATOM     12  C   UNL     1       0.245  12.811  20.848  0.00  0.00    +0.000 A 
ATOM     13  C   UNL     1       0.731  11.594  20.118  0.00  0.00    +0.000 A 
BRANCH   3  15
ATOM     14  C   UNL     1      -0.608   8.118  21.249  0.00  0.00    +0.000 C 
ATOM     15  C   UNL     1      -0.161   9.544  21.584  0.00  0.00    +0.000 C 
ATOM     16  C   UNL     1       0.591   9.542  22.929  0.00  0.00    +0.000 C 
ENDBRANCH   3  15
ENDBRANCH   2  12
ENDBRANCH   1   2
BRANCH   1  17
ATOM     17  C   UNL     1      -2.666  13.091  20.727  0.00  0.00    +0.000 C 
BRANCH  17  18
ATOM     18  C   UNL     1      -4.180  13.244  20.687  0.00  0.00    +0.000 A 
ATOM     19  C   UNL     1      -5.045  12.307  19.966  0.00  0.00    +0.000 A 
ATOM     20  C   UNL     1      -4.754  11.409  18.843  0.00  0.00    +0.000 A 
ATOM     21  C   UNL     1      -5.721  10.457  18.433  0.00  0.00    +0.000 A 
ATOM     22  C   UNL     1      -6.969  10.385  19.018  0.00  0.00    +0.000 A 
ATOM     23  C   UNL     1      -7.309  11.304  19.988  0.00  0.00    +0.000 A 
ATOM     24  C   UNL     1      -6.390  12.254  20.437  0.00  0.00    +0.000 A 
ATOM     25  C   UNL     1      -6.874  13.160  21.366  0.00  0.00    +0.000 A 
ATOM     26  C   UNL     1      -6.050  14.145  21.848  0.00  0.00    +0.000 A 
ATOM     27  N   UNL     1      -4.747  14.189  21.518  0.00  0.00    +0.000 N 
ATOM     28  C   UNL     1      -3.972  15.327  22.076  0.00  0.00    +0.000 C 
BRANCH  20  29
ATOM     29  C   UNL     1      -3.559  11.570  17.883  0.00  0.00    +0.000 C 
ATOM     30  C   UNL     1      -2.372  10.618  18.126  0.00  0.00    +0.000 C 
ATOM     31  C   UNL     1      -4.038  11.390  16.435  0.00  0.00    +0.000 C 
ENDBRANCH  20  29
ENDBRANCH  17  18
ENDBRANCH   1  17
TORSDOF 6
ENDMDL
MODEL 3
REMARK VINA RESULT:      -6.1      1.900      6.139
REMARK  Name = 
REMARK  12 active torsions:
REMARK  status: ('A' for Active; 'I' for Inactive)
REMARK    1  A    between atoms: C_1  and  C_2
REMARK    2  A    between atoms: C_2  and  C_3
REMARK    3  A    between atoms: C_2  and  C_4
REMARK    4  A    between atoms: N_11  and  C_12
REMARK    5  A    between atoms: C_13  and  C_14
REMARK    6  A    between atoms: C_14  and  C_15
REMARK    7  A    between atoms: C_15  and  C_16
REMARK    8  A    between atoms: C_16  and  C_17
REMARK    9  A    between atoms: C_19  and  C_20
REMARK   10  A    between atoms: C_20  and  C_21
REMARK   11  A    between atoms: C_20  and  C_22
REMARK   12  A    between atoms: N_29  and  C_30
REMARK                            x       y       z     vdW  Elec       q    Type
REMARK                         _______ _______ _______ _____ _____    ______ ____
ROOT
ATOM      1  C   UNL     1      -5.108  12.103  20.361  0.00  0.00    +0.000 C 
ENDROOT
BRANCH   1   2
ATOM      2  C   UNL     1      -4.107  12.566  19.277  0.00  0.00    +0.000 C 
BRANCH   2  12
ATOM      3  C   UNL     1      -1.132  11.664  20.501  0.00  0.00    +0.000 A 
ATOM      4  C   UNL     1       0.117  11.109  20.891  0.00  0.00    +0.000 A 
ATOM      5  C   UNL     1       0.812  10.229  20.085  0.00  0.00    +0.000 A 
ATOM      6  C   UNL     1       0.270   9.874  18.873  0.00  0.00    +0.000 A 
ATOM      7  C   UNL     1      -0.978  10.363  18.461  0.00  0.00    +0.000 A 
ATOM      8  C   UNL     1      -1.371   9.922  17.214  0.00  0.00    +0.000 A 
ATOM      9  C   UNL     1      -2.567  10.325  16.695  0.00  0.00    +0.000 A 
ATOM     10  N   UNL     1      -3.406  11.136  17.368  0.00  0.00    +0.000 N 
ATOM     11  C   UNL     1      -4.637  11.517  16.635  0.00  0.00    +0.000 C 
ATOM     12  C   UNL     1      -3.114  11.602  18.634  0.00  0.00    +0.000 A 
ATOM     13  C   UNL     1      -1.786  11.255  19.239  0.00  0.00    +0.000 A 
BRANCH   3  15
ATOM     14  C   UNL     1      -1.521  12.118  22.928  0.00  0.00    +0.000 C 
ATOM     15  C   UNL     1      -1.707  12.664  21.509  0.00  0.00    +0.000 C 
ATOM     16  C   UNL     1      -1.183  14.111  21.446  0.00  0.00    +0.000 C 
ENDBRANCH   3  15
ENDBRANCH   2  12
ENDBRANCH   1   2
BRANCH   1  17
ATOM     17  C   UNL     1      -6.362  13.028  20.372  0.00  0.00    +0.000 C 
BRANCH  17  18
ATOM     18  C   UNL     1      -6.042  14.491  20.645  0.00  0.00    +0.000 A 
ATOM     19  C   UNL     1      -5.230  14.916  21.787  0.00  0.00    +0.000 A 
ATOM     20  C   UNL     1      -4.961  14.254  23.069  0.00  0.00    +0.000 A 
ATOM     21  C   UNL     1      -3.987  14.789  23.948  0.00  0.00    +0.000 A 
ATOM     22  C   UNL     1      -3.317  15.963  23.669  0.00  0.00    +0.000 A 
ATOM     23  C   UNL     1      -3.646  16.669  22.531  0.00  0.00    +0.000 A 
ATOM     24  C   UNL     1      -4.590  16.180  21.626  0.00  0.00    +0.000 A 
ATOM     25  C   UNL     1      -4.879  17.014  20.558  0.00  0.00    +0.000 A 
ATOM     26  C   UNL     1      -5.811  16.629  19.628  0.00  0.00    +0.000 A 
ATOM     27  N   UNL     1      -6.377  15.409  19.670  0.00  0.00    +0.000 N 
ATOM     28  C   UNL     1      -7.399  15.129  18.629  0.00  0.00    +0.000 C 
BRANCH  20  29
ATOM     29  C   UNL     1      -5.835  13.138  23.674  0.00  0.00    +0.000 C 
ATOM     30  C   UNL     1      -5.183  12.316  24.803  0.00  0.00    +0.000 C 
ATOM     31  C   UNL     1      -7.141  13.744  24.208  0.00  0.00    +0.000 C 
ENDBRANCH  20  29
ENDBRANCH  17  18
ENDBRANCH   1  17
TORSDOF 6
ENDMDL
MODEL 4
REMARK VINA RESULT:      -6.0      3.076      7.240
REMARK  Name = 
REMARK  12 active torsions:
REMARK  status: ('A' for Active; 'I' for Inactive)
REMARK    1  A    between atoms: C_1  and  C_2
REMARK    2  A    between atoms: C_2  and  C_3
REMARK    3  A    between atoms: C_2  and  C_4
REMARK    4  A    between atoms: N_11  and  C_12
REMARK    5  A    between atoms: C_13  and  C_14
REMARK    6  A    between atoms: C_14  and  C_15
REMARK    7  A    between atoms: C_15  and  C_16
REMARK    8  A    between atoms: C_16  and  C_17
REMARK    9  A    between atoms: C_19  and  C_20
REMARK   10  A    between atoms: C_20  and  C_21
REMARK   11  A    between atoms: C_20  and  C_22
REMARK   12  A    between atoms: N_29  and  C_30
REMARK                            x       y       z     vdW  Elec       q    Type
REMARK                         _______ _______ _______ _____ _____    ______ ____
ROOT
ATOM      1  C   UNL     1      -0.774  13.677  18.895  0.00  0.00    +0.000 C 
ENDROOT
BRANCH   1   2
ATOM      2  C   UNL     1      -1.778  12.674  19.509  0.00  0.00    +0.000 C 
BRANCH   2  12
ATOM      3  C   UNL     1       0.240  10.055  19.986  0.00  0.00    +0.000 A 
ATOM      4  C   UNL     1       1.101   9.001  20.396  0.00  0.00    +0.000 A 
ATOM      5  C   UNL     1       1.147   8.559  21.704  0.00  0.00    +0.000 A 
ATOM      6  C   UNL     1       0.340   9.167  22.635  0.00  0.00    +0.000 A 
ATOM      7  C   UNL     1      -0.497  10.237  22.288  0.00  0.00    +0.000 A 
ATOM      8  C   UNL     1      -1.251  10.724  23.336  0.00  0.00    +0.000 A 
ATOM      9  C   UNL     1      -2.109  11.766  23.131  0.00  0.00    +0.000 A 
ATOM     10  N   UNL     1      -2.239  12.365  21.932  0.00  0.00    +0.000 N 
ATOM     11  C   UNL     1      -3.253  13.444  21.874  0.00  0.00    +0.000 C 
ATOM     12  C   UNL     1      -1.503  11.969  20.833  0.00  0.00    +0.000 A 
ATOM     13  C   UNL     1      -0.592  10.785  20.968  0.00  0.00    +0.000 A 
BRANCH   3  15
ATOM     14  C   UNL     1       1.588   9.770  17.900  0.00  0.00    +0.000 C 
ATOM     15  C   UNL     1       0.297  10.351  18.484  0.00  0.00    +0.000 C 
ATOM     16  C   UNL     1      -0.901   9.896  17.629  0.00  0.00    +0.000 C 
ENDBRANCH   3  15
ENDBRANCH   2  12
ENDBRANCH   1   2
BRANCH   1  17
ATOM     17  C   UNL     1      -0.425  14.794  19.924  0.00  0.00    +0.000 C 
BRANCH  17  18
ATOM     18  C   UNL     1      -0.408  16.194  19.328  0.00  0.00    +0.000 A 
ATOM     19  C   UNL     1       0.684  16.670  18.475  0.00  0.00    +0.000 A 
ATOM     20  C   UNL     1       2.080  16.229  18.374  0.00  0.00    +0.000 A 
ATOM     21  C   UNL     1       2.903  16.729  17.334  0.00  0.00    +0.000 A 
ATOM     22  C   UNL     1       2.453  17.678  16.438  0.00  0.00    +0.000 A 
ATOM     23  C   UNL     1       1.187  18.200  16.593  0.00  0.00    +0.000 A 
ATOM     24  C   UNL     1       0.331  17.734  17.594  0.00  0.00    +0.000 A 
ATOM     25  C   UNL     1      -0.888  18.384  17.686  0.00  0.00    +0.000 A 
ATOM     26  C   UNL     1      -1.786  18.011  18.654  0.00  0.00    +0.000 A 
ATOM     27  N   UNL     1      -1.554  16.953  19.451  0.00  0.00    +0.000 N 
ATOM     28  C   UNL     1      -2.586  16.676  20.483  0.00  0.00    +0.000 C 
BRANCH  20  29
ATOM     29  C   UNL     1       2.827  15.438  19.465  0.00  0.00    +0.000 C 
ATOM     30  C   UNL     1       2.410  15.744  20.917  0.00  0.00    +0.000 C 
ATOM     31  C   UNL     1       2.651  13.933  19.217  0.00  0.00    +0.000 C 
ENDBRANCH  20  29
ENDBRANCH  17  18
ENDBRANCH   1  17
TORSDOF 6
ENDMDL
MODEL 5
REMARK VINA RESULT:      -6.0      1.706      3.567
REMARK  Name = 
REMARK  12 active torsions:
REMARK  status: ('A' for Active; 'I' for Inactive)
REMARK    1  A    between atoms: C_1  and  C_2
REMARK    2  A    between atoms: C_2  and  C_3
REMARK    3  A    between atoms: C_2  and  C_4
REMARK    4  A    between atoms: N_11  and  C_12
REMARK    5  A    between atoms: C_13  and  C_14
REMARK    6  A    between atoms: C_14  and  C_15
REMARK    7  A    between atoms: C_15  and  C_16
REMARK    8  A    between atoms: C_16  and  C_17
REMARK    9  A    between atoms: C_19  and  C_20
REMARK   10  A    between atoms: C_20  and  C_21
REMARK   11  A    between atoms: C_20  and  C_22
REMARK   12  A    between atoms: N_29  and  C_30
REMARK                            x       y       z     vdW  Elec       q    Type
REMARK                         _______ _______ _______ _____ _____    ______ ____
ROOT
ATOM      1  C   UNL     1      -1.829  12.245  21.587  0.00  0.00    +0.000 C 
ENDROOT
BRANCH   1   2
ATOM      2  C   UNL     1      -2.399  12.942  20.330  0.00  0.00    +0.000 C 
BRANCH   2  12
ATOM      3  C   UNL     1      -5.566  12.735  21.374  0.00  0.00    +0.000 A 
ATOM      4  C   UNL     1      -6.964  12.628  21.608  0.00  0.00    +0.000 A 
ATOM      5  C   UNL     1      -7.818  12.041  20.696  0.00  0.00    +0.000 A 
ATOM      6  C   UNL     1      -7.297  11.553  19.522  0.00  0.00    +0.000 A 
ATOM      7  C   UNL     1      -5.930  11.670  19.226  0.00  0.00    +0.000 A 
ATOM      8  C   UNL     1      -5.568  11.117  18.015  0.00  0.00    +0.000 A 
ATOM      9  C   UNL     1      -4.266  11.163  17.608  0.00  0.00    +0.000 A 
ATOM     10  N   UNL     1      -3.304  11.754  18.342  0.00  0.00    +0.000 N 
ATOM     11  C   UNL     1      -1.937  11.666  17.777  0.00  0.00    +0.000 C 
ATOM     12  C   UNL     1      -3.576  12.361  19.551  0.00  0.00    +0.000 A 
ATOM     13  C   UNL     1      -4.973  12.289  20.094  0.00  0.00    +0.000 A 
BRANCH   3  15
ATOM     14  C   UNL     1      -4.871  14.889  22.433  0.00  0.00    +0.000 C 
ATOM     15  C   UNL     1      -4.789  13.363  22.535  0.00  0.00    +0.000 C 
ATOM     16  C   UNL     1      -5.173  12.925  23.961  0.00  0.00    +0.000 C 
ENDBRANCH   3  15
ENDBRANCH   2  12
ENDBRANCH   1   2
BRANCH   1  17
ATOM     17  C   UNL     1      -0.491  12.917  22.020  0.00  0.00    +0.000 C 
BRANCH  17  18
ATOM     18  C   UNL     1       0.585  12.888  20.945  0.00  0.00    +0.000 A 
ATOM     19  C   UNL     1       0.941  11.664  20.223  0.00  0.00    +0.000 A 
ATOM     20  C   UNL     1       0.780  10.254  20.595  0.00  0.00    +0.000 A 
ATOM     21  C   UNL     1       1.039   9.238  19.641  0.00  0.00    +0.000 A 
ATOM     22  C   UNL     1       1.504   9.528  18.374  0.00  0.00    +0.000 A 
ATOM     23  C   UNL     1       1.784  10.838  18.046  0.00  0.00    +0.000 A 
ATOM     24  C   UNL     1       1.536  11.877  18.945  0.00  0.00    +0.000 A 
ATOM     25  C   UNL     1       1.921  13.138  18.520  0.00  0.00    +0.000 A 
ATOM     26  C   UNL     1       1.739  14.218  19.345  0.00  0.00    +0.000 A 
ATOM     27  N   UNL     1       1.095  14.098  20.521  0.00  0.00    +0.000 N 
ATOM     28  C   UNL     1       0.996  15.335  21.338  0.00  0.00    +0.000 C 
BRANCH  20  29
ATOM     29  C   UNL     1       0.586   9.749  22.038  0.00  0.00    +0.000 C 
ATOM     30  C   UNL     1      -0.615   8.810  22.263  0.00  0.00    +0.000 C 
ATOM     31  C   UNL     1       1.860   9.027  22.504  0.00  0.00    +0.000 C 
ENDBRANCH  20  29
ENDBRANCH  17  18
ENDBRANCH   1  17
TORSDOF 6
ENDMDL
MODEL 6
REMARK VINA RESULT:      -6.0      1.503      2.998
REMARK  Name = 
REMARK  12 active torsions:
REMARK  status: ('A' for Active; 'I' for Inactive)
REMARK    1  A    between atoms: C_1  and  C_2
REMARK    2  A    between atoms: C_2  and  C_3
REMARK    3  A    between atoms: C_2  and  C_4
REMARK    4  A    between atoms: N_11  and  C_12
REMARK    5  A    between atoms: C_13  and  C_14
REMARK    6  A    between atoms: C_14  and  C_15
REMARK    7  A    between atoms: C_15  and  C_16
REMARK    8  A    between atoms: C_16  and  C_17
REMARK    9  A    between atoms: C_19  and  C_20
REMARK   10  A    between atoms: C_20  and  C_21
REMARK   11  A    between atoms: C_20  and  C_22
REMARK   12  A    between atoms: N_29  and  C_30
REMARK                            x       y       z     vdW  Elec       q    Type
REMARK                         _______ _______ _______ _____ _____    ______ ____
ROOT
ATOM      1  C   UNL     1      -2.237  11.927  20.213  0.00  0.00    +0.000 C 
ENDROOT
BRANCH   1   2
ATOM      2  C   UNL     1      -3.406  12.921  20.024  0.00  0.00    +0.000 C 
BRANCH   2  12
ATOM      3  C   UNL     1      -5.316  13.060  22.762  0.00  0.00    +0.000 A 
ATOM      4  C   UNL     1      -6.297  13.108  23.790  0.00  0.00    +0.000 A 
ATOM      5  C   UNL     1      -7.577  12.626  23.605  0.00  0.00    +0.000 A 
ATOM      6  C   UNL     1      -7.913  12.093  22.384  0.00  0.00    +0.000 A 
ATOM      7  C   UNL     1      -6.994  12.059  21.325  0.00  0.00    +0.000 A 
ATOM      8  C   UNL     1      -7.484  11.480  20.173  0.00  0.00    +0.000 A 
ATOM      9  C   UNL     1      -6.689  11.383  19.068  0.00  0.00    +0.000 A 
ATOM     10  N   UNL     1      -5.429  11.857  19.045  0.00  0.00    +0.000 N 
ATOM     11  C   UNL     1      -4.690  11.622  17.783  0.00  0.00    +0.000 C 
ATOM     12  C   UNL     1      -4.863  12.482  20.139  0.00  0.00    +0.000 A 
ATOM     13  C   UNL     1      -5.654  12.561  21.411  0.00  0.00    +0.000 A 
BRANCH   3  15
ATOM     14  C   UNL     1      -3.870  15.092  22.910  0.00  0.00    +0.000 C 
ATOM     15  C   UNL     1      -3.944  13.588  23.189  0.00  0.00    +0.000 C 
ATOM     16  C   UNL     1      -3.502  13.316  24.640  0.00  0.00    +0.000 C 
ENDBRANCH   3  15
ENDBRANCH   2  12
ENDBRANCH   1   2
BRANCH   1  17
ATOM     17  C   UNL     1      -1.068  12.606  20.989  0.00  0.00    +0.000 C 
BRANCH  17  18
ATOM     18  C   UNL     1       0.243  12.638  20.217  0.00  0.00    +0.000 A 
ATOM     19  C   UNL     1       0.867  11.427  19.679  0.00  0.00    +0.000 A 
ATOM     20  C   UNL     1       0.733  10.022  20.082  0.00  0.00    +0.000 A 
ATOM     21  C   UNL     1       1.304   9.001  19.283  0.00  0.00    +0.000 A 
ATOM     22  C   UNL     1       2.049   9.286  18.156  0.00  0.00    +0.000 A 
ATOM     23  C   UNL     1       2.295  10.603  17.830  0.00  0.00    +0.000 A 
ATOM     24  C   UNL     1       1.745  11.647  18.577  0.00  0.00    +0.000 A 
ATOM     25  C   UNL     1       2.121  12.922  18.187  0.00  0.00    +0.000 A 
ATOM     26  C   UNL     1       1.650  14.010  18.876  0.00  0.00    +0.000 A 
ATOM     27  N   UNL     1       0.743  13.874  19.861  0.00  0.00    +0.000 N 
ATOM     28  C   UNL     1       0.342  15.125  20.554  0.00  0.00    +0.000 C 
BRANCH  20  29
ATOM     29  C   UNL     1       0.224   9.555  21.460  0.00  0.00    +0.000 C 
ATOM     30  C   UNL     1      -0.609   8.259  21.461  0.00  0.00    +0.000 C 
ATOM     31  C   UNL     1       1.416   9.367  22.409  0.00  0.00    +0.000 C 
ENDBRANCH  20  29
ENDBRANCH  17  18
ENDBRANCH   1  17
TORSDOF 6
ENDMDL
MODEL 7
REMARK VINA RESULT:      -5.9      8.721     12.540
REMARK  Name = 
REMARK  12 active torsions:
REMARK  status: ('A' for Active; 'I' for Inactive)
REMARK    1  A    between atoms: C_1  and  C_2
REMARK    2  A    between atoms: C_2  and  C_3
REMARK    3  A    between atoms: C_2  and  C_4
REMARK    4  A    between atoms: N_11  and  C_12
REMARK    5  A    between atoms: C_13  and  C_14
REMARK    6  A    between atoms: C_14  and  C_15
REMARK    7  A    between atoms: C_15  and  C_16
REMARK    8  A    between atoms: C_16  and  C_17
REMARK    9  A    between atoms: C_19  and  C_20
REMARK   10  A    between atoms: C_20  and  C_21
REMARK   11  A    between atoms: C_20  and  C_22
REMARK   12  A    between atoms: N_29  and  C_30
REMARK                            x       y       z     vdW  Elec       q    Type
REMARK                         _______ _______ _______ _____ _____    ______ ____
ROOT
ATOM      1  C   UNL     1       7.908  13.685  21.716  0.00  0.00    +0.000 C 
ENDROOT
BRANCH   1   2
ATOM      2  C   UNL     1       7.095  14.986  21.909  0.00  0.00    +0.000 C 
BRANCH   2  12
ATOM      3  C   UNL     1       5.605  15.186  18.926  0.00  0.00    +0.000 A 
ATOM      4  C   UNL     1       4.795  15.196  17.757  0.00  0.00    +0.000 A 
ATOM      5  C   UNL     1       3.417  15.247  17.821  0.00  0.00    +0.000 A 
ATOM      6  C   UNL     1       2.813  15.280  19.055  0.00  0.00    +0.000 A 
ATOM      7  C   UNL     1       3.567  15.231  20.237  0.00  0.00    +0.000 A 
ATOM      8  C   UNL     1       2.809  15.287  21.389  0.00  0.00    +0.000 A 
ATOM      9  C   UNL     1       3.421  15.250  22.609  0.00  0.00    +0.000 A 
ATOM     10  N   UNL     1       4.757  15.138  22.740  0.00  0.00    +0.000 N 
ATOM     11  C   UNL     1       5.257  15.166  24.134  0.00  0.00    +0.000 C 
ATOM     12  C   UNL     1       5.593  15.043  21.646  0.00  0.00    +0.000 A 
ATOM     13  C   UNL     1       4.996  15.147  20.273  0.00  0.00    +0.000 A 
BRANCH   3  15
ATOM     14  C   UNL     1       7.428  14.111  17.596  0.00  0.00    +0.000 C 
ATOM     15  C   UNL     1       7.109  15.189  18.637  0.00  0.00    +0.000 C 
ATOM     16  C   UNL     1       7.742  16.524  18.200  0.00  0.00    +0.000 C 
ENDBRANCH   3  15
ENDBRANCH   2  12
ENDBRANCH   1   2
BRANCH   1  17
ATOM     17  C   UNL     1       9.338  13.845  22.314  0.00  0.00    +0.000 C 
BRANCH  17  18
ATOM     18  C   UNL     1      10.192  14.877  21.591  0.00  0.00    +0.000 A 
ATOM     19  C   UNL     1      10.630  14.700  20.204  0.00  0.00    +0.000 A 
ATOM     20  C   UNL     1      10.798  13.483  19.403  0.00  0.00    +0.000 A 
ATOM     21  C   UNL     1      11.062  13.584  18.014  0.00  0.00    +0.000 A 
ATOM     22  C   UNL     1      11.233  14.803  17.389  0.00  0.00    +0.000 A 
ATOM     23  C   UNL     1      11.207  15.954  18.148  0.00  0.00    +0.000 A 
ATOM     24  C   UNL     1      10.938  15.911  19.518  0.00  0.00    +0.000 A 
ATOM     25  C   UNL     1      11.005  17.127  20.177  0.00  0.00    +0.000 A 
ATOM     26  C   UNL     1      10.779  17.181  21.529  0.00  0.00    +0.000 A 
ATOM     27  N   UNL     1      10.389  16.092  22.215  0.00  0.00    +0.000 N 
ATOM     28  C   UNL     1      10.214  16.272  23.680  0.00  0.00    +0.000 C 
BRANCH  20  29
ATOM     29  C   UNL     1      10.960  12.067  19.989  0.00  0.00    +0.000 C 
ATOM     30  C   UNL     1       9.880  11.046  19.582  0.00  0.00    +0.000 C 
ATOM     31  C   UNL     1      12.333  11.504  19.595  0.00  0.00    +0.000 C 
ENDBRANCH  20  29
ENDBRANCH  17  18
ENDBRANCH   1  17
TORSDOF 6
ENDMDL
MODEL 8
REMARK VINA RESULT:      -5.9      3.058      6.877
REMARK  Name = 
REMARK  12 active torsions:
REMARK  status: ('A' for Active; 'I' for Inactive)
REMARK    1  A    between atoms: C_1  and  C_2
REMARK    2  A    between atoms: C_2  and  C_3
REMARK    3  A    between atoms: C_2  and  C_4
REMARK    4  A    between atoms: N_11  and  C_12
REMARK    5  A    between atoms: C_13  and  C_14
REMARK    6  A    between atoms: C_14  and  C_15
REMARK    7  A    between atoms: C_15  and  C_16
REMARK    8  A    between atoms: C_16  and  C_17
REMARK    9  A    between atoms: C_19  and  C_20
REMARK   10  A    between atoms: C_20  and  C_21
REMARK   11  A    between atoms: C_20  and  C_22
REMARK   12  A    between atoms: N_29  and  C_30
REMARK                            x       y       z     vdW  Elec       q    Type
REMARK                         _______ _______ _______ _____ _____    ______ ____
ROOT
ATOM      1  C   UNL     1      -0.780  13.680  18.837  0.00  0.00    +0.000 C 
ENDROOT
BRANCH   1   2
ATOM      2  C   UNL     1      -1.774  12.665  19.449  0.00  0.00    +0.000 C 
BRANCH   2  12
ATOM      3  C   UNL     1       0.195  10.016  19.969  0.00  0.00    +0.000 A 
ATOM      4  C   UNL     1       1.038   8.954  20.397  0.00  0.00    +0.000 A 
ATOM      5  C   UNL     1       1.083   8.539  21.713  0.00  0.00    +0.000 A 
ATOM      6  C   UNL     1       0.294   9.182  22.636  0.00  0.00    +0.000 A 
ATOM      7  C   UNL     1      -0.523  10.262  22.271  0.00  0.00    +0.000 A 
ATOM      8  C   UNL     1      -1.261  10.786  23.313  0.00  0.00    +0.000 A 
ATOM      9  C   UNL     1      -2.099  11.840  23.092  0.00  0.00    +0.000 A 
ATOM     10  N   UNL     1      -2.225  12.416  21.881  0.00  0.00    +0.000 N 
ATOM     11  C   UNL     1      -3.217  13.514  21.806  0.00  0.00    +0.000 C 
ATOM     12  C   UNL     1      -1.504  11.982  20.786  0.00  0.00    +0.000 A 
ATOM     13  C   UNL     1      -0.615  10.783  20.940  0.00  0.00    +0.000 A 
BRANCH   3  15
ATOM     14  C   UNL     1       1.528   9.668  17.883  0.00  0.00    +0.000 C 
ATOM     15  C   UNL     1       0.248  10.279  18.461  0.00  0.00    +0.000 C 
ATOM     16  C   UNL     1      -0.961   9.823  17.621  0.00  0.00    +0.000 C 
ENDBRANCH   3  15
ENDBRANCH   2  12
ENDBRANCH   1   2
BRANCH   1  17
ATOM     17  C   UNL     1      -0.614  14.911  19.778  0.00  0.00    +0.000 C 
BRANCH  17  18
ATOM     18  C   UNL     1       0.135  16.073  19.141  0.00  0.00    +0.000 A 
ATOM     19  C   UNL     1       1.560  16.001  18.811  0.00  0.00    +0.000 A 
ATOM     20  C   UNL     1       2.627  15.155  19.358  0.00  0.00    +0.000 A 
ATOM     21  C   UNL     1       3.903  15.143  18.742  0.00  0.00    +0.000 A 
ATOM     22  C   UNL     1       4.204  15.958  17.669  0.00  0.00    +0.000 A 
ATOM     23  C   UNL     1       3.256  16.853  17.220  0.00  0.00    +0.000 A 
ATOM     24  C   UNL     1       1.980  16.897  17.784  0.00  0.00    +0.000 A 
ATOM     25  C   UNL     1       1.143  17.883  17.289  0.00  0.00    +0.000 A 
ATOM     26  C   UNL     1      -0.124  18.019  17.798  0.00  0.00    +0.000 A 
ATOM     27  N   UNL     1      -0.612  17.145  18.697  0.00  0.00    +0.000 N 
ATOM     28  C   UNL     1      -1.982  17.424  19.199  0.00  0.00    +0.000 C 
BRANCH  20  29
ATOM     29  C   UNL     1       2.562  14.442  20.723  0.00  0.00    +0.000 C 
ATOM     30  C   UNL     1       1.643  15.093  21.775  0.00  0.00    +0.000 C 
ATOM     31  C   UNL     1       2.113  12.988  20.520  0.00  0.00    +0.000 C 
ENDBRANCH  20  29
ENDBRANCH  17  18
ENDBRANCH   1  17
TORSDOF 6
ENDMDL
MODEL 9
REMARK VINA RESULT:      -5.8      1.860      4.395
REMARK  Name = 
REMARK  12 active torsions:
REMARK  status: ('A' for Active; 'I' for Inactive)
REMARK    1  A    between atoms: C_1  and  C_2
REMARK    2  A    between atoms: C_2  and  C_3
REMARK    3  A    between atoms: C_2  and  C_4
REMARK    4  A    between atoms: N_11  and  C_12
REMARK    5  A    between atoms: C_13  and  C_14
REMARK    6  A    between atoms: C_14  and  C_15
REMARK    7  A    between atoms: C_15  and  C_16
REMARK    8  A    between atoms: C_16  and  C_17
REMARK    9  A    between atoms: C_19  and  C_20
REMARK   10  A    between atoms: C_20  and  C_21
REMARK   11  A    between atoms: C_20  and  C_22
REMARK   12  A    between atoms: N_29  and  C_30
REMARK                            x       y       z     vdW  Elec       q    Type
REMARK                         _______ _______ _______ _____ _____    ______ ____
ROOT
ATOM      1  C   UNL     1      -1.466  12.304  21.402  0.00  0.00    +0.000 C 
ENDROOT
BRANCH   1   2
ATOM      2  C   UNL     1      -2.422  13.266  20.658  0.00  0.00    +0.000 C 
BRANCH   2  12
ATOM      3  C   UNL     1      -4.462  11.653  18.561  0.00  0.00    +0.000 A 
ATOM      4  C   UNL     1      -5.471  10.964  17.834  0.00  0.00    +0.000 A 
ATOM      5  C   UNL     1      -6.805  11.034  18.185  0.00  0.00    +0.000 A 
ATOM      6  C   UNL     1      -7.162  11.786  19.277  0.00  0.00    +0.000 A 
ATOM      7  C   UNL     1      -6.200  12.451  20.052  0.00  0.00    +0.000 A 
ATOM      8  C   UNL     1      -6.725  13.173  21.104  0.00  0.00    +0.000 A 
ATOM      9  C   UNL     1      -5.895  13.868  21.935  0.00  0.00    +0.000 A 
ATOM     10  N   UNL     1      -4.557  13.864  21.782  0.00  0.00    +0.000 N 
ATOM     11  C   UNL     1      -3.811  14.715  22.739  0.00  0.00    +0.000 C 
ATOM     12  C   UNL     1      -3.938  13.146  20.778  0.00  0.00    +0.000 A 
ATOM     13  C   UNL     1      -4.793  12.415  19.786  0.00  0.00    +0.000 A 
BRANCH   3  15
ATOM     14  C   UNL     1      -2.387  10.260  18.584  0.00  0.00    +0.000 C 
ATOM     15  C   UNL     1      -3.057  11.494  17.973  0.00  0.00    +0.000 C 
ATOM     16  C   UNL     1      -2.936  11.434  16.438  0.00  0.00    +0.000 C 
ENDBRANCH   3  15
ENDBRANCH   2  12
ENDBRANCH   1   2
BRANCH   1  17
ATOM     17  C   UNL     1      -0.120  13.019  21.724  0.00  0.00    +0.000 C 
BRANCH  17  18
ATOM     18  C   UNL     1       0.953  12.812  20.665  0.00  0.00    +0.000 A 
ATOM     19  C   UNL     1       1.167  11.522  20.007  0.00  0.00    +0.000 A 
ATOM     20  C   UNL     1       0.838  10.160  20.443  0.00  0.00    +0.000 A 
ATOM     21  C   UNL     1       0.982   9.076  19.540  0.00  0.00    +0.000 A 
ATOM     22  C   UNL     1       1.487   9.248  18.267  0.00  0.00    +0.000 A 
ATOM     23  C   UNL     1       1.922  10.498  17.881  0.00  0.00    +0.000 A 
ATOM     24  C   UNL     1       1.792  11.602  18.727  0.00  0.00    +0.000 A 
ATOM     25  C   UNL     1       2.326  12.786  18.249  0.00  0.00    +0.000 A 
ATOM     26  C   UNL     1       2.266  13.919  19.020  0.00  0.00    +0.000 A 
ATOM     27  N   UNL     1       1.605  13.933  20.191  0.00  0.00    +0.000 N 
ATOM     28  C   UNL     1       1.647  15.210  20.949  0.00  0.00    +0.000 C 
BRANCH  20  29
ATOM     29  C   UNL     1       0.576   9.751  21.906  0.00  0.00    +0.000 C 
ATOM     30  C   UNL     1      -0.589   8.767  22.127  0.00  0.00    +0.000 C 
ATOM     31  C   UNL     1       1.851   9.136  22.501  0.00  0.00    +0.000 C 
ENDBRANCH  20  29
ENDBRANCH  17  18
ENDBRANCH   1  17
TORSDOF 6
ENDMDL
