MODEL 1
REMARK VINA RESULT:      -7.4      0.000      0.000
REMARK  Name = 
REMARK  11 active torsions:
REMARK  status: ('A' for Active; 'I' for Inactive)
REMARK    1  A    between atoms: C_1  and  C_2
REMARK    2  A    between atoms: C_2  and  C_3
REMARK    3  A    between atoms: C_5  and  C_6
REMARK    4  A    between atoms: N_8  and  C_9
REMARK    5  A    between atoms: C_9  and  C_10
REMARK    6  A    between atoms: C_10  and  C_11
REMARK    7  A    between atoms: C_11  and  N_12
REMARK    8  A    between atoms: N_12  and  C_13
REMARK    9  A    between atoms: C_13  and  C_14
REMARK   10  A    between atoms: C_20  and  C_21
REMARK   11  A    between atoms: C_20  and  C_22
REMARK                            x       y       z     vdW  Elec       q    Type
REMARK                         _______ _______ _______ _____ _____    ______ ____
ROOT
ATOM      1  C   UNL     1       0.593   9.835  18.698  0.00  0.00    +0.000 C 
ATOM      2  O   UNL     1       0.927   9.963  19.869  0.00  0.00    +0.000 OA
ATOM      3  N   UNL     1       1.336   9.163  17.753  0.00  0.00    +0.000 N 
ATOM      4  H   UNL     1       1.030   9.151  16.799  0.00  0.00    +0.000 HD
ENDROOT
BRANCH   1   9
ATOM      5  C   UNL     1      -2.888  10.861  15.522  0.00  0.00    +0.000 C 
ATOM      6  C   UNL     1      -2.665  10.791  17.038  0.00  0.00    +0.000 C 
ATOM      7  C   UNL     1      -3.970  10.350  17.714  0.00  0.00    +0.000 C 
ATOM      8  C   UNL     1      -1.538   9.867  17.362  0.00  0.00    +0.000 C 
ATOM      9  C   UNL     1      -0.648  10.455  18.174  0.00  0.00    +0.000 C 
ATOM     10  C   UNL     1      -1.114  11.838  18.547  0.00  0.00    +0.000 C 
ATOM     11  C   UNL     1      -0.053  12.937  18.395  0.00  0.00    +0.000 C 
ATOM     12  C   UNL     1      -1.695  11.902  19.970  0.00  0.00    +0.000 C 
ATOM     13  N   UNL     1      -2.233  12.104  17.578  0.00  0.00    +0.000 NA
ATOM     14  H   UNL     1      -1.852  12.655  16.809  0.00  0.00    +0.000 HD
ENDBRANCH   1   9
BRANCH   3  15
ATOM     15  C   UNL     1       2.575   8.472  18.072  0.00  0.00    +0.000 C 
BRANCH  15  16
ATOM     16  C   UNL     1       2.389   6.958  18.146  0.00  0.00    +0.000 C 
BRANCH  16  17
ATOM     17  C   UNL     1       2.556   6.457  19.584  0.00  0.00    +0.000 C 
BRANCH  17  18
ATOM     18  N   UNL     1       3.815   5.729  19.718  0.00  0.00    +0.000 NA
ATOM     19  H   UNL     1       4.012   5.530  20.698  0.00  0.00    +0.000 HD
BRANCH  18  20
ATOM     20  C   UNL     1       3.799   4.467  18.975  0.00  0.00    +0.000 C 
BRANCH  20  21
ATOM     21  C   UNL     1       4.919   4.431  17.959  0.00  0.00    +0.000 A 
ATOM     22  C   UNL     1       6.238   4.722  18.330  0.00  0.00    +0.000 A 
ATOM     23  C   UNL     1       7.259   4.724  17.375  0.00  0.00    +0.000 A 
ATOM     24  C   UNL     1       6.972   4.429  16.044  0.00  0.00    +0.000 A 
ATOM     25  C   UNL     1       5.668   4.117  15.665  0.00  0.00    +0.000 A 
ATOM     26  C   UNL     1       4.648   4.115  16.618  0.00  0.00    +0.000 A 
ENDBRANCH  20  21
ENDBRANCH  18  20
ENDBRANCH  17  18
ENDBRANCH  16  17
ENDBRANCH  15  16
ENDBRANCH   3  15
TORSDOF 7
ENDMDL
MODEL 2
REMARK VINA RESULT:      -7.3      1.931      8.558
REMARK  Name = 
REMARK  11 active torsions:
REMARK  status: ('A' for Active; 'I' for Inactive)
REMARK    1  A    between atoms: C_1  and  C_2
REMARK    2  A    between atoms: C_2  and  C_3
REMARK    3  A    between atoms: C_5  and  C_6
REMARK    4  A    between atoms: N_8  and  C_9
REMARK    5  A    between atoms: C_9  and  C_10
REMARK    6  A    between atoms: C_10  and  C_11
REMARK    7  A    between atoms: C_11  and  N_12
REMARK    8  A    between atoms: N_12  and  C_13
REMARK    9  A    between atoms: C_13  and  C_14
REMARK   10  A    between atoms: C_20  and  C_21
REMARK   11  A    between atoms: C_20  and  C_22
REMARK                            x       y       z     vdW  Elec       q    Type
REMARK                         _______ _______ _______ _____ _____    ______ ____
ROOT
ATOM      1  C   UNL     1       2.399   6.806  19.429  0.00  0.00    +0.000 C 
ATOM      2  O   UNL     1       2.219   7.548  20.386  0.00  0.00    +0.000 OA
ATOM      3  N   UNL     1       2.582   7.244  18.136  0.00  0.00    +0.000 N 
ATOM      4  H   UNL     1       2.662   6.577  17.393  0.00  0.00    +0.000 HD
ENDROOT
BRANCH   1   9
ATOM      5  C   UNL     1       1.627   2.540  21.543  0.00  0.00    +0.000 C 
ATOM      6  C   UNL     1       1.738   3.153  20.141  0.00  0.00    +0.000 C 
ATOM      7  C   UNL     1       0.803   2.396  19.190  0.00  0.00    +0.000 C 
ATOM      8  C   UNL     1       1.423   4.612  20.178  0.00  0.00    +0.000 C 
ATOM      9  C   UNL     1       2.382   5.331  19.579  0.00  0.00    +0.000 C 
ATOM     10  C   UNL     1       3.435   4.420  19.004  0.00  0.00    +0.000 C 
ATOM     11  C   UNL     1       4.880   4.814  19.342  0.00  0.00    +0.000 C 
ATOM     12  C   UNL     1       3.308   4.257  17.479  0.00  0.00    +0.000 C 
ATOM     13  N   UNL     1       3.133   3.090  19.638  0.00  0.00    +0.000 NA
ATOM     14  H   UNL     1       3.756   2.979  20.437  0.00  0.00    +0.000 HD
ENDBRANCH   1   9
BRANCH   3  15
ATOM     15  C   UNL     1       2.647   8.653  17.785  0.00  0.00    +0.000 C 
BRANCH  15  16
ATOM     16  C   UNL     1       1.268   9.308  17.766  0.00  0.00    +0.000 C 
BRANCH  16  17
ATOM     17  C   UNL     1       1.208  10.487  18.742  0.00  0.00    +0.000 C 
BRANCH  17  18
ATOM     18  N   UNL     1       0.056  11.332  18.440  0.00  0.00    +0.000 NA
ATOM     19  H   UNL     1      -0.020  11.490  17.437  0.00  0.00    +0.000 HD
BRANCH  18  20
ATOM     20  C   UNL     1      -1.195  10.740  18.920  0.00  0.00    +0.000 C 
BRANCH  20  21
ATOM     21  C   UNL     1      -2.234  10.726  17.821  0.00  0.00    +0.000 A 
ATOM     22  C   UNL     1      -2.059   9.942  16.673  0.00  0.00    +0.000 A 
ATOM     23  C   UNL     1      -3.007   9.966  15.646  0.00  0.00    +0.000 A 
ATOM     24  C   UNL     1      -4.141  10.768  15.760  0.00  0.00    +0.000 A 
ATOM     25  C   UNL     1      -4.339  11.535  16.906  0.00  0.00    +0.000 A 
ATOM     26  C   UNL     1      -3.393  11.512  17.932  0.00  0.00    +0.000 A 
ENDBRANCH  20  21
ENDBRANCH  18  20
ENDBRANCH  17  18
ENDBRANCH  16  17
ENDBRANCH  15  16
ENDBRANCH   3  15
TORSDOF 7
ENDMDL
MODEL 3
REMARK VINA RESULT:      -7.2      3.860      7.862
REMARK  Name = 
REMARK  11 active torsions:
REMARK  status: ('A' for Active; 'I' for Inactive)
REMARK    1  A    between atoms: C_1  and  C_2
REMARK    2  A    between atoms: C_2  and  C_3
REMARK    3  A    between atoms: C_5  and  C_6
REMARK    4  A    between atoms: N_8  and  C_9
REMARK    5  A    between atoms: C_9  and  C_10
REMARK    6  A    between atoms: C_10  and  C_11
REMARK    7  A    between atoms: C_11  and  N_12
REMARK    8  A    between atoms: N_12  and  C_13
REMARK    9  A    between atoms: C_13  and  C_14
REMARK   10  A    between atoms: C_20  and  C_21
REMARK   11  A    between atoms: C_20  and  C_22
REMARK                            x       y       z     vdW  Elec       q    Type
REMARK                         _______ _______ _______ _____ _____    ______ ____
ROOT
ATOM      1  C   UNL     1       5.181   4.007  18.786  0.00  0.00    +0.000 C 
ATOM      2  O   UNL     1       5.491   4.523  19.852  0.00  0.00    +0.000 OA
ATOM      3  N   UNL     1       4.417   2.865  18.676  0.00  0.00    +0.000 N 
ATOM      4  H   UNL     1       4.254   2.464  17.772  0.00  0.00    +0.000 HD
ENDROOT
BRANCH   1   9
ATOM      5  C   UNL     1       5.784   4.287  14.010  0.00  0.00    +0.000 C 
ATOM      6  C   UNL     1       5.760   5.195  15.246  0.00  0.00    +0.000 C 
ATOM      7  C   UNL     1       5.192   6.564  14.848  0.00  0.00    +0.000 C 
ATOM      8  C   UNL     1       4.966   4.568  16.344  0.00  0.00    +0.000 C 
ATOM      9  C   UNL     1       5.657   4.552  17.493  0.00  0.00    +0.000 C 
ATOM     10  C   UNL     1       6.988   5.234  17.312  0.00  0.00    +0.000 C 
ATOM     11  C   UNL     1       8.191   4.450  17.854  0.00  0.00    +0.000 C 
ATOM     12  C   UNL     1       7.010   6.653  17.907  0.00  0.00    +0.000 C 
ATOM     13  N   UNL     1       7.119   5.357  15.818  0.00  0.00    +0.000 NA
ATOM     14  H   UNL     1       7.696   4.582  15.494  0.00  0.00    +0.000 HD
ENDBRANCH   1   9
BRANCH   3  15
ATOM     15  C   UNL     1       3.841   2.189  19.826  0.00  0.00    +0.000 C 
BRANCH  15  16
ATOM     16  C   UNL     1       2.319   2.299  19.858  0.00  0.00    +0.000 C 
BRANCH  16  17
ATOM     17  C   UNL     1       1.873   3.464  20.747  0.00  0.00    +0.000 C 
BRANCH  17  18
ATOM     18  N   UNL     1       2.605   4.677  20.389  0.00  0.00    +0.000 NA
ATOM     19  H   UNL     1       2.766   4.716  19.384  0.00  0.00    +0.000 HD
BRANCH  18  20
ATOM     20  C   UNL     1       1.887   5.887  20.797  0.00  0.00    +0.000 C 
BRANCH  20  21
ATOM     21  C   UNL     1       2.028   6.970  19.750  0.00  0.00    +0.000 A 
ATOM     22  C   UNL     1       2.749   6.743  18.570  0.00  0.00    +0.000 A 
ATOM     23  C   UNL     1       2.905   7.763  17.627  0.00  0.00    +0.000 A 
ATOM     24  C   UNL     1       2.337   9.015  17.851  0.00  0.00    +0.000 A 
ATOM     25  C   UNL     1       1.600   9.248  19.010  0.00  0.00    +0.000 A 
ATOM     26  C   UNL     1       1.443   8.230  19.952  0.00  0.00    +0.000 A 
ENDBRANCH  20  21
ENDBRANCH  18  20
ENDBRANCH  17  18
ENDBRANCH  16  17
ENDBRANCH  15  16
ENDBRANCH   3  15
TORSDOF 7
ENDMDL
MODEL 4
REMARK VINA RESULT:      -7.2      2.436      8.276
REMARK  Name = 
REMARK  11 active torsions:
REMARK  status: ('A' for Active; 'I' for Inactive)
REMARK    1  A    between atoms: C_1  and  C_2
REMARK    2  A    between atoms: C_2  and  C_3
REMARK    3  A    between atoms: C_5  and  C_6
REMARK    4  A    between atoms: N_8  and  C_9
REMARK    5  A    between atoms: C_9  and  C_10
REMARK    6  A    between atoms: C_10  and  C_11
REMARK    7  A    between atoms: C_11  and  N_12
REMARK    8  A    between atoms: N_12  and  C_13
REMARK    9  A    between atoms: C_13  and  C_14
REMARK   10  A    between atoms: C_20  and  C_21
REMARK   11  A    between atoms: C_20  and  C_22
REMARK                            x       y       z     vdW  Elec       q    Type
REMARK                         _______ _______ _______ _____ _____    ______ ____
ROOT
ATOM      1  C   UNL     1       1.977   7.186  20.167  0.00  0.00    +0.000 C 
ATOM      2  O   UNL     1       2.254   7.921  19.228  0.00  0.00    +0.000 OA
ATOM      3  N   UNL     1       1.581   7.636  21.408  0.00  0.00    +0.000 N 
ATOM      4  H   UNL     1       1.430   6.978  22.148  0.00  0.00    +0.000 HD
ENDROOT
BRANCH   1   9
ATOM      5  C   UNL     1       1.823   2.579  21.584  0.00  0.00    +0.000 C 
ATOM      6  C   UNL     1       1.708   3.419  20.306  0.00  0.00    +0.000 C 
ATOM      7  C   UNL     1       0.725   2.736  19.346  0.00  0.00    +0.000 C 
ATOM      8  C   UNL     1       1.283   4.814  20.628  0.00  0.00    +0.000 C 
ATOM      9  C   UNL     1       2.098   5.713  20.060  0.00  0.00    +0.000 C 
ATOM     10  C   UNL     1       3.142   5.017  19.225  0.00  0.00    +0.000 C 
ATOM     11  C   UNL     1       4.581   5.495  19.466  0.00  0.00    +0.000 C 
ATOM     12  C   UNL     1       2.839   5.092  17.719  0.00  0.00    +0.000 C 
ATOM     13  N   UNL     1       3.029   3.579  19.649  0.00  0.00    +0.000 NA
ATOM     14  H   UNL     1       3.754   3.403  20.344  0.00  0.00    +0.000 HD
ENDBRANCH   1   9
BRANCH   3  15
ATOM     15  C   UNL     1       1.386   9.045  21.709  0.00  0.00    +0.000 C 
BRANCH  15  16
ATOM     16  C   UNL     1       0.278   9.268  22.735  0.00  0.00    +0.000 C 
BRANCH  16  17
ATOM     17  C   UNL     1      -0.434  10.601  22.488  0.00  0.00    +0.000 C 
BRANCH  17  18
ATOM     18  N   UNL     1       0.381  11.455  21.627  0.00  0.00    +0.000 NA
ATOM     19  H   UNL     1       0.948  10.891  20.996  0.00  0.00    +0.000 HD
BRANCH  18  20
ATOM     20  C   UNL     1      -0.440  12.370  20.832  0.00  0.00    +0.000 C 
BRANCH  20  21
ATOM     21  C   UNL     1      -1.043  11.652  19.645  0.00  0.00    +0.000 A 
ATOM     22  C   UNL     1      -2.362  11.904  19.242  0.00  0.00    +0.000 A 
ATOM     23  C   UNL     1      -2.920  11.207  18.168  0.00  0.00    +0.000 A 
ATOM     24  C   UNL     1      -2.166  10.257  17.482  0.00  0.00    +0.000 A 
ATOM     25  C   UNL     1      -0.847  10.011  17.859  0.00  0.00    +0.000 A 
ATOM     26  C   UNL     1      -0.288  10.708  18.931  0.00  0.00    +0.000 A 
ENDBRANCH  20  21
ENDBRANCH  18  20
ENDBRANCH  17  18
ENDBRANCH  16  17
ENDBRANCH  15  16
ENDBRANCH   3  15
TORSDOF 7
ENDMDL
MODEL 5
REMARK VINA RESULT:      -7.1      2.250      8.491
REMARK  Name = 
REMARK  11 active torsions:
REMARK  status: ('A' for Active; 'I' for Inactive)
REMARK    1  A    between atoms: C_1  and  C_2
REMARK    2  A    between atoms: C_2  and  C_3
REMARK    3  A    between atoms: C_5  and  C_6
REMARK    4  A    between atoms: N_8  and  C_9
REMARK    5  A    between atoms: C_9  and  C_10
REMARK    6  A    between atoms: C_10  and  C_11
REMARK    7  A    between atoms: C_11  and  N_12
REMARK    8  A    between atoms: N_12  and  C_13
REMARK    9  A    between atoms: C_13  and  C_14
REMARK   10  A    between atoms: C_20  and  C_21
REMARK   11  A    between atoms: C_20  and  C_22
REMARK                            x       y       z     vdW  Elec       q    Type
REMARK                         _______ _______ _______ _____ _____    ______ ____
ROOT
ATOM      1  C   UNL     1       2.017   7.087  20.081  0.00  0.00    +0.000 C 
ATOM      2  O   UNL     1       2.298   7.809  19.133  0.00  0.00    +0.000 OA
ATOM      3  N   UNL     1       1.621   7.553  21.315  0.00  0.00    +0.000 N 
ATOM      4  H   UNL     1       1.467   6.905  22.063  0.00  0.00    +0.000 HD
ENDROOT
BRANCH   1   9
ATOM      5  C   UNL     1       1.806   2.496  21.543  0.00  0.00    +0.000 C 
ATOM      6  C   UNL     1       1.727   3.323  20.253  0.00  0.00    +0.000 C 
ATOM      7  C   UNL     1       0.765   2.633  19.277  0.00  0.00    +0.000 C 
ATOM      8  C   UNL     1       1.300   4.722  20.550  0.00  0.00    +0.000 C 
ATOM      9  C   UNL     1       2.134   5.611  19.993  0.00  0.00    +0.000 C 
ATOM     10  C   UNL     1       3.195   4.903  19.191  0.00  0.00    +0.000 C 
ATOM     11  C   UNL     1       4.630   5.377  19.462  0.00  0.00    +0.000 C 
ATOM     12  C   UNL     1       2.929   4.962  17.677  0.00  0.00    +0.000 C 
ATOM     13  N   UNL     1       3.064   3.469  19.628  0.00  0.00    +0.000 NA
ATOM     14  H   UNL     1       3.771   3.298  20.342  0.00  0.00    +0.000 HD
ENDBRANCH   1   9
BRANCH   3  15
ATOM     15  C   UNL     1       1.430   8.966  21.598  0.00  0.00    +0.000 C 
BRANCH  15  16
ATOM     16  C   UNL     1       0.002   9.424  21.314  0.00  0.00    +0.000 C 
BRANCH  16  17
ATOM     17  C   UNL     1      -0.037  10.917  20.976  0.00  0.00    +0.000 C 
BRANCH  17  18
ATOM     18  N   UNL     1       0.568  11.152  19.667  0.00  0.00    +0.000 NA
ATOM     19  H   UNL     1       0.665  10.278  19.154  0.00  0.00    +0.000 HD
BRANCH  18  20
ATOM     20  C   UNL     1      -0.221  12.087  18.862  0.00  0.00    +0.000 C 
BRANCH  20  21
ATOM     21  C   UNL     1      -1.521  11.449  18.425  0.00  0.00    +0.000 A 
ATOM     22  C   UNL     1      -1.527  10.282  17.649  0.00  0.00    +0.000 A 
ATOM     23  C   UNL     1      -2.734   9.723  17.219  0.00  0.00    +0.000 A 
ATOM     24  C   UNL     1      -3.944  10.321  17.565  0.00  0.00    +0.000 A 
ATOM     25  C   UNL     1      -3.953  11.469  18.353  0.00  0.00    +0.000 A 
ATOM     26  C   UNL     1      -2.749  12.028  18.784  0.00  0.00    +0.000 A 
ENDBRANCH  20  21
ENDBRANCH  18  20
ENDBRANCH  17  18
ENDBRANCH  16  17
ENDBRANCH  15  16
ENDBRANCH   3  15
TORSDOF 7
ENDMDL
MODEL 6
REMARK VINA RESULT:      -7.1      4.274      7.828
REMARK  Name = 
REMARK  11 active torsions:
REMARK  status: ('A' for Active; 'I' for Inactive)
REMARK    1  A    between atoms: C_1  and  C_2
REMARK    2  A    between atoms: C_2  and  C_3
REMARK    3  A    between atoms: C_5  and  C_6
REMARK    4  A    between atoms: N_8  and  C_9
REMARK    5  A    between atoms: C_9  and  C_10
REMARK    6  A    between atoms: C_10  and  C_11
REMARK    7  A    between atoms: C_11  and  N_12
REMARK    8  A    between atoms: N_12  and  C_13
REMARK    9  A    between atoms: C_13  and  C_14
REMARK   10  A    between atoms: C_20  and  C_21
REMARK   11  A    between atoms: C_20  and  C_22
REMARK                            x       y       z     vdW  Elec       q    Type
REMARK                         _______ _______ _______ _____ _____    ______ ____
ROOT
ATOM      1  C   UNL     1       5.294   3.931  18.922  0.00  0.00    +0.000 C 
ATOM      2  O   UNL     1       5.553   4.466  19.992  0.00  0.00    +0.000 OA
ATOM      3  N   UNL     1       4.673   2.707  18.801  0.00  0.00    +0.000 N 
ATOM      4  H   UNL     1       4.549   2.302  17.893  0.00  0.00    +0.000 HD
ENDROOT
BRANCH   1   9
ATOM      5  C   UNL     1       5.595   4.471  14.139  0.00  0.00    +0.000 C 
ATOM      6  C   UNL     1       5.643   5.312  15.421  0.00  0.00    +0.000 C 
ATOM      7  C   UNL     1       5.045   6.695  15.134  0.00  0.00    +0.000 C 
ATOM      8  C   UNL     1       4.924   4.620  16.532  0.00  0.00    +0.000 C 
ATOM      9  C   UNL     1       5.685   4.549  17.632  0.00  0.00    +0.000 C 
ATOM     10  C   UNL     1       6.999   5.251  17.405  0.00  0.00    +0.000 C 
ATOM     11  C   UNL     1       8.238   4.449  17.828  0.00  0.00    +0.000 C 
ATOM     12  C   UNL     1       7.051   6.636  18.073  0.00  0.00    +0.000 C 
ATOM     13  N   UNL     1       7.035   5.454  15.915  0.00  0.00    +0.000 NA
ATOM     14  H   UNL     1       7.595   4.702  15.514  0.00  0.00    +0.000 HD
ENDBRANCH   1   9
BRANCH   3  15
ATOM     15  C   UNL     1       4.197   1.950  19.947  0.00  0.00    +0.000 C 
BRANCH  15  16
ATOM     16  C   UNL     1       3.107   2.692  20.716  0.00  0.00    +0.000 C 
BRANCH  16  17
ATOM     17  C   UNL     1       1.730   2.437  20.095  0.00  0.00    +0.000 C 
BRANCH  17  18
ATOM     18  N   UNL     1       0.938   3.664  20.109  0.00  0.00    +0.000 NA
ATOM     19  H   UNL     1       0.003   3.484  20.473  0.00  0.00    +0.000 HD
BRANCH  18  20
ATOM     20  C   UNL     1       1.566   4.710  20.919  0.00  0.00    +0.000 C 
BRANCH  20  21
ATOM     21  C   UNL     1       1.818   5.949  20.089  0.00  0.00    +0.000 A 
ATOM     22  C   UNL     1       1.550   7.226  20.600  0.00  0.00    +0.000 A 
ATOM     23  C   UNL     1       1.750   8.362  19.810  0.00  0.00    +0.000 A 
ATOM     24  C   UNL     1       2.225   8.233  18.507  0.00  0.00    +0.000 A 
ATOM     25  C   UNL     1       2.516   6.970  17.994  0.00  0.00    +0.000 A 
ATOM     26  C   UNL     1       2.317   5.835  18.782  0.00  0.00    +0.000 A 
ENDBRANCH  20  21
ENDBRANCH  18  20
ENDBRANCH  17  18
ENDBRANCH  16  17
ENDBRANCH  15  16
ENDBRANCH   3  15
TORSDOF 7
ENDMDL
MODEL 7
REMARK VINA RESULT:      -7.1      5.067      7.794
REMARK  Name = 
REMARK  11 active torsions:
REMARK  status: ('A' for Active; 'I' for Inactive)
REMARK    1  A    between atoms: C_1  and  C_2
REMARK    2  A    between atoms: C_2  and  C_3
REMARK    3  A    between atoms: C_5  and  C_6
REMARK    4  A    between atoms: N_8  and  C_9
REMARK    5  A    between atoms: C_9  and  C_10
REMARK    6  A    between atoms: C_10  and  C_11
REMARK    7  A    between atoms: C_11  and  N_12
REMARK    8  A    between atoms: N_12  and  C_13
REMARK    9  A    between atoms: C_13  and  C_14
REMARK   10  A    between atoms: C_20  and  C_21
REMARK   11  A    between atoms: C_20  and  C_22
REMARK                            x       y       z     vdW  Elec       q    Type
REMARK                         _______ _______ _______ _____ _____    ______ ____
ROOT
ATOM      1  C   UNL     1       5.697   4.352  18.985  0.00  0.00    +0.000 C 
ATOM      2  O   UNL     1       5.993   4.915  20.031  0.00  0.00    +0.000 OA
ATOM      3  N   UNL     1       5.039   3.144  18.919  0.00  0.00    +0.000 N 
ATOM      4  H   UNL     1       4.884   2.712  18.028  0.00  0.00    +0.000 HD
ENDROOT
BRANCH   1   9
ATOM      5  C   UNL     1       7.221   4.365  14.410  0.00  0.00    +0.000 C 
ATOM      6  C   UNL     1       6.360   5.204  15.363  0.00  0.00    +0.000 C 
ATOM      7  C   UNL     1       5.230   5.865  14.565  0.00  0.00    +0.000 C 
ATOM      8  C   UNL     1       5.829   4.359  16.474  0.00  0.00    +0.000 C 
ATOM      9  C   UNL     1       6.080   4.914  17.667  0.00  0.00    +0.000 C 
ATOM     10  C   UNL     1       6.761   6.246  17.492  0.00  0.00    +0.000 C 
ATOM     11  C   UNL     1       8.009   6.450  18.364  0.00  0.00    +0.000 C 
ATOM     12  C   UNL     1       5.806   7.431  17.709  0.00  0.00    +0.000 C 
ATOM     13  N   UNL     1       7.173   6.241  16.045  0.00  0.00    +0.000 NA
ATOM     14  H   UNL     1       8.152   5.959  16.003  0.00  0.00    +0.000 HD
ENDBRANCH   1   9
BRANCH   3  15
ATOM     15  C   UNL     1       4.564   2.441  20.099  0.00  0.00    +0.000 C 
BRANCH  15  16
ATOM     16  C   UNL     1       3.251   1.705  19.843  0.00  0.00    +0.000 C 
BRANCH  16  17
ATOM     17  C   UNL     1       3.133   1.293  18.372  0.00  0.00    +0.000 C 
BRANCH  17  18
ATOM     18  N   UNL     1       2.232   2.201  17.667  0.00  0.00    +0.000 NA
ATOM     19  H   UNL     1       1.744   1.713  16.918  0.00  0.00    +0.000 HD
BRANCH  18  20
ATOM     20  C   UNL     1       1.241   2.795  18.567  0.00  0.00    +0.000 C 
BRANCH  20  21
ATOM     21  C   UNL     1       1.615   4.220  18.908  0.00  0.00    +0.000 A 
ATOM     22  C   UNL     1       2.123   5.086  17.930  0.00  0.00    +0.000 A 
ATOM     23  C   UNL     1       2.503   6.389  18.265  0.00  0.00    +0.000 A 
ATOM     24  C   UNL     1       2.372   6.840  19.577  0.00  0.00    +0.000 A 
ATOM     25  C   UNL     1       1.848   5.997  20.554  0.00  0.00    +0.000 A 
ATOM     26  C   UNL     1       1.469   4.696  20.221  0.00  0.00    +0.000 A 
ENDBRANCH  20  21
ENDBRANCH  18  20
ENDBRANCH  17  18
ENDBRANCH  16  17
ENDBRANCH  15  16
ENDBRANCH   3  15
TORSDOF 7
ENDMDL
MODEL 8
REMARK VINA RESULT:      -7.0      5.065      8.100
REMARK  Name = 
REMARK  11 active torsions:
REMARK  status: ('A' for Active; 'I' for Inactive)
REMARK    1  A    between atoms: C_1  and  C_2
REMARK    2  A    between atoms: C_2  and  C_3
REMARK    3  A    between atoms: C_5  and  C_6
REMARK    4  A    between atoms: N_8  and  C_9
REMARK    5  A    between atoms: C_9  and  C_10
REMARK    6  A    between atoms: C_10  and  C_11
REMARK    7  A    between atoms: C_11  and  N_12
REMARK    8  A    between atoms: N_12  and  C_13
REMARK    9  A    between atoms: C_13  and  C_14
REMARK   10  A    between atoms: C_20  and  C_21
REMARK   11  A    between atoms: C_20  and  C_22
REMARK                            x       y       z     vdW  Elec       q    Type
REMARK                         _______ _______ _______ _____ _____    ______ ____
ROOT
ATOM      1  C   UNL     1       4.814   4.517  17.430  0.00  0.00    +0.000 C 
ATOM      2  O   UNL     1       4.872   4.255  16.235  0.00  0.00    +0.000 OA
ATOM      3  N   UNL     1       5.850   5.072  18.148  0.00  0.00    +0.000 N 
ATOM      4  H   UNL     1       5.753   5.203  19.137  0.00  0.00    +0.000 HD
ENDROOT
BRANCH   1   9
ATOM      5  C   UNL     1       0.891   2.089  18.832  0.00  0.00    +0.000 C 
ATOM      6  C   UNL     1       1.951   3.039  19.404  0.00  0.00    +0.000 C 
ATOM      7  C   UNL     1       2.206   2.675  20.872  0.00  0.00    +0.000 C 
ATOM      8  C   UNL     1       3.205   2.976  18.595  0.00  0.00    +0.000 C 
ATOM      9  C   UNL     1       3.610   4.202  18.235  0.00  0.00    +0.000 C 
ATOM     10  C   UNL     1       2.700   5.248  18.823  0.00  0.00    +0.000 C 
ATOM     11  C   UNL     1       2.216   6.312  17.828  0.00  0.00    +0.000 C 
ATOM     12  C   UNL     1       3.319   5.953  20.042  0.00  0.00    +0.000 C 
ATOM     13  N   UNL     1       1.515   4.453  19.300  0.00  0.00    +0.000 NA
ATOM     14  H   UNL     1       0.793   4.513  18.582  0.00  0.00    +0.000 HD
ENDBRANCH   1   9
BRANCH   3  15
ATOM     15  C   UNL     1       7.108   5.469  17.537  0.00  0.00    +0.000 C 
BRANCH  15  16
ATOM     16  C   UNL     1       7.865   6.488  18.386  0.00  0.00    +0.000 C 
BRANCH  16  17
ATOM     17  C   UNL     1       7.884   7.860  17.705  0.00  0.00    +0.000 C 
BRANCH  17  18
ATOM     18  N   UNL     1       8.501   8.849  18.585  0.00  0.00    +0.000 NA
ATOM     19  H   UNL     1       9.427   8.541  18.878  0.00  0.00    +0.000 HD
BRANCH  18  20
ATOM     20  C   UNL     1       8.624  10.156  17.936  0.00  0.00    +0.000 C 
BRANCH  20  21
ATOM     21  C   UNL     1       9.709  10.979  18.594  0.00  0.00    +0.000 A 
ATOM     22  C   UNL     1      10.715  11.588  17.831  0.00  0.00    +0.000 A 
ATOM     23  C   UNL     1      11.735  12.313  18.453  0.00  0.00    +0.000 A 
ATOM     24  C   UNL     1      11.756  12.442  19.841  0.00  0.00    +0.000 A 
ATOM     25  C   UNL     1      10.751  11.860  20.609  0.00  0.00    +0.000 A 
ATOM     26  C   UNL     1       9.731  11.136  19.989  0.00  0.00    +0.000 A 
ENDBRANCH  20  21
ENDBRANCH  18  20
ENDBRANCH  17  18
ENDBRANCH  16  17
ENDBRANCH  15  16
ENDBRANCH   3  15
TORSDOF 7
ENDMDL
MODEL 9
REMARK VINA RESULT:      -7.0      1.873      9.075
REMARK  Name = 
REMARK  11 active torsions:
REMARK  status: ('A' for Active; 'I' for Inactive)
REMARK    1  A    between atoms: C_1  and  C_2
REMARK    2  A    between atoms: C_2  and  C_3
REMARK    3  A    between atoms: C_5  and  C_6
REMARK    4  A    between atoms: N_8  and  C_9
REMARK    5  A    between atoms: C_9  and  C_10
REMARK    6  A    between atoms: C_10  and  C_11
REMARK    7  A    between atoms: C_11  and  N_12
REMARK    8  A    between atoms: N_12  and  C_13
REMARK    9  A    between atoms: C_13  and  C_14
REMARK   10  A    between atoms: C_20  and  C_21
REMARK   11  A    between atoms: C_20  and  C_22
REMARK                            x       y       z     vdW  Elec       q    Type
REMARK                         _______ _______ _______ _____ _____    ______ ____
ROOT
ATOM      1  C   UNL     1       2.724   5.736  18.237  0.00  0.00    +0.000 C 
ATOM      2  O   UNL     1       1.657   5.200  18.504  0.00  0.00    +0.000 OA
ATOM      3  N   UNL     1       2.999   7.066  18.470  0.00  0.00    +0.000 N 
ATOM      4  H   UNL     1       3.874   7.451  18.168  0.00  0.00    +0.000 HD
ENDROOT
BRANCH   1   9
ATOM      5  C   UNL     1       5.812   4.507  14.742  0.00  0.00    +0.000 C 
ATOM      6  C   UNL     1       5.693   4.468  16.271  0.00  0.00    +0.000 C 
ATOM      7  C   UNL     1       7.087   4.646  16.885  0.00  0.00    +0.000 C 
ATOM      8  C   UNL     1       4.742   5.514  16.751  0.00  0.00    +0.000 C 
ATOM      9  C   UNL     1       3.822   4.991  17.574  0.00  0.00    +0.000 C 
ATOM     10  C   UNL     1       4.091   3.526  17.796  0.00  0.00    +0.000 C 
ATOM     11  C   UNL     1       2.866   2.615  17.630  0.00  0.00    +0.000 C 
ATOM     12  C   UNL     1       4.738   3.244  19.163  0.00  0.00    +0.000 C 
ATOM     13  N   UNL     1       5.097   3.189  16.729  0.00  0.00    +0.000 NA
ATOM     14  H   UNL     1       4.591   2.774  15.947  0.00  0.00    +0.000 HD
ENDBRANCH   1   9
BRANCH   3  15
ATOM     15  C   UNL     1       2.060   7.960  19.126  0.00  0.00    +0.000 C 
BRANCH  15  16
ATOM     16  C   UNL     1       1.711   9.168  18.260  0.00  0.00    +0.000 C 
BRANCH  16  17
ATOM     17  C   UNL     1       1.092  10.286  19.105  0.00  0.00    +0.000 C 
BRANCH  17  18
ATOM     18  N   UNL     1       0.172  11.079  18.292  0.00  0.00    +0.000 NA
ATOM     19  H   UNL     1       0.170  10.750  17.328  0.00  0.00    +0.000 HD
BRANCH  18  20
ATOM     20  C   UNL     1      -1.196  11.027  18.811  0.00  0.00    +0.000 C 
BRANCH  20  21
ATOM     21  C   UNL     1      -2.188  10.844  17.683  0.00  0.00    +0.000 A 
ATOM     22  C   UNL     1      -3.401  11.545  17.669  0.00  0.00    +0.000 A 
ATOM     23  C   UNL     1      -4.327  11.339  16.642  0.00  0.00    +0.000 A 
ATOM     24  C   UNL     1      -4.046  10.437  15.617  0.00  0.00    +0.000 A 
ATOM     25  C   UNL     1      -2.835   9.749  15.608  0.00  0.00    +0.000 A 
ATOM     26  C   UNL     1      -1.909   9.955  16.633  0.00  0.00    +0.000 A 
ENDBRANCH  20  21
ENDBRANCH  18  20
ENDBRANCH  17  18
ENDBRANCH  16  17
ENDBRANCH  15  16
ENDBRANCH   3  15
TORSDOF 7
ENDMDL
