MODEL 1
REMARK VINA RESULT:      -8.0      0.000      0.000
REMARK  Name = 
REMARK  5 active torsions:
REMARK  status: ('A' for Active; 'I' for Inactive)
REMARK    1  A    between atoms: C_1  and  C_2
REMARK    2  A    between atoms: C_5  and  N_6
REMARK    3  A    between atoms: N_9  and  C_10
REMARK    4  A    between atoms: C_10  and  C_11
REMARK    5  A    between atoms: C_25  and  C_26
REMARK                            x       y       z     vdW  Elec       q    Type
REMARK                         _______ _______ _______ _____ _____    ______ ____
ROOT
ATOM      1  N   UNL     1      -0.481  11.196  20.879  0.00  0.00    +0.000 N 
ATOM      2  C   UNL     1       0.710  10.437  20.877  0.00  0.00    +0.000 C 
ATOM      3  O   UNL     1       1.461  10.236  21.822  0.00  0.00    +0.000 OA
ATOM      4  N   UNL     1       0.855   9.860  19.637  0.00  0.00    +0.000 N 
ATOM      5  C   UNL     1      -0.249  10.097  18.881  0.00  0.00    +0.000 C 
ATOM      6  O   UNL     1      -0.527   9.581  17.810  0.00  0.00    +0.000 OA
ATOM      7  C   UNL     1      -1.105  11.158  19.565  0.00  0.00    +0.000 C 
ATOM      8  C   UNL     1      -0.955  12.478  18.822  0.00  0.00    +0.000 C 
ENDROOT
BRANCH   1  13
ATOM      9  C   UNL     1      -2.666  15.146  24.462  0.00  0.00    +0.000 C 
ATOM     10  C   UNL     1      -2.038  14.074  23.619  0.00  0.00    +0.000 A 
ATOM     11  C   UNL     1      -0.814  14.283  22.976  0.00  0.00    +0.000 A 
ATOM     12  C   UNL     1      -0.261  13.304  22.134  0.00  0.00    +0.000 A 
ATOM     13  C   UNL     1      -0.930  12.103  21.887  0.00  0.00    +0.000 A 
ATOM     14  C   UNL     1      -2.124  11.872  22.596  0.00  0.00    +0.000 A 
ATOM     15  C   UNL     1      -2.671  12.841  23.451  0.00  0.00    +0.000 A 
ENDBRANCH   1  13
BRANCH   4  16
ATOM     16  C   UNL     1       1.937   8.945  19.228  0.00  0.00    +0.000 C 
BRANCH  16  17
ATOM     17  C   UNL     1       1.824   7.549  19.882  0.00  0.00    +0.000 C 
ATOM     18  O   UNL     1       1.374   7.486  21.038  0.00  0.00    +0.000 OA
ATOM     19  N   UNL     1       2.187   6.360  19.204  0.00  0.00    +0.000 N 
ATOM     20  C   UNL     1       1.806   5.116  19.907  0.00  0.00    +0.000 C 
ATOM     21  C   UNL     1       1.417   4.001  18.955  0.00  0.00    +0.000 C 
ATOM     22  C   UNL     1       2.613   3.626  18.113  0.00  0.00    +0.000 C 
ATOM     23  C   UNL     1       3.384   4.836  17.649  0.00  0.00    +0.000 A 
ATOM     24  C   UNL     1       4.442   4.571  16.752  0.00  0.00    +0.000 A 
ATOM     25  C   UNL     1       5.229   5.601  16.267  0.00  0.00    +0.000 A 
ATOM     26  C   UNL     1       4.932   6.903  16.638  0.00  0.00    +0.000 A 
ATOM     27  C   UNL     1       3.889   7.176  17.539  0.00  0.00    +0.000 A 
ATOM     28  C   UNL     1       3.123   6.157  18.113  0.00  0.00    +0.000 A 
ENDBRANCH  16  17
ENDBRANCH   4  16
TORSDOF 3
ENDMDL
MODEL 2
REMARK VINA RESULT:      -7.9      2.337      3.613
REMARK  Name = 
REMARK  5 active torsions:
REMARK  status: ('A' for Active; 'I' for Inactive)
REMARK    1  A    between atoms: C_1  and  C_2
REMARK    2  A    between atoms: C_5  and  N_6
REMARK    3  A    between atoms: N_9  and  C_10
REMARK    4  A    between atoms: C_10  and  C_11
REMARK    5  A    between atoms: C_25  and  C_26
REMARK                            x       y       z     vdW  Elec       q    Type
REMARK                         _______ _______ _______ _____ _____    ______ ____
ROOT
ATOM      1  N   UNL     1      -1.421  11.341  18.384  0.00  0.00    +0.000 N 
ATOM      2  C   UNL     1      -0.650  10.187  18.112  0.00  0.00    +0.000 C 
ATOM      3  O   UNL     1      -0.987   9.210  17.457  0.00  0.00    +0.000 OA
ATOM      4  N   UNL     1       0.609  10.374  18.633  0.00  0.00    +0.000 N 
ATOM      5  C   UNL     1       0.734  11.641  19.107  0.00  0.00    +0.000 C 
ATOM      6  O   UNL     1       1.763  12.192  19.463  0.00  0.00    +0.000 OA
ATOM      7  C   UNL     1      -0.645  12.291  19.165  0.00  0.00    +0.000 C 
ATOM      8  C   UNL     1      -1.109  12.355  20.613  0.00  0.00    +0.000 C 
ENDROOT
BRANCH   1  13
ATOM      9  C   UNL     1      -6.944  12.659  17.402  0.00  0.00    +0.000 C 
ATOM     10  C   UNL     1      -5.541  12.209  17.689  0.00  0.00    +0.000 A 
ATOM     11  C   UNL     1      -4.983  12.345  18.963  0.00  0.00    +0.000 A 
ATOM     12  C   UNL     1      -3.649  11.985  19.214  0.00  0.00    +0.000 A 
ATOM     13  C   UNL     1      -2.825  11.510  18.189  0.00  0.00    +0.000 A 
ATOM     14  C   UNL     1      -3.416  11.310  16.927  0.00  0.00    +0.000 A 
ATOM     15  C   UNL     1      -4.754  11.652  16.679  0.00  0.00    +0.000 A 
ENDBRANCH   1  13
BRANCH   4  16
ATOM     16  C   UNL     1       1.740   9.434  18.524  0.00  0.00    +0.000 C 
BRANCH  16  17
ATOM     17  C   UNL     1       1.749   8.370  19.644  0.00  0.00    +0.000 C 
ATOM     18  O   UNL     1       1.356   8.712  20.772  0.00  0.00    +0.000 OA
ATOM     19  N   UNL     1       2.160   7.033  19.420  0.00  0.00    +0.000 N 
ATOM     20  C   UNL     1       1.893   6.115  20.548  0.00  0.00    +0.000 C 
ATOM     21  C   UNL     1       1.537   4.713  20.092  0.00  0.00    +0.000 C 
ATOM     22  C   UNL     1       2.718   4.112  19.366  0.00  0.00    +0.000 C 
ATOM     23  C   UNL     1       3.386   5.103  18.447  0.00  0.00    +0.000 A 
ATOM     24  C   UNL     1       4.418   4.578  17.640  0.00  0.00    +0.000 A 
ATOM     25  C   UNL     1       5.112   5.395  16.764  0.00  0.00    +0.000 A 
ATOM     26  C   UNL     1       4.746   6.727  16.658  0.00  0.00    +0.000 A 
ATOM     27  C   UNL     1       3.728   7.263  17.465  0.00  0.00    +0.000 A 
ATOM     28  C   UNL     1       3.058   6.489  18.418  0.00  0.00    +0.000 A 
ENDBRANCH  16  17
ENDBRANCH   4  16
TORSDOF 3
ENDMDL
MODEL 3
REMARK VINA RESULT:      -7.7      3.157      8.695
REMARK  Name = 
REMARK  5 active torsions:
REMARK  status: ('A' for Active; 'I' for Inactive)
REMARK    1  A    between atoms: C_1  and  C_2
REMARK    2  A    between atoms: C_5  and  N_6
REMARK    3  A    between atoms: N_9  and  C_10
REMARK    4  A    between atoms: C_10  and  C_11
REMARK    5  A    between atoms: C_25  and  C_26
REMARK                            x       y       z     vdW  Elec       q    Type
REMARK                         _______ _______ _______ _____ _____    ______ ____
ROOT
ATOM      1  N   UNL     1       0.751  10.786  19.454  0.00  0.00    +0.000 N 
ATOM      2  C   UNL     1      -0.614  11.150  19.432  0.00  0.00    +0.000 C 
ATOM      3  O   UNL     1      -1.578  10.403  19.327  0.00  0.00    +0.000 OA
ATOM      4  N   UNL     1      -0.705  12.506  19.645  0.00  0.00    +0.000 N 
ATOM      5  C   UNL     1       0.520  13.015  19.940  0.00  0.00    +0.000 C 
ATOM      6  O   UNL     1       0.767  14.134  20.359  0.00  0.00    +0.000 OA
ATOM      7  C   UNL     1       1.583  11.966  19.631  0.00  0.00    +0.000 C 
ATOM      8  C   UNL     1       2.310  12.351  18.350  0.00  0.00    +0.000 C 
ENDROOT
BRANCH   1  13
ATOM      9  C   UNL     1       3.630   5.947  18.227  0.00  0.00    +0.000 C 
ATOM     10  C   UNL     1       2.783   7.154  18.509  0.00  0.00    +0.000 A 
ATOM     11  C   UNL     1       2.566   8.131  17.533  0.00  0.00    +0.000 A 
ATOM     12  C   UNL     1       1.829   9.292  17.819  0.00  0.00    +0.000 A 
ATOM     13  C   UNL     1       1.317   9.524  19.098  0.00  0.00    +0.000 A 
ATOM     14  C   UNL     1       1.479   8.503  20.053  0.00  0.00    +0.000 A 
ATOM     15  C   UNL     1       2.200   7.334  19.765  0.00  0.00    +0.000 A 
ENDBRANCH   1  13
BRANCH   4  16
ATOM     16  C   UNL     1      -1.953  13.285  19.752  0.00  0.00    +0.000 C 
BRANCH  16  17
ATOM     17  C   UNL     1      -2.709  13.033  21.076  0.00  0.00    +0.000 C 
ATOM     18  O   UNL     1      -2.049  13.031  22.128  0.00  0.00    +0.000 OA
ATOM     19  N   UNL     1      -4.111  12.836  21.126  0.00  0.00    +0.000 N 
ATOM     20  C   UNL     1      -4.677  12.830  22.492  0.00  0.00    +0.000 C 
ATOM     21  C   UNL     1      -6.066  13.437  22.553  0.00  0.00    +0.000 C 
ATOM     22  C   UNL     1      -7.013  12.594  21.730  0.00  0.00    +0.000 C 
ATOM     23  C   UNL     1      -6.394  12.150  20.429  0.00  0.00    +0.000 A 
ATOM     24  C   UNL     1      -7.262  11.466  19.550  0.00  0.00    +0.000 A 
ATOM     25  C   UNL     1      -6.805  10.999  18.330  0.00  0.00    +0.000 A 
ATOM     26  C   UNL     1      -5.493  11.255  17.964  0.00  0.00    +0.000 A 
ATOM     27  C   UNL     1      -4.618  11.924  18.836  0.00  0.00    +0.000 A 
ATOM     28  C   UNL     1      -5.020  12.341  20.109  0.00  0.00    +0.000 A 
ENDBRANCH  16  17
ENDBRANCH   4  16
TORSDOF 3
ENDMDL
MODEL 4
REMARK VINA RESULT:      -7.7      1.951      2.608
REMARK  Name = 
REMARK  5 active torsions:
REMARK  status: ('A' for Active; 'I' for Inactive)
REMARK    1  A    between atoms: C_1  and  C_2
REMARK    2  A    between atoms: C_5  and  N_6
REMARK    3  A    between atoms: N_9  and  C_10
REMARK    4  A    between atoms: C_10  and  C_11
REMARK    5  A    between atoms: C_25  and  C_26
REMARK                            x       y       z     vdW  Elec       q    Type
REMARK                         _______ _______ _______ _____ _____    ______ ____
ROOT
ATOM      1  N   UNL     1       0.127   9.916  19.411  0.00  0.00    +0.000 N 
ATOM      2  C   UNL     1       0.597   8.974  20.353  0.00  0.00    +0.000 C 
ATOM      3  O   UNL     1       0.076   8.669  21.417  0.00  0.00    +0.000 OA
ATOM      4  N   UNL     1       1.715   8.363  19.834  0.00  0.00    +0.000 N 
ATOM      5  C   UNL     1       1.912   8.764  18.551  0.00  0.00    +0.000 C 
ATOM      6  O   UNL     1       2.694   8.284  17.746  0.00  0.00    +0.000 OA
ATOM      7  C   UNL     1       1.012   9.959  18.257  0.00  0.00    +0.000 C 
ATOM      8  C   UNL     1       1.855  11.226  18.230  0.00  0.00    +0.000 C 
ENDROOT
BRANCH   1  13
ATOM      9  C   UNL     1      -4.321  13.405  20.531  0.00  0.00    +0.000 C 
ATOM     10  C   UNL     1      -3.113  12.585  20.182  0.00  0.00    +0.000 A 
ATOM     11  C   UNL     1      -3.055  11.850  18.995  0.00  0.00    +0.000 A 
ATOM     12  C   UNL     1      -1.953  11.031  18.702  0.00  0.00    +0.000 A 
ATOM     13  C   UNL     1      -0.892  10.899  19.602  0.00  0.00    +0.000 A 
ATOM     14  C   UNL     1      -0.926  11.698  20.760  0.00  0.00    +0.000 A 
ATOM     15  C   UNL     1      -2.018  12.530  21.047  0.00  0.00    +0.000 A 
ENDBRANCH   1  13
BRANCH   4  16
ATOM     16  C   UNL     1       2.484   7.279  20.472  0.00  0.00    +0.000 C 
BRANCH  16  17
ATOM     17  C   UNL     1       1.915   5.875  20.165  0.00  0.00    +0.000 C 
ATOM     18  O   UNL     1       0.962   5.473  20.852  0.00  0.00    +0.000 OA
ATOM     19  N   UNL     1       2.422   5.060  19.123  0.00  0.00    +0.000 N 
ATOM     20  C   UNL     1       1.613   3.855  18.842  0.00  0.00    +0.000 C 
ATOM     21  C   UNL     1       1.604   3.484  17.371  0.00  0.00    +0.000 C 
ATOM     22  C   UNL     1       3.007   3.124  16.941  0.00  0.00    +0.000 C 
ATOM     23  C   UNL     1       4.037   4.061  17.521  0.00  0.00    +0.000 A 
ATOM     24  C   UNL     1       5.358   3.866  17.061  0.00  0.00    +0.000 A 
ATOM     25  C   UNL     1       6.391   4.658  17.531  0.00  0.00    +0.000 A 
ATOM     26  C   UNL     1       6.102   5.677  18.423  0.00  0.00    +0.000 A 
ATOM     27  C   UNL     1       4.793   5.873  18.896  0.00  0.00    +0.000 A 
ATOM     28  C   UNL     1       3.736   5.044  18.507  0.00  0.00    +0.000 A 
ENDBRANCH  16  17
ENDBRANCH   4  16
TORSDOF 3
ENDMDL
MODEL 5
REMARK VINA RESULT:      -7.6      4.951      8.238
REMARK  Name = 
REMARK  5 active torsions:
REMARK  status: ('A' for Active; 'I' for Inactive)
REMARK    1  A    between atoms: C_1  and  C_2
REMARK    2  A    between atoms: C_5  and  N_6
REMARK    3  A    between atoms: N_9  and  C_10
REMARK    4  A    between atoms: C_10  and  C_11
REMARK    5  A    between atoms: C_25  and  C_26
REMARK                            x       y       z     vdW  Elec       q    Type
REMARK                         _______ _______ _______ _____ _____    ______ ____
ROOT
ATOM      1  N   UNL     1      -1.487  12.470  20.249  0.00  0.00    +0.000 N 
ATOM      2  C   UNL     1      -0.730  13.655  20.114  0.00  0.00    +0.000 C 
ATOM      3  O   UNL     1      -0.563  14.314  19.096  0.00  0.00    +0.000 OA
ATOM      4  N   UNL     1      -0.270  14.021  21.357  0.00  0.00    +0.000 N 
ATOM      5  C   UNL     1      -0.803  13.211  22.309  0.00  0.00    +0.000 C 
ATOM      6  O   UNL     1      -0.753  13.369  23.518  0.00  0.00    +0.000 OA
ATOM      7  C   UNL     1      -1.468  12.017  21.632  0.00  0.00    +0.000 C 
ATOM      8  C   UNL     1      -0.593  10.785  21.817  0.00  0.00    +0.000 C 
ENDROOT
BRANCH   1  13
ATOM      9  C   UNL     1      -3.335   9.613  15.599  0.00  0.00    +0.000 C 
ATOM     10  C   UNL     1      -2.891  10.267  16.875  0.00  0.00    +0.000 A 
ATOM     11  C   UNL     1      -3.751  11.098  17.599  0.00  0.00    +0.000 A 
ATOM     12  C   UNL     1      -3.314  11.763  18.756  0.00  0.00    +0.000 A 
ATOM     13  C   UNL     1      -1.996  11.641  19.203  0.00  0.00    +0.000 A 
ATOM     14  C   UNL     1      -1.159  10.747  18.509  0.00  0.00    +0.000 A 
ATOM     15  C   UNL     1      -1.599  10.068  17.363  0.00  0.00    +0.000 A 
ENDBRANCH   1  13
BRANCH   4  16
ATOM     16  C   UNL     1       0.516  15.229  21.669  0.00  0.00    +0.000 C 
BRANCH  16  17
ATOM     17  C   UNL     1       2.020  15.070  21.348  0.00  0.00    +0.000 C 
ATOM     18  O   UNL     1       2.767  14.670  22.256  0.00  0.00    +0.000 OA
ATOM     19  N   UNL     1       2.556  15.335  20.064  0.00  0.00    +0.000 N 
ATOM     20  C   UNL     1       3.964  14.917  19.893  0.00  0.00    +0.000 C 
ATOM     21  C   UNL     1       4.262  14.423  18.490  0.00  0.00    +0.000 C 
ATOM     22  C   UNL     1       4.067  15.558  17.511  0.00  0.00    +0.000 C 
ATOM     23  C   UNL     1       2.837  16.373  17.824  0.00  0.00    +0.000 A 
ATOM     24  C   UNL     1       2.517  17.371  16.879  0.00  0.00    +0.000 A 
ATOM     25  C   UNL     1       1.418  18.191  17.064  0.00  0.00    +0.000 A 
ATOM     26  C   UNL     1       0.607  17.984  18.169  0.00  0.00    +0.000 A 
ATOM     27  C   UNL     1       0.921  17.000  19.121  0.00  0.00    +0.000 A 
ATOM     28  C   UNL     1       2.067  16.206  19.011  0.00  0.00    +0.000 A 
ENDBRANCH  16  17
ENDBRANCH   4  16
TORSDOF 3
ENDMDL
MODEL 6
REMARK VINA RESULT:      -7.5      2.271      9.637
REMARK  Name = 
REMARK  5 active torsions:
REMARK  status: ('A' for Active; 'I' for Inactive)
REMARK    1  A    between atoms: C_1  and  C_2
REMARK    2  A    between atoms: C_5  and  N_6
REMARK    3  A    between atoms: N_9  and  C_10
REMARK    4  A    between atoms: C_10  and  C_11
REMARK    5  A    between atoms: C_25  and  C_26
REMARK                            x       y       z     vdW  Elec       q    Type
REMARK                         _______ _______ _______ _____ _____    ______ ____
ROOT
ATOM      1  N   UNL     1       0.225  10.322  20.205  0.00  0.00    +0.000 N 
ATOM      2  C   UNL     1      -0.123  10.499  21.563  0.00  0.00    +0.000 C 
ATOM      3  O   UNL     1       0.463  10.053  22.540  0.00  0.00    +0.000 OA
ATOM      4  N   UNL     1      -1.199  11.353  21.628  0.00  0.00    +0.000 N 
ATOM      5  C   UNL     1      -1.479  11.845  20.392  0.00  0.00    +0.000 C 
ATOM      6  O   UNL     1      -2.243  12.757  20.123  0.00  0.00    +0.000 OA
ATOM      7  C   UNL     1      -0.702  11.047  19.350  0.00  0.00    +0.000 C 
ATOM      8  C   UNL     1      -1.658  10.112  18.621  0.00  0.00    +0.000 C 
ENDROOT
BRANCH   1  13
ATOM      9  C   UNL     1       3.450   6.233  17.737  0.00  0.00    +0.000 C 
ATOM     10  C   UNL     1       2.708   7.344  18.423  0.00  0.00    +0.000 A 
ATOM     11  C   UNL     1       2.251   7.206  19.737  0.00  0.00    +0.000 A 
ATOM     12  C   UNL     1       1.499   8.219  20.354  0.00  0.00    +0.000 A 
ATOM     13  C   UNL     1       1.157   9.385  19.663  0.00  0.00    +0.000 A 
ATOM     14  C   UNL     1       1.683   9.546  18.368  0.00  0.00    +0.000 A 
ATOM     15  C   UNL     1       2.449   8.542  17.756  0.00  0.00    +0.000 A 
ENDBRANCH   1  13
BRANCH   4  16
ATOM     16  C   UNL     1      -1.842  11.844  22.860  0.00  0.00    +0.000 C 
BRANCH  16  17
ATOM     17  C   UNL     1      -1.525  13.328  23.155  0.00  0.00    +0.000 C 
ATOM     18  O   UNL     1      -0.355  13.622  23.451  0.00  0.00    +0.000 OA
ATOM     19  N   UNL     1      -2.506  14.346  23.074  0.00  0.00    +0.000 N 
ATOM     20  C   UNL     1      -1.969  15.720  23.176  0.00  0.00    +0.000 C 
ATOM     21  C   UNL     1      -2.733  16.713  22.321  0.00  0.00    +0.000 C 
ATOM     22  C   UNL     1      -4.155  16.809  22.821  0.00  0.00    +0.000 C 
ATOM     23  C   UNL     1      -4.725  15.459  23.176  0.00  0.00    +0.000 A 
ATOM     24  C   UNL     1      -6.092  15.454  23.529  0.00  0.00    +0.000 A 
ATOM     25  C   UNL     1      -6.724  14.275  23.886  0.00  0.00    +0.000 A 
ATOM     26  C   UNL     1      -6.005  13.091  23.844  0.00  0.00    +0.000 A 
ATOM     27  C   UNL     1      -4.641  13.086  23.505  0.00  0.00    +0.000 A 
ATOM     28  C   UNL     1      -3.948  14.266  23.216  0.00  0.00    +0.000 A 
ENDBRANCH  16  17
ENDBRANCH   4  16
TORSDOF 3
ENDMDL
MODEL 7
REMARK VINA RESULT:      -7.5      1.461      1.809
REMARK  Name = 
REMARK  5 active torsions:
REMARK  status: ('A' for Active; 'I' for Inactive)
REMARK    1  A    between atoms: C_1  and  C_2
REMARK    2  A    between atoms: C_5  and  N_6
REMARK    3  A    between atoms: N_9  and  C_10
REMARK    4  A    between atoms: C_10  and  C_11
REMARK    5  A    between atoms: C_25  and  C_26
REMARK                            x       y       z     vdW  Elec       q    Type
REMARK                         _______ _______ _______ _____ _____    ______ ____
ROOT
ATOM      1  N   UNL     1      -0.445  11.650  20.156  0.00  0.00    +0.000 N 
ATOM      2  C   UNL     1      -0.133  10.304  19.859  0.00  0.00    +0.000 C 
ATOM      3  O   UNL     1      -0.828   9.319  20.073  0.00  0.00    +0.000 OA
ATOM      4  N   UNL     1       1.066  10.275  19.186  0.00  0.00    +0.000 N 
ATOM      5  C   UNL     1       1.478  11.540  18.913  0.00  0.00    +0.000 C 
ATOM      6  O   UNL     1       2.395  11.869  18.177  0.00  0.00    +0.000 OA
ATOM      7  C   UNL     1       0.627  12.525  19.708  0.00  0.00    +0.000 C 
ATOM      8  C   UNL     1       1.445  13.069  20.871  0.00  0.00    +0.000 C 
ENDROOT
BRANCH   1  13
ATOM      9  C   UNL     1      -4.989  12.999  23.434  0.00  0.00    +0.000 C 
ATOM     10  C   UNL     1      -3.760  12.752  22.607  0.00  0.00    +0.000 A 
ATOM     11  C   UNL     1      -3.709  13.122  21.260  0.00  0.00    +0.000 A 
ATOM     12  C   UNL     1      -2.584  12.830  20.470  0.00  0.00    +0.000 A 
ATOM     13  C   UNL     1      -1.495  12.132  20.996  0.00  0.00    +0.000 A 
ATOM     14  C   UNL     1      -1.526  11.827  22.370  0.00  0.00    +0.000 A 
ATOM     15  C   UNL     1      -2.641  12.134  23.166  0.00  0.00    +0.000 A 
ENDBRANCH   1  13
BRANCH   4  16
ATOM     16  C   UNL     1       1.727   9.073  18.645  0.00  0.00    +0.000 C 
BRANCH  16  17
ATOM     17  C   UNL     1       1.883   7.948  19.694  0.00  0.00    +0.000 C 
ATOM     18  O   UNL     1       1.562   8.200  20.867  0.00  0.00    +0.000 OA
ATOM     19  N   UNL     1       2.347   6.653  19.356  0.00  0.00    +0.000 N 
ATOM     20  C   UNL     1       2.222   5.658  20.443  0.00  0.00    +0.000 C 
ATOM     21  C   UNL     1       1.908   4.265  19.928  0.00  0.00    +0.000 C 
ATOM     22  C   UNL     1       3.058   3.778  19.080  0.00  0.00    +0.000 C 
ATOM     23  C   UNL     1       3.596   4.858  18.176  0.00  0.00    +0.000 A 
ATOM     24  C   UNL     1       4.588   4.443  17.261  0.00  0.00    +0.000 A 
ATOM     25  C   UNL     1       5.165   5.348  16.388  0.00  0.00    +0.000 A 
ATOM     26  C   UNL     1       4.719   6.660  16.392  0.00  0.00    +0.000 A 
ATOM     27  C   UNL     1       3.740   7.087  17.306  0.00  0.00    +0.000 A 
ATOM     28  C   UNL     1       3.191   6.221  18.257  0.00  0.00    +0.000 A 
ENDBRANCH  16  17
ENDBRANCH   4  16
TORSDOF 3
ENDMDL
MODEL 8
REMARK VINA RESULT:      -7.5      3.505      8.536
REMARK  Name = 
REMARK  5 active torsions:
REMARK  status: ('A' for Active; 'I' for Inactive)
REMARK    1  A    between atoms: C_1  and  C_2
REMARK    2  A    between atoms: C_5  and  N_6
REMARK    3  A    between atoms: N_9  and  C_10
REMARK    4  A    between atoms: C_10  and  C_11
REMARK    5  A    between atoms: C_25  and  C_26
REMARK                            x       y       z     vdW  Elec       q    Type
REMARK                         _______ _______ _______ _____ _____    ______ ____
ROOT
ATOM      1  N   UNL     1       0.764  10.571  19.412  0.00  0.00    +0.000 N 
ATOM      2  C   UNL     1       0.900  11.538  20.432  0.00  0.00    +0.000 C 
ATOM      3  O   UNL     1       1.639  11.487  21.407  0.00  0.00    +0.000 OA
ATOM      4  N   UNL     1       0.122  12.624  20.108  0.00  0.00    +0.000 N 
ATOM      5  C   UNL     1      -0.404  12.466  18.865  0.00  0.00    +0.000 C 
ATOM      6  O   UNL     1      -0.983  13.311  18.202  0.00  0.00    +0.000 OA
ATOM      7  C   UNL     1      -0.190  11.026  18.412  0.00  0.00    +0.000 C 
ATOM      8  C   UNL     1      -1.510  10.273  18.496  0.00  0.00    +0.000 C 
ENDROOT
BRANCH   1  13
ATOM      9  C   UNL     1       3.269   5.391  19.728  0.00  0.00    +0.000 C 
ATOM     10  C   UNL     1       2.523   6.687  19.600  0.00  0.00    +0.000 A 
ATOM     11  C   UNL     1       2.597   7.453  18.433  0.00  0.00    +0.000 A 
ATOM     12  C   UNL     1       1.952   8.698  18.341  0.00  0.00    +0.000 A 
ATOM     13  C   UNL     1       1.243   9.225  19.423  0.00  0.00    +0.000 A 
ATOM     14  C   UNL     1       1.115   8.415  20.567  0.00  0.00    +0.000 A 
ATOM     15  C   UNL     1       1.743   7.164  20.655  0.00  0.00    +0.000 A 
ENDBRANCH   1  13
BRANCH   4  16
ATOM     16  C   UNL     1       0.019  13.878  20.878  0.00  0.00    +0.000 C 
BRANCH  16  17
ATOM     17  C   UNL     1       1.381  14.583  21.067  0.00  0.00    +0.000 C 
ATOM     18  O   UNL     1       2.001  14.372  22.122  0.00  0.00    +0.000 OA
ATOM     19  N   UNL     1       1.946  15.425  20.077  0.00  0.00    +0.000 N 
ATOM     20  C   UNL     1       3.343  15.829  20.345  0.00  0.00    +0.000 C 
ATOM     21  C   UNL     1       4.167  15.963  19.079  0.00  0.00    +0.000 C 
ATOM     22  C   UNL     1       3.594  17.071  18.227  0.00  0.00    +0.000 C 
ATOM     23  C   UNL     1       2.086  17.043  18.197  0.00  0.00    +0.000 A 
ATOM     24  C   UNL     1       1.482  17.969  17.320  0.00  0.00    +0.000 A 
ATOM     25  C   UNL     1       0.104  18.046  17.215  0.00  0.00    +0.000 A 
ATOM     26  C   UNL     1      -0.673  17.164  17.950  0.00  0.00    +0.000 A 
ATOM     27  C   UNL     1      -0.083  16.246  18.835  0.00  0.00    +0.000 A 
ATOM     28  C   UNL     1       1.301  16.193  19.028  0.00  0.00    +0.000 A 
ENDBRANCH  16  17
ENDBRANCH   4  16
TORSDOF 3
ENDMDL
MODEL 9
REMARK VINA RESULT:      -7.5      2.240      8.533
REMARK  Name = 
REMARK  5 active torsions:
REMARK  status: ('A' for Active; 'I' for Inactive)
REMARK    1  A    between atoms: C_1  and  C_2
REMARK    2  A    between atoms: C_5  and  N_6
REMARK    3  A    between atoms: N_9  and  C_10
REMARK    4  A    between atoms: C_10  and  C_11
REMARK    5  A    between atoms: C_25  and  C_26
REMARK                            x       y       z     vdW  Elec       q    Type
REMARK                         _______ _______ _______ _____ _____    ______ ____
ROOT
ATOM      1  N   UNL     1       0.877  10.231  19.396  0.00  0.00    +0.000 N 
ATOM      2  C   UNL     1       0.647  11.029  20.540  0.00  0.00    +0.000 C 
ATOM      3  O   UNL     1       1.183  10.924  21.635  0.00  0.00    +0.000 OA
ATOM      4  N   UNL     1      -0.231  12.032  20.200  0.00  0.00    +0.000 N 
ATOM      5  C   UNL     1      -0.474  12.006  18.863  0.00  0.00    +0.000 C 
ATOM      6  O   UNL     1      -1.053  12.857  18.207  0.00  0.00    +0.000 OA
ATOM      7  C   UNL     1       0.068  10.704  18.283  0.00  0.00    +0.000 C 
ATOM      8  C   UNL     1      -1.094   9.767  17.982  0.00  0.00    +0.000 C 
ENDROOT
BRANCH   1  13
ATOM      9  C   UNL     1       3.111   4.946  18.866  0.00  0.00    +0.000 C 
ATOM     10  C   UNL     1       2.631   6.357  19.050  0.00  0.00    +0.000 A 
ATOM     11  C   UNL     1       2.011   6.761  20.236  0.00  0.00    +0.000 A 
ATOM     12  C   UNL     1       1.502   8.062  20.381  0.00  0.00    +0.000 A 
ATOM     13  C   UNL     1       1.571   8.984  19.334  0.00  0.00    +0.000 A 
ATOM     14  C   UNL     1       2.260   8.591  18.172  0.00  0.00    +0.000 A 
ATOM     15  C   UNL     1       2.785   7.298  18.031  0.00  0.00    +0.000 A 
ENDBRANCH   1  13
BRANCH   4  16
ATOM     16  C   UNL     1      -0.694  13.115  21.087  0.00  0.00    +0.000 C 
BRANCH  16  17
ATOM     17  C   UNL     1      -1.416  12.593  22.350  0.00  0.00    +0.000 C 
ATOM     18  O   UNL     1      -0.719  12.111  23.258  0.00  0.00    +0.000 OA
ATOM     19  N   UNL     1      -2.821  12.671  22.510  0.00  0.00    +0.000 N 
ATOM     20  C   UNL     1      -3.300  12.324  23.865  0.00  0.00    +0.000 C 
ATOM     21  C   UNL     1      -4.510  13.137  24.285  0.00  0.00    +0.000 C 
ATOM     22  C   UNL     1      -5.666  12.820  23.365  0.00  0.00    +0.000 C 
ATOM     23  C   UNL     1      -5.235  12.720  21.924  0.00  0.00    +0.000 A 
ATOM     24  C   UNL     1      -6.281  12.553  20.991  0.00  0.00    +0.000 A 
ATOM     25  C   UNL     1      -6.008  12.437  19.639  0.00  0.00    +0.000 A 
ATOM     26  C   UNL     1      -4.693  12.536  19.211  0.00  0.00    +0.000 A 
ATOM     27  C   UNL     1      -3.643  12.691  20.132  0.00  0.00    +0.000 A 
ATOM     28  C   UNL     1      -3.872  12.732  21.511  0.00  0.00    +0.000 A 
ENDBRANCH  16  17
ENDBRANCH   4  16
TORSDOF 3
ENDMDL
