MODEL 1
REMARK VINA RESULT:      -8.5      0.000      0.000
REMARK  Name = 
REMARK  18 active torsions:
REMARK  status: ('A' for Active; 'I' for Inactive)
REMARK    1  A    between atoms: C_1  and  C_2
REMARK    2  A    between atoms: C_2  and  C_3
REMARK    3  A    between atoms: C_3  and  C_4
REMARK    4  A    between atoms: C_4  and  C_5
REMARK    5  A    between atoms: C_4  and  C_8
REMARK    6  A    between atoms: C_4  and  C_16
REMARK    7  A    between atoms: C_5  and  C_6
REMARK    8  A    between atoms: C_6  and  C_7
REMARK    9  A    between atoms: C_11  and  O_12
REMARK   10  A    between atoms: C_13  and  C_14
REMARK   11  A    between atoms: C_19  and  O_20
REMARK   12  A    between atoms: O_20  and  C_21
REMARK   13  A    between atoms: C_21  and  C_22
REMARK   14  A    between atoms: C_22  and  O_24
REMARK   15  A    between atoms: O_24  and  C_25
REMARK   16  A    between atoms: C_25  and  C_26
REMARK   17  A    between atoms: C_25  and  C_27
REMARK   18  A    between atoms: C_28  and  C_29
REMARK                            x       y       z     vdW  Elec       q    Type
REMARK                         _______ _______ _______ _____ _____    ______ ____
ROOT
ATOM      1  C   UNL     1       2.946   5.932  18.750  0.00  0.00    +0.000 C 
ENDROOT
BRANCH   1   2
ATOM      2  C   UNL     1       2.345   7.344  19.023  0.00  0.00    +0.000 A 
ATOM      3  C   UNL     1       2.089   8.227  17.958  0.00  0.00    +0.000 A 
ATOM      4  C   UNL     1       1.297   9.366  18.140  0.00  0.00    +0.000 A 
ATOM      5  C   UNL     1       0.763   9.650  19.394  0.00  0.00    +0.000 A 
ATOM      6  C   UNL     1       1.075   8.858  20.495  0.00  0.00    +0.000 A 
ATOM      7  C   UNL     1       0.514   9.106  21.866  0.00  0.00    +0.000 C 
ATOM      8  C   UNL     1       1.887   7.728  20.300  0.00  0.00    +0.000 A 
BRANCH   5   9
ATOM      9  O   UNL     1      -0.094  10.700  19.555  0.00  0.00    +0.000 OA
ATOM     10  H   UNL     1       0.093  11.125  20.407  0.00  0.00    +0.000 HD
ENDBRANCH   5   9
ENDBRANCH   1   2
BRANCH   1  11
ATOM     11  C   UNL     1       4.240   6.025  17.893  0.00  0.00    +0.000 A 
ATOM     12  C   UNL     1       4.250   6.542  16.592  0.00  0.00    +0.000 A 
ATOM     13  C   UNL     1       5.355   6.379  15.754  0.00  0.00    +0.000 A 
ATOM     14  C   UNL     1       6.486   5.677  16.179  0.00  0.00    +0.000 A 
ATOM     15  C   UNL     1       6.566   5.289  17.524  0.00  0.00    +0.000 A 
ATOM     16  C   UNL     1       7.769   4.615  18.123  0.00  0.00    +0.000 C 
ATOM     17  C   UNL     1       5.443   5.468  18.363  0.00  0.00    +0.000 A 
BRANCH  14  18
ATOM     18  O   UNL     1       7.514   5.327  15.327  0.00  0.00    +0.000 OA
BRANCH  18  19
ATOM     19  C   UNL     1       7.092   4.622  14.160  0.00  0.00    +0.000 C 
BRANCH  19  20
ATOM     20  C   UNL     1       7.665   5.114  12.836  0.00  0.00    +0.000 C 
ATOM     21  O   UNL     1       8.450   6.036  12.679  0.00  0.00    +0.000 OA
BRANCH  20  22
ATOM     22  O   UNL     1       7.153   4.334  11.827  0.00  0.00    +0.000 OA
BRANCH  22  23
ATOM     23  C   UNL     1       6.357   3.198  12.221  0.00  0.00    +0.000 C 
ATOM     24  C   UNL     1       4.889   3.465  11.907  0.00  0.00    +0.000 C 
ATOM     25  C   UNL     1       6.852   1.991  11.427  0.00  0.00    +0.000 C 
ENDBRANCH  22  23
ENDBRANCH  20  22
ENDBRANCH  19  20
ENDBRANCH  18  19
ENDBRANCH  14  18
ENDBRANCH   1  11
BRANCH   1  26
ATOM     26  C   UNL     1       3.340   5.203  20.094  0.00  0.00    +0.000 C 
BRANCH  26  28
ATOM     27  C   UNL     1       2.494   3.322  21.529  0.00  0.00    +0.000 C 
ATOM     28  C   UNL     1       2.196   4.719  20.997  0.00  0.00    +0.000 C 
ENDBRANCH  26  28
ENDBRANCH   1  26
BRANCH   1  29
ATOM     29  C   UNL     1       1.823   5.092  18.021  0.00  0.00    +0.000 C 
BRANCH  29  30
ATOM     30  C   UNL     1       2.252   3.731  17.440  0.00  0.00    +0.000 C 
ATOM     31  C   UNL     1       1.549   2.589  18.157  0.00  0.00    +0.000 C 
ENDBRANCH  29  30
ENDBRANCH   1  29
TORSDOF 12
ENDMDL
MODEL 2
REMARK VINA RESULT:      -8.2      2.654      7.860
REMARK  Name = 
REMARK  18 active torsions:
REMARK  status: ('A' for Active; 'I' for Inactive)
REMARK    1  A    between atoms: C_1  and  C_2
REMARK    2  A    between atoms: C_2  and  C_3
REMARK    3  A    between atoms: C_3  and  C_4
REMARK    4  A    between atoms: C_4  and  C_5
REMARK    5  A    between atoms: C_4  and  C_8
REMARK    6  A    between atoms: C_4  and  C_16
REMARK    7  A    between atoms: C_5  and  C_6
REMARK    8  A    between atoms: C_6  and  C_7
REMARK    9  A    between atoms: C_11  and  O_12
REMARK   10  A    between atoms: C_13  and  C_14
REMARK   11  A    between atoms: C_19  and  O_20
REMARK   12  A    between atoms: O_20  and  C_21
REMARK   13  A    between atoms: C_21  and  C_22
REMARK   14  A    between atoms: C_22  and  O_24
REMARK   15  A    between atoms: O_24  and  C_25
REMARK   16  A    between atoms: C_25  and  C_26
REMARK   17  A    between atoms: C_25  and  C_27
REMARK   18  A    between atoms: C_28  and  C_29
REMARK                            x       y       z     vdW  Elec       q    Type
REMARK                         _______ _______ _______ _____ _____    ______ ____
ROOT
ATOM      1  C   UNL     1       2.830   5.526  18.873  0.00  0.00    +0.000 C 
ENDROOT
BRANCH   1   2
ATOM      2  C   UNL     1       4.227   5.705  18.205  0.00  0.00    +0.000 A 
ATOM      3  C   UNL     1       4.335   6.281  16.926  0.00  0.00    +0.000 A 
ATOM      4  C   UNL     1       5.571   6.711  16.431  0.00  0.00    +0.000 A 
ATOM      5  C   UNL     1       6.721   6.557  17.201  0.00  0.00    +0.000 A 
ATOM      6  C   UNL     1       6.672   5.903  18.428  0.00  0.00    +0.000 A 
ATOM      7  C   UNL     1       7.876   5.725  19.308  0.00  0.00    +0.000 C 
ATOM      8  C   UNL     1       5.427   5.459  18.903  0.00  0.00    +0.000 A 
BRANCH   5   9
ATOM      9  O   UNL     1       7.911   7.069  16.770  0.00  0.00    +0.000 OA
ATOM     10  H   UNL     1       8.511   7.142  17.529  0.00  0.00    +0.000 HD
ENDBRANCH   5   9
ENDBRANCH   1   2
BRANCH   1  11
ATOM     11  C   UNL     1       2.100   6.890  19.031  0.00  0.00    +0.000 A 
ATOM     12  C   UNL     1       1.865   7.751  17.952  0.00  0.00    +0.000 A 
ATOM     13  C   UNL     1       1.448   9.068  18.152  0.00  0.00    +0.000 A 
ATOM     14  C   UNL     1       1.268   9.581  19.440  0.00  0.00    +0.000 A 
ATOM     15  C   UNL     1       1.342   8.699  20.527  0.00  0.00    +0.000 A 
ATOM     16  C   UNL     1       1.074   9.111  21.948  0.00  0.00    +0.000 C 
ATOM     17  C   UNL     1       1.757   7.367  20.309  0.00  0.00    +0.000 A 
BRANCH  14  18
ATOM     18  O   UNL     1       1.047  10.921  19.688  0.00  0.00    +0.000 OA
BRANCH  18  19
ATOM     19  C   UNL     1      -0.332  11.276  19.793  0.00  0.00    +0.000 C 
BRANCH  19  20
ATOM     20  C   UNL     1      -0.990  11.791  18.518  0.00  0.00    +0.000 C 
ATOM     21  O   UNL     1      -0.804  12.876  17.989  0.00  0.00    +0.000 OA
BRANCH  20  22
ATOM     22  O   UNL     1      -1.838  10.819  18.046  0.00  0.00    +0.000 OA
BRANCH  22  23
ATOM     23  C   UNL     1      -2.631  11.150  16.888  0.00  0.00    +0.000 C 
ATOM     24  C   UNL     1      -2.657   9.965  15.928  0.00  0.00    +0.000 C 
ATOM     25  C   UNL     1      -4.045  11.465  17.370  0.00  0.00    +0.000 C 
ENDBRANCH  22  23
ENDBRANCH  20  22
ENDBRANCH  19  20
ENDBRANCH  18  19
ENDBRANCH  14  18
ENDBRANCH   1  11
BRANCH   1  26
ATOM     26  C   UNL     1       1.889   4.603  18.002  0.00  0.00    +0.000 C 
BRANCH  26  28
ATOM     27  C   UNL     1       2.431   2.154  17.869  0.00  0.00    +0.000 C 
ATOM     28  C   UNL     1       2.557   3.501  17.167  0.00  0.00    +0.000 C 
ENDBRANCH  26  28
ENDBRANCH   1  26
BRANCH   1  29
ATOM     29  C   UNL     1       3.078   4.832  20.271  0.00  0.00    +0.000 C 
BRANCH  29  30
ATOM     30  C   UNL     1       1.874   4.105  20.900  0.00  0.00    +0.000 C 
ATOM     31  C   UNL     1       2.311   2.812  21.571  0.00  0.00    +0.000 C 
ENDBRANCH  29  30
ENDBRANCH   1  29
TORSDOF 12
ENDMDL
MODEL 3
REMARK VINA RESULT:      -8.1      0.995      1.167
REMARK  Name = 
REMARK  18 active torsions:
REMARK  status: ('A' for Active; 'I' for Inactive)
REMARK    1  A    between atoms: C_1  and  C_2
REMARK    2  A    between atoms: C_2  and  C_3
REMARK    3  A    between atoms: C_3  and  C_4
REMARK    4  A    between atoms: C_4  and  C_5
REMARK    5  A    between atoms: C_4  and  C_8
REMARK    6  A    between atoms: C_4  and  C_16
REMARK    7  A    between atoms: C_5  and  C_6
REMARK    8  A    between atoms: C_6  and  C_7
REMARK    9  A    between atoms: C_11  and  O_12
REMARK   10  A    between atoms: C_13  and  C_14
REMARK   11  A    between atoms: C_19  and  O_20
REMARK   12  A    between atoms: O_20  and  C_21
REMARK   13  A    between atoms: C_21  and  C_22
REMARK   14  A    between atoms: C_22  and  O_24
REMARK   15  A    between atoms: O_24  and  C_25
REMARK   16  A    between atoms: C_25  and  C_26
REMARK   17  A    between atoms: C_25  and  C_27
REMARK   18  A    between atoms: C_28  and  C_29
REMARK                            x       y       z     vdW  Elec       q    Type
REMARK                         _______ _______ _______ _____ _____    ______ ____
ROOT
ATOM      1  C   UNL     1       2.888   5.695  18.514  0.00  0.00    +0.000 C 
ENDROOT
BRANCH   1   2
ATOM      2  C   UNL     1       2.394   7.125  18.892  0.00  0.00    +0.000 A 
ATOM      3  C   UNL     1       2.152   8.082  17.890  0.00  0.00    +0.000 A 
ATOM      4  C   UNL     1       1.445   9.257  18.170  0.00  0.00    +0.000 A 
ATOM      5  C   UNL     1       0.986   9.501  19.462  0.00  0.00    +0.000 A 
ATOM      6  C   UNL     1       1.291   8.628  20.502  0.00  0.00    +0.000 A 
ATOM      7  C   UNL     1       0.806   8.832  21.909  0.00  0.00    +0.000 C 
ATOM      8  C   UNL     1       2.017   7.462  20.208  0.00  0.00    +0.000 A 
BRANCH   5   9
ATOM      9  O   UNL     1       0.208  10.593  19.720  0.00  0.00    +0.000 OA
ATOM     10  H   UNL     1       0.773  11.382  19.731  0.00  0.00    +0.000 HD
ENDBRANCH   5   9
ENDBRANCH   1   2
BRANCH   1  11
ATOM     11  C   UNL     1       4.034   5.753  17.465  0.00  0.00    +0.000 A 
ATOM     12  C   UNL     1       4.093   4.893  16.361  0.00  0.00    +0.000 A 
ATOM     13  C   UNL     1       5.249   4.785  15.586  0.00  0.00    +0.000 A 
ATOM     14  C   UNL     1       6.397   5.520  15.895  0.00  0.00    +0.000 A 
ATOM     15  C   UNL     1       6.314   6.501  16.893  0.00  0.00    +0.000 A 
ATOM     16  C   UNL     1       7.451   7.419  17.249  0.00  0.00    +0.000 C 
ATOM     17  C   UNL     1       5.136   6.605  17.664  0.00  0.00    +0.000 A 
BRANCH  14  18
ATOM     18  O   UNL     1       7.613   5.303  15.279  0.00  0.00    +0.000 OA
BRANCH  18  19
ATOM     19  C   UNL     1       7.539   4.483  14.113  0.00  0.00    +0.000 C 
BRANCH  19  20
ATOM     20  C   UNL     1       7.796   5.183  12.783  0.00  0.00    +0.000 C 
ATOM     21  O   UNL     1       8.507   6.159  12.598  0.00  0.00    +0.000 OA
BRANCH  20  22
ATOM     22  O   UNL     1       7.091   4.524  11.805  0.00  0.00    +0.000 OA
BRANCH  22  23
ATOM     23  C   UNL     1       6.510   3.254  12.162  0.00  0.00    +0.000 C 
ATOM     24  C   UNL     1       5.008   3.284  11.897  0.00  0.00    +0.000 C 
ATOM     25  C   UNL     1       7.173   2.183  11.300  0.00  0.00    +0.000 C 
ENDBRANCH  22  23
ENDBRANCH  20  22
ENDBRANCH  19  20
ENDBRANCH  18  19
ENDBRANCH  14  18
ENDBRANCH   1  11
BRANCH   1  26
ATOM     26  C   UNL     1       3.458   4.931  19.773  0.00  0.00    +0.000 C 
BRANCH  26  28
ATOM     27  C   UNL     1       4.470   2.632  19.745  0.00  0.00    +0.000 C 
ATOM     28  C   UNL     1       4.750   4.121  19.582  0.00  0.00    +0.000 C 
ENDBRANCH  26  28
ENDBRANCH   1  26
BRANCH   1  29
ATOM     29  C   UNL     1       1.632   4.910  17.962  0.00  0.00    +0.000 C 
BRANCH  29  30
ATOM     30  C   UNL     1       1.542   3.416  18.327  0.00  0.00    +0.000 C 
ATOM     31  C   UNL     1       0.582   3.196  19.486  0.00  0.00    +0.000 C 
ENDBRANCH  29  30
ENDBRANCH   1  29
TORSDOF 12
ENDMDL
MODEL 4
REMARK VINA RESULT:      -7.8      2.021      8.738
REMARK  Name = 
REMARK  18 active torsions:
REMARK  status: ('A' for Active; 'I' for Inactive)
REMARK    1  A    between atoms: C_1  and  C_2
REMARK    2  A    between atoms: C_2  and  C_3
REMARK    3  A    between atoms: C_3  and  C_4
REMARK    4  A    between atoms: C_4  and  C_5
REMARK    5  A    between atoms: C_4  and  C_8
REMARK    6  A    between atoms: C_4  and  C_16
REMARK    7  A    between atoms: C_5  and  C_6
REMARK    8  A    between atoms: C_6  and  C_7
REMARK    9  A    between atoms: C_11  and  O_12
REMARK   10  A    between atoms: C_13  and  C_14
REMARK   11  A    between atoms: C_19  and  O_20
REMARK   12  A    between atoms: O_20  and  C_21
REMARK   13  A    between atoms: C_21  and  C_22
REMARK   14  A    between atoms: C_22  and  O_24
REMARK   15  A    between atoms: O_24  and  C_25
REMARK   16  A    between atoms: C_25  and  C_26
REMARK   17  A    between atoms: C_25  and  C_27
REMARK   18  A    between atoms: C_28  and  C_29
REMARK                            x       y       z     vdW  Elec       q    Type
REMARK                         _______ _______ _______ _____ _____    ______ ____
ROOT
ATOM      1  C   UNL     1       2.749   5.376  18.899  0.00  0.00    +0.000 C 
ENDROOT
BRANCH   1   2
ATOM      2  C   UNL     1       4.205   5.412  18.341  0.00  0.00    +0.000 A 
ATOM      3  C   UNL     1       5.298   5.160  19.191  0.00  0.00    +0.000 A 
ATOM      4  C   UNL     1       6.572   4.905  18.671  0.00  0.00    +0.000 A 
ATOM      5  C   UNL     1       6.776   4.915  17.294  0.00  0.00    +0.000 A 
ATOM      6  C   UNL     1       5.745   5.258  16.425  0.00  0.00    +0.000 A 
ATOM      7  C   UNL     1       5.903   5.266  14.931  0.00  0.00    +0.000 C 
ATOM      8  C   UNL     1       4.476   5.530  16.963  0.00  0.00    +0.000 A 
BRANCH   5   9
ATOM      9  O   UNL     1       7.990   4.565  16.776  0.00  0.00    +0.000 OA
ATOM     10  H   UNL     1       7.868   4.301  15.850  0.00  0.00    +0.000 HD
ENDBRANCH   5   9
ENDBRANCH   1   2
BRANCH   1  11
ATOM     11  C   UNL     1       2.121   6.797  18.929  0.00  0.00    +0.000 A 
ATOM     12  C   UNL     1       2.036   7.611  17.793  0.00  0.00    +0.000 A 
ATOM     13  C   UNL     1       1.711   8.966  17.893  0.00  0.00    +0.000 A 
ATOM     14  C   UNL     1       1.476   9.562  19.135  0.00  0.00    +0.000 A 
ATOM     15  C   UNL     1       1.399   8.740  20.268  0.00  0.00    +0.000 A 
ATOM     16  C   UNL     1       1.058   9.250  21.640  0.00  0.00    +0.000 C 
ATOM     17  C   UNL     1       1.721   7.370  20.150  0.00  0.00    +0.000 A 
BRANCH  14  18
ATOM     18  O   UNL     1       1.345  10.927  19.297  0.00  0.00    +0.000 OA
BRANCH  18  19
ATOM     19  C   UNL     1       0.048  11.431  18.977  0.00  0.00    +0.000 C 
BRANCH  19  20
ATOM     20  C   UNL     1      -0.471  12.557  19.864  0.00  0.00    +0.000 C 
ATOM     21  O   UNL     1      -0.077  13.713  19.880  0.00  0.00    +0.000 OA
BRANCH  20  22
ATOM     22  O   UNL     1      -1.478  12.056  20.653  0.00  0.00    +0.000 OA
BRANCH  22  23
ATOM     23  C   UNL     1      -1.588  12.590  21.987  0.00  0.00    +0.000 C 
ATOM     24  C   UNL     1      -2.928  13.300  22.148  0.00  0.00    +0.000 C 
ATOM     25  C   UNL     1      -1.495  11.419  22.963  0.00  0.00    +0.000 C 
ENDBRANCH  22  23
ENDBRANCH  20  22
ENDBRANCH  19  20
ENDBRANCH  18  19
ENDBRANCH  14  18
ENDBRANCH   1  11
BRANCH   1  26
ATOM     26  C   UNL     1       1.810   4.480  17.998  0.00  0.00    +0.000 C 
BRANCH  26  28
ATOM     27  C   UNL     1       2.473   2.058  17.943  0.00  0.00    +0.000 C 
ATOM     28  C   UNL     1       2.474   3.371  17.169  0.00  0.00    +0.000 C 
ENDBRANCH  26  28
ENDBRANCH   1  26
BRANCH   1  29
ATOM     29  C   UNL     1       2.831   4.742  20.344  0.00  0.00    +0.000 C 
BRANCH  29  30
ATOM     30  C   UNL     1       1.557   4.047  20.861  0.00  0.00    +0.000 C 
ATOM     31  C   UNL     1       1.901   2.763  21.602  0.00  0.00    +0.000 C 
ENDBRANCH  29  30
ENDBRANCH   1  29
TORSDOF 12
ENDMDL
MODEL 5
REMARK VINA RESULT:      -7.8      2.479      8.917
REMARK  Name = 
REMARK  18 active torsions:
REMARK  status: ('A' for Active; 'I' for Inactive)
REMARK    1  A    between atoms: C_1  and  C_2
REMARK    2  A    between atoms: C_2  and  C_3
REMARK    3  A    between atoms: C_3  and  C_4
REMARK    4  A    between atoms: C_4  and  C_5
REMARK    5  A    between atoms: C_4  and  C_8
REMARK    6  A    between atoms: C_4  and  C_16
REMARK    7  A    between atoms: C_5  and  C_6
REMARK    8  A    between atoms: C_6  and  C_7
REMARK    9  A    between atoms: C_11  and  O_12
REMARK   10  A    between atoms: C_13  and  C_14
REMARK   11  A    between atoms: C_19  and  O_20
REMARK   12  A    between atoms: O_20  and  C_21
REMARK   13  A    between atoms: C_21  and  C_22
REMARK   14  A    between atoms: C_22  and  O_24
REMARK   15  A    between atoms: O_24  and  C_25
REMARK   16  A    between atoms: C_25  and  C_26
REMARK   17  A    between atoms: C_25  and  C_27
REMARK   18  A    between atoms: C_28  and  C_29
REMARK                            x       y       z     vdW  Elec       q    Type
REMARK                         _______ _______ _______ _____ _____    ______ ____
ROOT
ATOM      1  C   UNL     1       2.837   5.226  19.036  0.00  0.00    +0.000 C 
ENDROOT
BRANCH   1   2
ATOM      2  C   UNL     1       4.215   5.326  18.313  0.00  0.00    +0.000 A 
ATOM      3  C   UNL     1       4.275   5.591  16.932  0.00  0.00    +0.000 A 
ATOM      4  C   UNL     1       5.477   5.966  16.322  0.00  0.00    +0.000 A 
ATOM      5  C   UNL     1       6.641   6.065  17.079  0.00  0.00    +0.000 A 
ATOM      6  C   UNL     1       6.645   5.715  18.426  0.00  0.00    +0.000 A 
ATOM      7  C   UNL     1       7.865   5.820  19.296  0.00  0.00    +0.000 C 
ATOM      8  C   UNL     1       5.433   5.322  19.020  0.00  0.00    +0.000 A 
BRANCH   5   9
ATOM      9  O   UNL     1       7.793   6.530  16.513  0.00  0.00    +0.000 OA
ATOM     10  H   UNL     1       8.038   7.363  16.948  0.00  0.00    +0.000 HD
ENDBRANCH   5   9
ENDBRANCH   1   2
BRANCH   1  11
ATOM     11  C   UNL     1       2.334   6.626  19.489  0.00  0.00    +0.000 A 
ATOM     12  C   UNL     1       1.759   6.852  20.746  0.00  0.00    +0.000 A 
ATOM     13  C   UNL     1       1.085   8.040  21.032  0.00  0.00    +0.000 A 
ATOM     14  C   UNL     1       0.943   9.041  20.067  0.00  0.00    +0.000 A 
ATOM     15  C   UNL     1       1.643   8.908  18.859  0.00  0.00    +0.000 A 
ATOM     16  C   UNL     1       1.647   9.960  17.784  0.00  0.00    +0.000 C 
ATOM     17  C   UNL     1       2.328   7.704  18.586  0.00  0.00    +0.000 A 
BRANCH  14  18
ATOM     18  O   UNL     1       0.126  10.139  20.242  0.00  0.00    +0.000 OA
BRANCH  18  19
ATOM     19  C   UNL     1       0.467  10.950  21.366  0.00  0.00    +0.000 C 
BRANCH  19  20
ATOM     20  C   UNL     1      -0.428  10.806  22.592  0.00  0.00    +0.000 C 
ATOM     21  O   UNL     1      -0.187  10.156  23.598  0.00  0.00    +0.000 OA
BRANCH  20  22
ATOM     22  O   UNL     1      -1.566  11.546  22.385  0.00  0.00    +0.000 OA
BRANCH  22  23
ATOM     23  C   UNL     1      -1.394  12.959  22.155  0.00  0.00    +0.000 C 
ATOM     24  C   UNL     1      -2.427  13.444  21.144  0.00  0.00    +0.000 C 
ATOM     25  C   UNL     1      -1.593  13.672  23.491  0.00  0.00    +0.000 C 
ENDBRANCH  22  23
ENDBRANCH  20  22
ENDBRANCH  19  20
ENDBRANCH  18  19
ENDBRANCH  14  18
ENDBRANCH   1  11
BRANCH   1  26
ATOM     26  C   UNL     1       1.728   4.629  18.083  0.00  0.00    +0.000 C 
BRANCH  26  28
ATOM     27  C   UNL     1       2.549   2.359  17.387  0.00  0.00    +0.000 C 
ATOM     28  C   UNL     1       1.473   3.116  18.157  0.00  0.00    +0.000 C 
ENDBRANCH  26  28
ENDBRANCH   1  26
BRANCH   1  29
ATOM     29  C   UNL     1       3.037   4.252  20.264  0.00  0.00    +0.000 C 
BRANCH  29  30
ATOM     30  C   UNL     1       1.783   3.936  21.101  0.00  0.00    +0.000 C 
ATOM     31  C   UNL     1       1.912   2.582  21.782  0.00  0.00    +0.000 C 
ENDBRANCH  29  30
ENDBRANCH   1  29
TORSDOF 12
ENDMDL
MODEL 6
REMARK VINA RESULT:      -7.8      2.127      8.813
REMARK  Name = 
REMARK  18 active torsions:
REMARK  status: ('A' for Active; 'I' for Inactive)
REMARK    1  A    between atoms: C_1  and  C_2
REMARK    2  A    between atoms: C_2  and  C_3
REMARK    3  A    between atoms: C_3  and  C_4
REMARK    4  A    between atoms: C_4  and  C_5
REMARK    5  A    between atoms: C_4  and  C_8
REMARK    6  A    between atoms: C_4  and  C_16
REMARK    7  A    between atoms: C_5  and  C_6
REMARK    8  A    between atoms: C_6  and  C_7
REMARK    9  A    between atoms: C_11  and  O_12
REMARK   10  A    between atoms: C_13  and  C_14
REMARK   11  A    between atoms: C_19  and  O_20
REMARK   12  A    between atoms: O_20  and  C_21
REMARK   13  A    between atoms: C_21  and  C_22
REMARK   14  A    between atoms: C_22  and  O_24
REMARK   15  A    between atoms: O_24  and  C_25
REMARK   16  A    between atoms: C_25  and  C_26
REMARK   17  A    between atoms: C_25  and  C_27
REMARK   18  A    between atoms: C_28  and  C_29
REMARK                            x       y       z     vdW  Elec       q    Type
REMARK                         _______ _______ _______ _____ _____    ______ ____
ROOT
ATOM      1  C   UNL     1       3.114   4.669  18.719  0.00  0.00    +0.000 C 
ENDROOT
BRANCH   1   2
ATOM      2  C   UNL     1       4.449   4.782  17.922  0.00  0.00    +0.000 A 
ATOM      3  C   UNL     1       4.499   4.420  16.563  0.00  0.00    +0.000 A 
ATOM      4  C   UNL     1       5.589   4.777  15.761  0.00  0.00    +0.000 A 
ATOM      5  C   UNL     1       6.654   5.486  16.309  0.00  0.00    +0.000 A 
ATOM      6  C   UNL     1       6.689   5.777  17.670  0.00  0.00    +0.000 A 
ATOM      7  C   UNL     1       7.802   6.555  18.312  0.00  0.00    +0.000 C 
ATOM      8  C   UNL     1       5.595   5.395  18.466  0.00  0.00    +0.000 A 
BRANCH   5   9
ATOM      9  O   UNL     1       7.669   5.928  15.511  0.00  0.00    +0.000 OA
ATOM     10  H   UNL     1       8.441   6.118  16.068  0.00  0.00    +0.000 HD
ENDBRANCH   5   9
ENDBRANCH   1   2
BRANCH   1  11
ATOM     11  C   UNL     1       2.648   6.057  19.241  0.00  0.00    +0.000 A 
ATOM     12  C   UNL     1       2.096   6.239  20.515  0.00  0.00    +0.000 A 
ATOM     13  C   UNL     1       1.451   7.427  20.864  0.00  0.00    +0.000 A 
ATOM     14  C   UNL     1       1.317   8.473  19.946  0.00  0.00    +0.000 A 
ATOM     15  C   UNL     1       1.996   8.379  18.723  0.00  0.00    +0.000 A 
ATOM     16  C   UNL     1       2.007   9.477  17.695  0.00  0.00    +0.000 C 
ATOM     17  C   UNL     1       2.651   7.174  18.387  0.00  0.00    +0.000 A 
BRANCH  14  18
ATOM     18  O   UNL     1       0.526   9.579  20.182  0.00  0.00    +0.000 OA
BRANCH  18  19
ATOM     19  C   UNL     1       0.918  10.347  21.319  0.00  0.00    +0.000 C 
BRANCH  19  20
ATOM     20  C   UNL     1      -0.077  10.392  22.473  0.00  0.00    +0.000 C 
ATOM     21  O   UNL     1       0.029   9.825  23.550  0.00  0.00    +0.000 OA
BRANCH  20  22
ATOM     22  O   UNL     1      -1.130  11.194  22.105  0.00  0.00    +0.000 OA
BRANCH  22  23
ATOM     23  C   UNL     1      -1.393  12.346  22.931  0.00  0.00    +0.000 C 
ATOM     24  C   UNL     1      -1.208  13.619  22.113  0.00  0.00    +0.000 C 
ATOM     25  C   UNL     1      -2.836  12.242  23.421  0.00  0.00    +0.000 C 
ENDBRANCH  22  23
ENDBRANCH  20  22
ENDBRANCH  19  20
ENDBRANCH  18  19
ENDBRANCH  14  18
ENDBRANCH   1  11
BRANCH   1  26
ATOM     26  C   UNL     1       1.948   4.106  17.813  0.00  0.00    +0.000 C 
BRANCH  26  28
ATOM     27  C   UNL     1       0.396   3.095  19.510  0.00  0.00    +0.000 C 
ATOM     28  C   UNL     1       1.251   2.820  18.278  0.00  0.00    +0.000 C 
ENDBRANCH  26  28
ENDBRANCH   1  26
BRANCH   1  29
ATOM     29  C   UNL     1       3.376   3.657  19.904  0.00  0.00    +0.000 C 
BRANCH  29  30
ATOM     30  C   UNL     1       4.105   2.349  19.542  0.00  0.00    +0.000 C 
ATOM     31  C   UNL     1       5.015   1.903  20.677  0.00  0.00    +0.000 C 
ENDBRANCH  29  30
ENDBRANCH   1  29
TORSDOF 12
ENDMDL
MODEL 7
REMARK VINA RESULT:      -7.8      2.064      7.691
REMARK  Name = 
REMARK  18 active torsions:
REMARK  status: ('A' for Active; 'I' for Inactive)
REMARK    1  A    between atoms: C_1  and  C_2
REMARK    2  A    between atoms: C_2  and  C_3
REMARK    3  A    between atoms: C_3  and  C_4
REMARK    4  A    between atoms: C_4  and  C_5
REMARK    5  A    between atoms: C_4  and  C_8
REMARK    6  A    between atoms: C_4  and  C_16
REMARK    7  A    between atoms: C_5  and  C_6
REMARK    8  A    between atoms: C_6  and  C_7
REMARK    9  A    between atoms: C_11  and  O_12
REMARK   10  A    between atoms: C_13  and  C_14
REMARK   11  A    between atoms: C_19  and  O_20
REMARK   12  A    between atoms: O_20  and  C_21
REMARK   13  A    between atoms: C_21  and  C_22
REMARK   14  A    between atoms: C_22  and  O_24
REMARK   15  A    between atoms: O_24  and  C_25
REMARK   16  A    between atoms: C_25  and  C_26
REMARK   17  A    between atoms: C_25  and  C_27
REMARK   18  A    between atoms: C_28  and  C_29
REMARK                            x       y       z     vdW  Elec       q    Type
REMARK                         _______ _______ _______ _____ _____    ______ ____
ROOT
ATOM      1  C   UNL     1       3.330   4.628  18.520  0.00  0.00    +0.000 C 
ENDROOT
BRANCH   1   2
ATOM      2  C   UNL     1       4.671   4.777  17.739  0.00  0.00    +0.000 A 
ATOM      3  C   UNL     1       4.914   4.004  16.589  0.00  0.00    +0.000 A 
ATOM      4  C   UNL     1       5.964   4.316  15.719  0.00  0.00    +0.000 A 
ATOM      5  C   UNL     1       6.800   5.394  15.996  0.00  0.00    +0.000 A 
ATOM      6  C   UNL     1       6.656   6.122  17.174  0.00  0.00    +0.000 A 
ATOM      7  C   UNL     1       7.515   7.306  17.514  0.00  0.00    +0.000 C 
ATOM      8  C   UNL     1       5.607   5.784  18.046  0.00  0.00    +0.000 A 
BRANCH   5   9
ATOM      9  O   UNL     1       7.760   5.768  15.100  0.00  0.00    +0.000 OA
ATOM     10  H   UNL     1       7.607   5.297  14.265  0.00  0.00    +0.000 HD
ENDBRANCH   5   9
ENDBRANCH   1   2
BRANCH   1  11
ATOM     11  C   UNL     1       2.602   5.995  18.658  0.00  0.00    +0.000 A 
ATOM     12  C   UNL     1       2.465   6.890  17.590  0.00  0.00    +0.000 A 
ATOM     13  C   UNL     1       2.046   8.206  17.794  0.00  0.00    +0.000 A 
ATOM     14  C   UNL     1       1.764   8.683  19.078  0.00  0.00    +0.000 A 
ATOM     15  C   UNL     1       1.740   7.769  20.140  0.00  0.00    +0.000 A 
ATOM     16  C   UNL     1       1.358   8.142  21.546  0.00  0.00    +0.000 C 
ATOM     17  C   UNL     1       2.158   6.439  19.917  0.00  0.00    +0.000 A 
BRANCH  14  18
ATOM     18  O   UNL     1       1.536  10.018  19.347  0.00  0.00    +0.000 OA
BRANCH  18  19
ATOM     19  C   UNL     1       0.719  10.678  18.380  0.00  0.00    +0.000 C 
BRANCH  19  20
ATOM     20  C   UNL     1      -0.779  10.691  18.664  0.00  0.00    +0.000 C 
ATOM     21  O   UNL     1      -1.332  11.186  19.634  0.00  0.00    +0.000 OA
BRANCH  20  22
ATOM     22  O   UNL     1      -1.420  10.050  17.632  0.00  0.00    +0.000 OA
BRANCH  22  23
ATOM     23  C   UNL     1      -2.611  10.675  17.115  0.00  0.00    +0.000 C 
ATOM     24  C   UNL     1      -2.653  10.526  15.598  0.00  0.00    +0.000 C 
ATOM     25  C   UNL     1      -3.812   9.972  17.745  0.00  0.00    +0.000 C 
ENDBRANCH  22  23
ENDBRANCH  20  22
ENDBRANCH  19  20
ENDBRANCH  18  19
ENDBRANCH  14  18
ENDBRANCH   1  11
BRANCH   1  26
ATOM     26  C   UNL     1       2.334   3.655  17.774  0.00  0.00    +0.000 C 
BRANCH  26  28
ATOM     27  C   UNL     1       0.510   2.331  18.883  0.00  0.00    +0.000 C 
ATOM     28  C   UNL     1       0.867   3.661  18.228  0.00  0.00    +0.000 C 
ENDBRANCH  26  28
ENDBRANCH   1  26
BRANCH   1  29
ATOM     29  C   UNL     1       3.688   4.013  19.930  0.00  0.00    +0.000 C 
BRANCH  29  30
ATOM     30  C   UNL     1       3.604   2.480  20.052  0.00  0.00    +0.000 C 
ATOM     31  C   UNL     1       4.932   1.897  20.510  0.00  0.00    +0.000 C 
ENDBRANCH  29  30
ENDBRANCH   1  29
TORSDOF 12
ENDMDL
MODEL 8
REMARK VINA RESULT:      -7.8      2.627      7.950
REMARK  Name = 
REMARK  18 active torsions:
REMARK  status: ('A' for Active; 'I' for Inactive)
REMARK    1  A    between atoms: C_1  and  C_2
REMARK    2  A    between atoms: C_2  and  C_3
REMARK    3  A    between atoms: C_3  and  C_4
REMARK    4  A    between atoms: C_4  and  C_5
REMARK    5  A    between atoms: C_4  and  C_8
REMARK    6  A    between atoms: C_4  and  C_16
REMARK    7  A    between atoms: C_5  and  C_6
REMARK    8  A    between atoms: C_6  and  C_7
REMARK    9  A    between atoms: C_11  and  O_12
REMARK   10  A    between atoms: C_13  and  C_14
REMARK   11  A    between atoms: C_19  and  O_20
REMARK   12  A    between atoms: O_20  and  C_21
REMARK   13  A    between atoms: C_21  and  C_22
REMARK   14  A    between atoms: C_22  and  O_24
REMARK   15  A    between atoms: O_24  and  C_25
REMARK   16  A    between atoms: C_25  and  C_26
REMARK   17  A    between atoms: C_25  and  C_27
REMARK   18  A    between atoms: C_28  and  C_29
REMARK                            x       y       z     vdW  Elec       q    Type
REMARK                         _______ _______ _______ _____ _____    ______ ____
ROOT
ATOM      1  C   UNL     1       2.840   5.549  18.867  0.00  0.00    +0.000 C 
ENDROOT
BRANCH   1   2
ATOM      2  C   UNL     1       4.243   5.701  18.205  0.00  0.00    +0.000 A 
ATOM      3  C   UNL     1       4.364   6.237  16.909  0.00  0.00    +0.000 A 
ATOM      4  C   UNL     1       5.606   6.646  16.412  0.00  0.00    +0.000 A 
ATOM      5  C   UNL     1       6.749   6.509  17.194  0.00  0.00    +0.000 A 
ATOM      6  C   UNL     1       6.688   5.892  18.440  0.00  0.00    +0.000 A 
ATOM      7  C   UNL     1       7.884   5.735  19.335  0.00  0.00    +0.000 C 
ATOM      8  C   UNL     1       5.436   5.470  18.919  0.00  0.00    +0.000 A 
BRANCH   5   9
ATOM      9  O   UNL     1       7.945   7.001  16.757  0.00  0.00    +0.000 OA
ATOM     10  H   UNL     1       8.007   7.936  17.010  0.00  0.00    +0.000 HD
ENDBRANCH   5   9
ENDBRANCH   1   2
BRANCH   1  11
ATOM     11  C   UNL     1       2.126   6.924  19.000  0.00  0.00    +0.000 A 
ATOM     12  C   UNL     1       1.950   7.792  17.915  0.00  0.00    +0.000 A 
ATOM     13  C   UNL     1       1.546   9.116  18.103  0.00  0.00    +0.000 A 
ATOM     14  C   UNL     1       1.321   9.627  19.384  0.00  0.00    +0.000 A 
ATOM     15  C   UNL     1       1.336   8.741  20.470  0.00  0.00    +0.000 A 
ATOM     16  C   UNL     1       1.015   9.153  21.880  0.00  0.00    +0.000 C 
ATOM     17  C   UNL     1       1.738   7.403  20.264  0.00  0.00    +0.000 A 
BRANCH  14  18
ATOM     18  O   UNL     1       1.111  10.970  19.627  0.00  0.00    +0.000 OA
BRANCH  18  19
ATOM     19  C   UNL     1       1.675  11.837  18.644  0.00  0.00    +0.000 C 
BRANCH  19  20
ATOM     20  C   UNL     1       1.025  13.210  18.509  0.00  0.00    +0.000 C 
ATOM     21  O   UNL     1      -0.160  13.472  18.649  0.00  0.00    +0.000 OA
BRANCH  20  22
ATOM     22  O   UNL     1       2.004  14.124  18.205  0.00  0.00    +0.000 OA
BRANCH  22  23
ATOM     23  C   UNL     1       3.198  14.093  19.012  0.00  0.00    +0.000 C 
ATOM     24  C   UNL     1       4.378  14.626  18.206  0.00  0.00    +0.000 C 
ATOM     25  C   UNL     1       2.954  14.979  20.232  0.00  0.00    +0.000 C 
ENDBRANCH  22  23
ENDBRANCH  20  22
ENDBRANCH  19  20
ENDBRANCH  18  19
ENDBRANCH  14  18
ENDBRANCH   1  11
BRANCH   1  26
ATOM     26  C   UNL     1       1.893   4.625  18.005  0.00  0.00    +0.000 C 
BRANCH  26  28
ATOM     27  C   UNL     1       2.362   2.161  17.867  0.00  0.00    +0.000 C 
ATOM     28  C   UNL     1       2.553   3.509  17.182  0.00  0.00    +0.000 C 
ENDBRANCH  26  28
ENDBRANCH   1  26
BRANCH   1  29
ATOM     29  C   UNL     1       3.072   4.874  20.277  0.00  0.00    +0.000 C 
BRANCH  29  30
ATOM     30  C   UNL     1       1.863   4.148  20.897  0.00  0.00    +0.000 C 
ATOM     31  C   UNL     1       2.296   2.863  21.586  0.00  0.00    +0.000 C 
ENDBRANCH  29  30
ENDBRANCH   1  29
TORSDOF 12
ENDMDL
MODEL 9
REMARK VINA RESULT:      -7.7      2.032      8.976
REMARK  Name = 
REMARK  18 active torsions:
REMARK  status: ('A' for Active; 'I' for Inactive)
REMARK    1  A    between atoms: C_1  and  C_2
REMARK    2  A    between atoms: C_2  and  C_3
REMARK    3  A    between atoms: C_3  and  C_4
REMARK    4  A    between atoms: C_4  and  C_5
REMARK    5  A    between atoms: C_4  and  C_8
REMARK    6  A    between atoms: C_4  and  C_16
REMARK    7  A    between atoms: C_5  and  C_6
REMARK    8  A    between atoms: C_6  and  C_7
REMARK    9  A    between atoms: C_11  and  O_12
REMARK   10  A    between atoms: C_13  and  C_14
REMARK   11  A    between atoms: C_19  and  O_20
REMARK   12  A    between atoms: O_20  and  C_21
REMARK   13  A    between atoms: C_21  and  C_22
REMARK   14  A    between atoms: C_22  and  O_24
REMARK   15  A    between atoms: O_24  and  C_25
REMARK   16  A    between atoms: C_25  and  C_26
REMARK   17  A    between atoms: C_25  and  C_27
REMARK   18  A    between atoms: C_28  and  C_29
REMARK                            x       y       z     vdW  Elec       q    Type
REMARK                         _______ _______ _______ _____ _____    ______ ____
ROOT
ATOM      1  C   UNL     1       2.868   5.349  19.138  0.00  0.00    +0.000 C 
ENDROOT
BRANCH   1   2
ATOM      2  C   UNL     1       4.279   5.385  18.475  0.00  0.00    +0.000 A 
ATOM      3  C   UNL     1       5.430   5.111  19.236  0.00  0.00    +0.000 A 
ATOM      4  C   UNL     1       6.659   4.856  18.619  0.00  0.00    +0.000 A 
ATOM      5  C   UNL     1       6.761   4.889  17.231  0.00  0.00    +0.000 A 
ATOM      6  C   UNL     1       5.671   5.254  16.446  0.00  0.00    +0.000 A 
ATOM      7  C   UNL     1       5.718   5.288  14.946  0.00  0.00    +0.000 C 
ATOM      8  C   UNL     1       4.447   5.525  17.083  0.00  0.00    +0.000 A 
BRANCH   5   9
ATOM      9  O   UNL     1       7.930   4.540  16.618  0.00  0.00    +0.000 OA
ATOM     10  H   UNL     1       8.559   4.244  17.296  0.00  0.00    +0.000 HD
ENDBRANCH   5   9
ENDBRANCH   1   2
BRANCH   1  11
ATOM     11  C   UNL     1       2.382   6.778  19.510  0.00  0.00    +0.000 A 
ATOM     12  C   UNL     1       1.770   7.073  20.734  0.00  0.00    +0.000 A 
ATOM     13  C   UNL     1       1.113   8.287  20.943  0.00  0.00    +0.000 A 
ATOM     14  C   UNL     1       1.027   9.246  19.929  0.00  0.00    +0.000 A 
ATOM     15  C   UNL     1       1.764   9.043  18.754  0.00  0.00    +0.000 A 
ATOM     16  C   UNL     1       1.829  10.044  17.633  0.00  0.00    +0.000 C 
ATOM     17  C   UNL     1       2.431   7.814  18.559  0.00  0.00    +0.000 A 
BRANCH  14  18
ATOM     18  O   UNL     1       0.230  10.368  20.026  0.00  0.00    +0.000 OA
BRANCH  18  19
ATOM     19  C   UNL     1      -0.730  10.314  21.081  0.00  0.00    +0.000 C 
BRANCH  19  20
ATOM     20  C   UNL     1      -0.334  10.999  22.384  0.00  0.00    +0.000 C 
ATOM     21  O   UNL     1      -0.397  10.522  23.506  0.00  0.00    +0.000 OA
BRANCH  20  22
ATOM     22  O   UNL     1       0.121  12.261  22.088  0.00  0.00    +0.000 OA
BRANCH  22  23
ATOM     23  C   UNL     1      -0.873  13.291  21.922  0.00  0.00    +0.000 C 
ATOM     24  C   UNL     1      -0.995  14.099  23.210  0.00  0.00    +0.000 C 
ATOM     25  C   UNL     1      -0.418  14.194  20.778  0.00  0.00    +0.000 C 
ENDBRANCH  22  23
ENDBRANCH  20  22
ENDBRANCH  19  20
ENDBRANCH  18  19
ENDBRANCH  14  18
ENDBRANCH   1  11
BRANCH   1  26
ATOM     26  C   UNL     1       1.787   4.738  18.160  0.00  0.00    +0.000 C 
BRANCH  26  28
ATOM     27  C   UNL     1       2.184   2.275  17.872  0.00  0.00    +0.000 C 
ATOM     28  C   UNL     1       2.250   3.639  17.194  0.00  0.00    +0.000 C 
ENDBRANCH  26  28
ENDBRANCH   1  26
BRANCH   1  29
ATOM     29  C   UNL     1       2.988   4.423  20.413  0.00  0.00    +0.000 C 
BRANCH  29  30
ATOM     30  C   UNL     1       1.668   3.873  20.988  0.00  0.00    +0.000 C 
ATOM     31  C   UNL     1       1.883   2.511  21.631  0.00  0.00    +0.000 C 
ENDBRANCH  29  30
ENDBRANCH   1  29
TORSDOF 12
ENDMDL
