MODEL 1
REMARK VINA RESULT:      -7.2      0.000      0.000
REMARK  Name = 
REMARK  10 active torsions:
REMARK  status: ('A' for Active; 'I' for Inactive)
REMARK    1  A    between atoms: C_1  and  C_2
REMARK    2  A    between atoms: C_2  and  C_3
REMARK    3  A    between atoms: C_3  and  N_4
REMARK    4  A    between atoms: C_10  and  C_11
REMARK    5  A    between atoms: C_12  and  C_13
REMARK    6  A    between atoms: C_17  and  N_18
REMARK    7  A    between atoms: N_20  and  C_21
REMARK    8  A    between atoms: N_22  and  C_23
REMARK    9  A    between atoms: C_23  and  C_24
REMARK   10  A    between atoms: C_24  and  C_25
REMARK                            x       y       z     vdW  Elec       q    Type
REMARK                         _______ _______ _______ _____ _____    ______ ____
ROOT
ATOM      1  N   UNL     1      -1.624  12.029  21.470  0.00  0.00    +0.000 N 
ATOM      2  C   UNL     1      -0.684  11.154  22.029  0.00  0.00    +0.000 A 
ATOM      3  O   UNL     1      -0.408  11.112  23.225  0.00  0.00    +0.000 OA
ATOM      4  C   UNL     1      -0.064  10.306  21.066  0.00  0.00    +0.000 A 
ATOM      5  C   UNL     1      -0.375  10.352  19.743  0.00  0.00    +0.000 A 
ATOM      6  N   UNL     1       0.365   9.475  19.024  0.00  0.00    +0.000 NA
ATOM      7  C   UNL     1       1.150   8.857  19.893  0.00  0.00    +0.000 A 
ATOM      8  N   UNL     1       0.909   9.340  21.172  0.00  0.00    +0.000 N 
ATOM      9  C   UNL     1       1.569   8.992  22.411  0.00  0.00    +0.000 C 
ATOM     10  N   UNL     1      -1.316  11.216  19.237  0.00  0.00    +0.000 N 
ATOM     11  C   UNL     1      -1.978  12.084  20.106  0.00  0.00    +0.000 A 
ATOM     12  O   UNL     1      -2.838  12.872  19.699  0.00  0.00    +0.000 OA
ENDROOT
BRANCH   7  13
ATOM     13  C   UNL     1       2.129   7.860  19.619  0.00  0.00    +0.000 C 
ATOM     14  C   UNL     1       2.433   7.597  18.336  0.00  0.00    +0.000 C 
BRANCH  14  15
ATOM     15  C   UNL     1       3.388   6.588  17.847  0.00  0.00    +0.000 A 
ATOM     16  C   UNL     1       4.416   7.010  16.994  0.00  0.00    +0.000 A 
ATOM     17  C   UNL     1       5.327   6.092  16.471  0.00  0.00    +0.000 A 
ATOM     18  C   UNL     1       5.201   4.737  16.774  0.00  0.00    +0.000 A 
ATOM     19  C   UNL     1       4.140   4.282  17.559  0.00  0.00    +0.000 A 
ATOM     20  C   UNL     1       3.267   5.219  18.131  0.00  0.00    +0.000 A 
BRANCH  19  21
ATOM     21  N   UNL     1       4.083   2.935  17.944  0.00  0.00    +0.000 N 
ATOM     22  H   UNL     1       4.559   2.310  17.301  0.00  0.00    +0.000 HD
ATOM     23  H   UNL     1       3.145   2.613  18.162  0.00  0.00    +0.000 HD
ENDBRANCH  19  21
ENDBRANCH  14  15
ENDBRANCH   7  13
BRANCH   1  24
ATOM     24  C   UNL     1      -2.300  12.969  22.362  0.00  0.00    +0.000 C 
BRANCH  24  26
ATOM     25  C   UNL     1      -3.907  13.148  24.334  0.00  0.00    +0.000 C 
ATOM     26  C   UNL     1      -3.499  12.359  23.099  0.00  0.00    +0.000 C 
ENDBRANCH  24  26
ENDBRANCH   1  24
BRANCH  10  27
ATOM     27  C   UNL     1      -1.623  11.231  17.810  0.00  0.00    +0.000 C 
BRANCH  27  28
ATOM     28  C   UNL     1      -2.601  10.133  17.382  0.00  0.00    +0.000 C 
ATOM     29  C   UNL     1      -2.807  10.050  15.877  0.00  0.00    +0.000 C 
ENDBRANCH  27  28
ENDBRANCH  10  27
TORSDOF 7
ENDMDL
MODEL 2
REMARK VINA RESULT:      -7.1      3.478      9.198
REMARK  Name = 
REMARK  10 active torsions:
REMARK  status: ('A' for Active; 'I' for Inactive)
REMARK    1  A    between atoms: C_1  and  C_2
REMARK    2  A    between atoms: C_2  and  C_3
REMARK    3  A    between atoms: C_3  and  N_4
REMARK    4  A    between atoms: C_10  and  C_11
REMARK    5  A    between atoms: C_12  and  C_13
REMARK    6  A    between atoms: C_17  and  N_18
REMARK    7  A    between atoms: N_20  and  C_21
REMARK    8  A    between atoms: N_22  and  C_23
REMARK    9  A    between atoms: C_23  and  C_24
REMARK   10  A    between atoms: C_24  and  C_25
REMARK                            x       y       z     vdW  Elec       q    Type
REMARK                         _______ _______ _______ _____ _____    ______ ____
ROOT
ATOM      1  N   UNL     1       4.641   5.090  18.049  0.00  0.00    +0.000 N 
ATOM      2  C   UNL     1       4.180   6.359  17.675  0.00  0.00    +0.000 A 
ATOM      3  O   UNL     1       4.593   6.982  16.701  0.00  0.00    +0.000 OA
ATOM      4  C   UNL     1       3.174   6.870  18.545  0.00  0.00    +0.000 A 
ATOM      5  C   UNL     1       2.715   6.176  19.621  0.00  0.00    +0.000 A 
ATOM      6  N   UNL     1       1.785   6.878  20.311  0.00  0.00    +0.000 NA
ATOM      7  C   UNL     1       1.641   8.027  19.669  0.00  0.00    +0.000 A 
ATOM      8  N   UNL     1       2.481   8.058  18.564  0.00  0.00    +0.000 N 
ATOM      9  C   UNL     1       2.691   9.129  17.616  0.00  0.00    +0.000 C 
ATOM     10  N   UNL     1       3.184   4.925  19.945  0.00  0.00    +0.000 N 
ATOM     11  C   UNL     1       4.170   4.342  19.147  0.00  0.00    +0.000 A 
ATOM     12  O   UNL     1       4.615   3.216  19.393  0.00  0.00    +0.000 OA
ENDROOT
BRANCH   7  13
ATOM     13  C   UNL     1       0.792   9.114  20.021  0.00  0.00    +0.000 C 
ATOM     14  C   UNL     1       0.874   9.613  21.266  0.00  0.00    +0.000 C 
BRANCH  14  15
ATOM     15  C   UNL     1       0.066  10.707  21.830  0.00  0.00    +0.000 A 
ATOM     16  C   UNL     1      -0.885  10.389  22.809  0.00  0.00    +0.000 A 
ATOM     17  C   UNL     1      -1.704  11.380  23.352  0.00  0.00    +0.000 A 
ATOM     18  C   UNL     1      -1.600  12.694  22.901  0.00  0.00    +0.000 A 
ATOM     19  C   UNL     1      -0.715  13.021  21.871  0.00  0.00    +0.000 A 
ATOM     20  C   UNL     1       0.148  12.032  21.377  0.00  0.00    +0.000 A 
BRANCH  19  21
ATOM     21  N   UNL     1      -0.543  14.362  21.498  0.00  0.00    +0.000 N 
ATOM     22  H   UNL     1      -0.018  14.907  22.176  0.00  0.00    +0.000 HD
ATOM     23  H   UNL     1      -1.405  14.823  21.225  0.00  0.00    +0.000 HD
ENDBRANCH  19  21
ENDBRANCH  14  15
ENDBRANCH   7  13
BRANCH   1  24
ATOM     24  C   UNL     1       5.699   4.481  17.244  0.00  0.00    +0.000 C 
BRANCH  24  26
ATOM     25  C   UNL     1       5.956   4.180  14.726  0.00  0.00    +0.000 C 
ATOM     26  C   UNL     1       5.182   3.791  15.976  0.00  0.00    +0.000 C 
ENDBRANCH  24  26
ENDBRANCH   1  24
BRANCH  10  27
ATOM     27  C   UNL     1       2.662   4.211  21.106  0.00  0.00    +0.000 C 
BRANCH  27  28
ATOM     28  C   UNL     1       1.250   3.655  20.900  0.00  0.00    +0.000 C 
ATOM     29  C   UNL     1       1.174   2.555  19.852  0.00  0.00    +0.000 C 
ENDBRANCH  27  28
ENDBRANCH  10  27
TORSDOF 7
ENDMDL
MODEL 3
REMARK VINA RESULT:      -7.0      1.070      1.338
REMARK  Name = 
REMARK  10 active torsions:
REMARK  status: ('A' for Active; 'I' for Inactive)
REMARK    1  A    between atoms: C_1  and  C_2
REMARK    2  A    between atoms: C_2  and  C_3
REMARK    3  A    between atoms: C_3  and  N_4
REMARK    4  A    between atoms: C_10  and  C_11
REMARK    5  A    between atoms: C_12  and  C_13
REMARK    6  A    between atoms: C_17  and  N_18
REMARK    7  A    between atoms: N_20  and  C_21
REMARK    8  A    between atoms: N_22  and  C_23
REMARK    9  A    between atoms: C_23  and  C_24
REMARK   10  A    between atoms: C_24  and  C_25
REMARK                            x       y       z     vdW  Elec       q    Type
REMARK                         _______ _______ _______ _____ _____    ______ ____
ROOT
ATOM      1  N   UNL     1      -1.447  12.042  21.456  0.00  0.00    +0.000 N 
ATOM      2  C   UNL     1      -0.565  11.094  21.993  0.00  0.00    +0.000 A 
ATOM      3  O   UNL     1      -0.337  10.970  23.194  0.00  0.00    +0.000 OA
ATOM      4  C   UNL     1       0.054  10.278  21.003  0.00  0.00    +0.000 A 
ATOM      5  C   UNL     1      -0.205  10.415  19.676  0.00  0.00    +0.000 A 
ATOM      6  N   UNL     1       0.524   9.550  18.931  0.00  0.00    +0.000 NA
ATOM      7  C   UNL     1       1.249   8.848  19.788  0.00  0.00    +0.000 A 
ATOM      8  N   UNL     1       0.982   9.265  21.085  0.00  0.00    +0.000 N 
ATOM      9  C   UNL     1       1.579   8.817  22.323  0.00  0.00    +0.000 C 
ATOM     10  N   UNL     1      -1.089  11.348  19.190  0.00  0.00    +0.000 N 
ATOM     11  C   UNL     1      -1.747  12.192  20.087  0.00  0.00    +0.000 A 
ATOM     12  O   UNL     1      -2.557  13.039  19.698  0.00  0.00    +0.000 OA
ENDROOT
BRANCH   7  13
ATOM     13  C   UNL     1       2.195   7.828  19.489  0.00  0.00    +0.000 C 
ATOM     14  C   UNL     1       1.791   6.774  18.758  0.00  0.00    +0.000 C 
BRANCH  14  15
ATOM     15  C   UNL     1       2.603   5.607  18.372  0.00  0.00    +0.000 A 
ATOM     16  C   UNL     1       1.970   4.557  17.694  0.00  0.00    +0.000 A 
ATOM     17  C   UNL     1       2.681   3.411  17.336  0.00  0.00    +0.000 A 
ATOM     18  C   UNL     1       4.027   3.293  17.679  0.00  0.00    +0.000 A 
ATOM     19  C   UNL     1       4.660   4.292  18.422  0.00  0.00    +0.000 A 
ATOM     20  C   UNL     1       3.954   5.466  18.721  0.00  0.00    +0.000 A 
BRANCH  19  21
ATOM     21  N   UNL     1       6.038   4.211  18.669  0.00  0.00    +0.000 N 
ATOM     22  H   UNL     1       6.554   5.026  18.350  0.00  0.00    +0.000 HD
ATOM     23  H   UNL     1       6.459   3.345  18.350  0.00  0.00    +0.000 HD
ENDBRANCH  19  21
ENDBRANCH  14  15
ENDBRANCH   7  13
BRANCH   1  24
ATOM     24  C   UNL     1      -2.116  12.956  22.379  0.00  0.00    +0.000 C 
BRANCH  24  26
ATOM     25  C   UNL     1      -4.665  12.937  22.442  0.00  0.00    +0.000 C 
ATOM     26  C   UNL     1      -3.379  12.365  23.018  0.00  0.00    +0.000 C 
ENDBRANCH  24  26
ENDBRANCH   1  24
BRANCH  10  27
ATOM     27  C   UNL     1      -1.342  11.461  17.757  0.00  0.00    +0.000 C 
BRANCH  27  28
ATOM     28  C   UNL     1      -2.372  10.455  17.236  0.00  0.00    +0.000 C 
ATOM     29  C   UNL     1      -2.890  10.777  15.842  0.00  0.00    +0.000 C 
ENDBRANCH  27  28
ENDBRANCH  10  27
TORSDOF 7
ENDMDL
MODEL 4
REMARK VINA RESULT:      -7.0      1.177      1.571
REMARK  Name = 
REMARK  10 active torsions:
REMARK  status: ('A' for Active; 'I' for Inactive)
REMARK    1  A    between atoms: C_1  and  C_2
REMARK    2  A    between atoms: C_2  and  C_3
REMARK    3  A    between atoms: C_3  and  N_4
REMARK    4  A    between atoms: C_10  and  C_11
REMARK    5  A    between atoms: C_12  and  C_13
REMARK    6  A    between atoms: C_17  and  N_18
REMARK    7  A    between atoms: N_20  and  C_21
REMARK    8  A    between atoms: N_22  and  C_23
REMARK    9  A    between atoms: C_23  and  C_24
REMARK   10  A    between atoms: C_24  and  C_25
REMARK                            x       y       z     vdW  Elec       q    Type
REMARK                         _______ _______ _______ _____ _____    ______ ____
ROOT
ATOM      1  N   UNL     1      -1.753  12.183  21.591  0.00  0.00    +0.000 N 
ATOM      2  C   UNL     1      -0.807  11.292  22.113  0.00  0.00    +0.000 A 
ATOM      3  O   UNL     1      -0.511  11.221  23.303  0.00  0.00    +0.000 OA
ATOM      4  C   UNL     1      -0.207  10.465  21.119  0.00  0.00    +0.000 A 
ATOM      5  C   UNL     1      -0.540  10.543  19.804  0.00  0.00    +0.000 A 
ATOM      6  N   UNL     1       0.185   9.681  19.051  0.00  0.00    +0.000 NA
ATOM      7  C   UNL     1       0.982   9.040  19.892  0.00  0.00    +0.000 A 
ATOM      8  N   UNL     1       0.765   9.494  21.186  0.00  0.00    +0.000 N 
ATOM      9  C   UNL     1       1.444   9.114  22.405  0.00  0.00    +0.000 C 
ATOM     10  N   UNL     1      -1.486  11.423  19.334  0.00  0.00    +0.000 N 
ATOM     11  C   UNL     1      -2.130  12.272  20.235  0.00  0.00    +0.000 A 
ATOM     12  O   UNL     1      -2.994  13.072  19.862  0.00  0.00    +0.000 OA
ENDROOT
BRANCH   7  13
ATOM     13  C   UNL     1       1.952   8.048  19.578  0.00  0.00    +0.000 C 
ATOM     14  C   UNL     1       2.215   7.796  18.283  0.00  0.00    +0.000 C 
BRANCH  14  15
ATOM     15  C   UNL     1       3.154   6.793  17.755  0.00  0.00    +0.000 A 
ATOM     16  C   UNL     1       2.830   5.438  17.909  0.00  0.00    +0.000 A 
ATOM     17  C   UNL     1       3.700   4.444  17.461  0.00  0.00    +0.000 A 
ATOM     18  C   UNL     1       4.917   4.794  16.880  0.00  0.00    +0.000 A 
ATOM     19  C   UNL     1       5.297   6.135  16.785  0.00  0.00    +0.000 A 
ATOM     20  C   UNL     1       4.390   7.128  17.180  0.00  0.00    +0.000 A 
BRANCH  19  21
ATOM     21  N   UNL     1       6.473   6.481  16.105  0.00  0.00    +0.000 N 
ATOM     22  H   UNL     1       6.650   5.908  15.284  0.00  0.00    +0.000 HD
ATOM     23  H   UNL     1       7.289   6.545  16.706  0.00  0.00    +0.000 HD
ENDBRANCH  19  21
ENDBRANCH  14  15
ENDBRANCH   7  13
BRANCH   1  24
ATOM     24  C   UNL     1      -2.411  13.104  22.517  0.00  0.00    +0.000 C 
BRANCH  24  26
ATOM     25  C   UNL     1      -1.401  14.684  24.244  0.00  0.00    +0.000 C 
ATOM     26  C   UNL     1      -1.618  14.392  22.767  0.00  0.00    +0.000 C 
ENDBRANCH  24  26
ENDBRANCH   1  24
BRANCH  10  27
ATOM     27  C   UNL     1      -1.818  11.472  17.914  0.00  0.00    +0.000 C 
BRANCH  27  28
ATOM     28  C   UNL     1      -2.931  10.502  17.510  0.00  0.00    +0.000 C 
ATOM     29  C   UNL     1      -4.082  11.166  16.769  0.00  0.00    +0.000 C 
ENDBRANCH  27  28
ENDBRANCH  10  27
TORSDOF 7
ENDMDL
MODEL 5
REMARK VINA RESULT:      -7.0      1.717      2.016
REMARK  Name = 
REMARK  10 active torsions:
REMARK  status: ('A' for Active; 'I' for Inactive)
REMARK    1  A    between atoms: C_1  and  C_2
REMARK    2  A    between atoms: C_2  and  C_3
REMARK    3  A    between atoms: C_3  and  N_4
REMARK    4  A    between atoms: C_10  and  C_11
REMARK    5  A    between atoms: C_12  and  C_13
REMARK    6  A    between atoms: C_17  and  N_18
REMARK    7  A    between atoms: N_20  and  C_21
REMARK    8  A    between atoms: N_22  and  C_23
REMARK    9  A    between atoms: C_23  and  C_24
REMARK   10  A    between atoms: C_24  and  C_25
REMARK                            x       y       z     vdW  Elec       q    Type
REMARK                         _______ _______ _______ _____ _____    ______ ____
ROOT
ATOM      1  N   UNL     1      -2.963  12.299  19.688  0.00  0.00    +0.000 N 
ATOM      2  C   UNL     1      -1.659  12.105  20.163  0.00  0.00    +0.000 A 
ATOM      3  O   UNL     1      -1.197  12.667  21.153  0.00  0.00    +0.000 OA
ATOM      4  C   UNL     1      -0.905  11.186  19.378  0.00  0.00    +0.000 A 
ATOM      5  C   UNL     1      -1.421  10.563  18.285  0.00  0.00    +0.000 A 
ATOM      6  N   UNL     1      -0.507   9.762  17.687  0.00  0.00    +0.000 NA
ATOM      7  C   UNL     1       0.599   9.867  18.406  0.00  0.00    +0.000 A 
ATOM      8  N   UNL     1       0.392  10.737  19.468  0.00  0.00    +0.000 N 
ATOM      9  C   UNL     1       1.333  11.184  20.470  0.00  0.00    +0.000 C 
ATOM     10  N   UNL     1      -2.712  10.769  17.861  0.00  0.00    +0.000 N 
ATOM     11  C   UNL     1      -3.528  11.652  18.570  0.00  0.00    +0.000 A 
ATOM     12  O   UNL     1      -4.697  11.861  18.233  0.00  0.00    +0.000 OA
ENDROOT
BRANCH   7  13
ATOM     13  C   UNL     1       1.851   9.232  18.165  0.00  0.00    +0.000 C 
ATOM     14  C   UNL     1       1.928   7.897  18.302  0.00  0.00    +0.000 C 
BRANCH  14  15
ATOM     15  C   UNL     1       3.130   7.063  18.130  0.00  0.00    +0.000 A 
ATOM     16  C   UNL     1       4.081   7.462  17.182  0.00  0.00    +0.000 A 
ATOM     17  C   UNL     1       5.221   6.691  16.950  0.00  0.00    +0.000 A 
ATOM     18  C   UNL     1       5.407   5.498  17.647  0.00  0.00    +0.000 A 
ATOM     19  C   UNL     1       4.436   5.041  18.541  0.00  0.00    +0.000 A 
ATOM     20  C   UNL     1       3.326   5.852  18.812  0.00  0.00    +0.000 A 
BRANCH  19  21
ATOM     21  N   UNL     1       4.681   3.896  19.312  0.00  0.00    +0.000 N 
ATOM     22  H   UNL     1       5.463   3.999  19.952  0.00  0.00    +0.000 HD
ATOM     23  H   UNL     1       4.748   3.043  18.766  0.00  0.00    +0.000 HD
ENDBRANCH  19  21
ENDBRANCH  14  15
ENDBRANCH   7  13
BRANCH   1  24
ATOM     24  C   UNL     1      -3.818  13.247  20.400  0.00  0.00    +0.000 C 
BRANCH  24  26
ATOM     25  C   UNL     1      -6.076  12.723  21.462  0.00  0.00    +0.000 C 
ATOM     26  C   UNL     1      -4.563  12.626  21.588  0.00  0.00    +0.000 C 
ENDBRANCH  24  26
ENDBRANCH   1  24
BRANCH  10  27
ATOM     27  C   UNL     1      -3.229  10.077  16.684  0.00  0.00    +0.000 C 
BRANCH  27  28
ATOM     28  C   UNL     1      -3.033  10.855  15.379  0.00  0.00    +0.000 C 
ATOM     29  C   UNL     1      -3.410  10.066  14.135  0.00  0.00    +0.000 C 
ENDBRANCH  27  28
ENDBRANCH  10  27
TORSDOF 7
ENDMDL
MODEL 6
REMARK VINA RESULT:      -7.0      4.079      9.777
REMARK  Name = 
REMARK  10 active torsions:
REMARK  status: ('A' for Active; 'I' for Inactive)
REMARK    1  A    between atoms: C_1  and  C_2
REMARK    2  A    between atoms: C_2  and  C_3
REMARK    3  A    between atoms: C_3  and  N_4
REMARK    4  A    between atoms: C_10  and  C_11
REMARK    5  A    between atoms: C_12  and  C_13
REMARK    6  A    between atoms: C_17  and  N_18
REMARK    7  A    between atoms: N_20  and  C_21
REMARK    8  A    between atoms: N_22  and  C_23
REMARK    9  A    between atoms: C_23  and  C_24
REMARK   10  A    between atoms: C_24  and  C_25
REMARK                            x       y       z     vdW  Elec       q    Type
REMARK                         _______ _______ _______ _____ _____    ______ ____
ROOT
ATOM      1  N   UNL     1       5.670   4.484  15.678  0.00  0.00    +0.000 N 
ATOM      2  C   UNL     1       4.459   4.262  16.347  0.00  0.00    +0.000 A 
ATOM      3  O   UNL     1       3.751   3.272  16.179  0.00  0.00    +0.000 OA
ATOM      4  C   UNL     1       4.116   5.308  17.251  0.00  0.00    +0.000 A 
ATOM      5  C   UNL     1       4.903   6.401  17.437  0.00  0.00    +0.000 A 
ATOM      6  N   UNL     1       4.355   7.269  18.320  0.00  0.00    +0.000 NA
ATOM      7  C   UNL     1       3.211   6.725  18.707  0.00  0.00    +0.000 A 
ATOM      8  N   UNL     1       3.030   5.505  18.071  0.00  0.00    +0.000 N 
ATOM      9  C   UNL     1       1.906   4.599  18.153  0.00  0.00    +0.000 C 
ATOM     10  N   UNL     1       6.093   6.573  16.771  0.00  0.00    +0.000 N 
ATOM     11  C   UNL     1       6.513   5.597  15.866  0.00  0.00    +0.000 A 
ATOM     12  O   UNL     1       7.580   5.704  15.252  0.00  0.00    +0.000 OA
ENDROOT
BRANCH   7  13
ATOM     13  C   UNL     1       2.258   7.269  19.613  0.00  0.00    +0.000 C 
ATOM     14  C   UNL     1       1.833   8.530  19.416  0.00  0.00    +0.000 C 
BRANCH  14  15
ATOM     15  C   UNL     1       0.881   9.279  20.254  0.00  0.00    +0.000 A 
ATOM     16  C   UNL     1       0.216  10.372  19.682  0.00  0.00    +0.000 A 
ATOM     17  C   UNL     1      -0.668  11.141  20.439  0.00  0.00    +0.000 A 
ATOM     18  C   UNL     1      -0.875  10.840  21.785  0.00  0.00    +0.000 A 
ATOM     19  C   UNL     1      -0.166   9.805  22.397  0.00  0.00    +0.000 A 
ATOM     20  C   UNL     1       0.673   8.999  21.613  0.00  0.00    +0.000 A 
BRANCH  19  21
ATOM     21  N   UNL     1      -0.458   9.444  23.720  0.00  0.00    +0.000 N 
ATOM     22  H   UNL     1       0.148   9.889  24.404  0.00  0.00    +0.000 HD
ATOM     23  H   UNL     1      -0.522   8.442  23.865  0.00  0.00    +0.000 HD
ENDBRANCH  19  21
ENDBRANCH  14  15
ENDBRANCH   7  13
BRANCH   1  24
ATOM     24  C   UNL     1       6.106   3.487  14.701  0.00  0.00    +0.000 C 
BRANCH  24  26
ATOM     25  C   UNL     1       6.640   3.414  12.209  0.00  0.00    +0.000 C 
ATOM     26  C   UNL     1       5.617   3.772  13.276  0.00  0.00    +0.000 C 
ENDBRANCH  24  26
ENDBRANCH   1  24
BRANCH  10  27
ATOM     27  C   UNL     1       6.912   7.760  17.003  0.00  0.00    +0.000 C 
BRANCH  27  28
ATOM     28  C   UNL     1       7.946   7.582  18.119  0.00  0.00    +0.000 C 
ATOM     29  C   UNL     1       8.601   8.883  18.557  0.00  0.00    +0.000 C 
ENDBRANCH  27  28
ENDBRANCH  10  27
TORSDOF 7
ENDMDL
MODEL 7
REMARK VINA RESULT:      -7.0      3.273      9.139
REMARK  Name = 
REMARK  10 active torsions:
REMARK  status: ('A' for Active; 'I' for Inactive)
REMARK    1  A    between atoms: C_1  and  C_2
REMARK    2  A    between atoms: C_2  and  C_3
REMARK    3  A    between atoms: C_3  and  N_4
REMARK    4  A    between atoms: C_10  and  C_11
REMARK    5  A    between atoms: C_12  and  C_13
REMARK    6  A    between atoms: C_17  and  N_18
REMARK    7  A    between atoms: N_20  and  C_21
REMARK    8  A    between atoms: N_22  and  C_23
REMARK    9  A    between atoms: C_23  and  C_24
REMARK   10  A    between atoms: C_24  and  C_25
REMARK                            x       y       z     vdW  Elec       q    Type
REMARK                         _______ _______ _______ _____ _____    ______ ____
ROOT
ATOM      1  N   UNL     1       4.036   4.706  17.703  0.00  0.00    +0.000 N 
ATOM      2  C   UNL     1       3.666   6.055  17.613  0.00  0.00    +0.000 A 
ATOM      3  O   UNL     1       3.953   6.786  16.668  0.00  0.00    +0.000 OA
ATOM      4  C   UNL     1       2.915   6.507  18.736  0.00  0.00    +0.000 A 
ATOM      5  C   UNL     1       2.595   5.694  19.777  0.00  0.00    +0.000 A 
ATOM      6  N   UNL     1       1.907   6.357  20.737  0.00  0.00    +0.000 NA
ATOM      7  C   UNL     1       1.779   7.602  20.304  0.00  0.00    +0.000 A 
ATOM      8  N   UNL     1       2.386   7.734  19.063  0.00  0.00    +0.000 N 
ATOM      9  C   UNL     1       2.534   8.920  18.249  0.00  0.00    +0.000 C 
ATOM     10  N   UNL     1       2.966   4.372  19.820  0.00  0.00    +0.000 N 
ATOM     11  C   UNL     1       3.701   3.837  18.761  0.00  0.00    +0.000 A 
ATOM     12  O   UNL     1       4.048   2.652  18.751  0.00  0.00    +0.000 OA
ENDROOT
BRANCH   7  13
ATOM     13  C   UNL     1       1.150   8.690  20.972  0.00  0.00    +0.000 C 
ATOM     14  C   UNL     1       0.199   9.380  20.318  0.00  0.00    +0.000 C 
BRANCH  14  15
ATOM     15  C   UNL     1      -0.542  10.550  20.820  0.00  0.00    +0.000 A 
ATOM     16  C   UNL     1      -0.490  10.826  22.192  0.00  0.00    +0.000 A 
ATOM     17  C   UNL     1      -1.202  11.899  22.729  0.00  0.00    +0.000 A 
ATOM     18  C   UNL     1      -1.996  12.690  21.901  0.00  0.00    +0.000 A 
ATOM     19  C   UNL     1      -2.126  12.388  20.544  0.00  0.00    +0.000 A 
ATOM     20  C   UNL     1      -1.358  11.347  20.003  0.00  0.00    +0.000 A 
BRANCH  19  21
ATOM     21  N   UNL     1      -2.842  13.251  19.702  0.00  0.00    +0.000 N 
ATOM     22  H   UNL     1      -3.812  13.372  19.977  0.00  0.00    +0.000 HD
ATOM     23  H   UNL     1      -2.752  13.025  18.716  0.00  0.00    +0.000 HD
ENDBRANCH  19  21
ENDBRANCH  14  15
ENDBRANCH   7  13
BRANCH   1  24
ATOM     24  C   UNL     1       4.837   4.142  16.618  0.00  0.00    +0.000 C 
BRANCH  24  26
ATOM     25  C   UNL     1       7.027   4.720  15.447  0.00  0.00    +0.000 C 
ATOM     26  C   UNL     1       6.341   4.404  16.767  0.00  0.00    +0.000 C 
ENDBRANCH  24  26
ENDBRANCH   1  24
BRANCH  10  27
ATOM     27  C   UNL     1       2.598   3.531  20.956  0.00  0.00    +0.000 C 
BRANCH  27  28
ATOM     28  C   UNL     1       1.249   2.826  20.784  0.00  0.00    +0.000 C 
ATOM     29  C   UNL     1       0.694   2.904  19.370  0.00  0.00    +0.000 C 
ENDBRANCH  27  28
ENDBRANCH  10  27
TORSDOF 7
ENDMDL
MODEL 8
REMARK VINA RESULT:      -6.9      3.941      9.810
REMARK  Name = 
REMARK  10 active torsions:
REMARK  status: ('A' for Active; 'I' for Inactive)
REMARK    1  A    between atoms: C_1  and  C_2
REMARK    2  A    between atoms: C_2  and  C_3
REMARK    3  A    between atoms: C_3  and  N_4
REMARK    4  A    between atoms: C_10  and  C_11
REMARK    5  A    between atoms: C_12  and  C_13
REMARK    6  A    between atoms: C_17  and  N_18
REMARK    7  A    between atoms: N_20  and  C_21
REMARK    8  A    between atoms: N_22  and  C_23
REMARK    9  A    between atoms: C_23  and  C_24
REMARK   10  A    between atoms: C_24  and  C_25
REMARK                            x       y       z     vdW  Elec       q    Type
REMARK                         _______ _______ _______ _____ _____    ______ ____
ROOT
ATOM      1  N   UNL     1       5.553   4.413  15.826  0.00  0.00    +0.000 N 
ATOM      2  C   UNL     1       4.338   4.193  16.488  0.00  0.00    +0.000 A 
ATOM      3  O   UNL     1       3.609   3.227  16.284  0.00  0.00    +0.000 OA
ATOM      4  C   UNL     1       4.021   5.212  17.432  0.00  0.00    +0.000 A 
ATOM      5  C   UNL     1       4.833   6.279  17.658  0.00  0.00    +0.000 A 
ATOM      6  N   UNL     1       4.305   7.125  18.574  0.00  0.00    +0.000 NA
ATOM      7  C   UNL     1       3.150   6.593  18.943  0.00  0.00    +0.000 A 
ATOM      8  N   UNL     1       2.940   5.402  18.262  0.00  0.00    +0.000 N 
ATOM      9  C   UNL     1       1.796   4.519  18.312  0.00  0.00    +0.000 C 
ATOM     10  N   UNL     1       6.026   6.450  16.997  0.00  0.00    +0.000 N 
ATOM     11  C   UNL     1       6.422   5.499  16.055  0.00  0.00    +0.000 A 
ATOM     12  O   UNL     1       7.490   5.605  15.443  0.00  0.00    +0.000 OA
ENDROOT
BRANCH   7  13
ATOM     13  C   UNL     1       2.211   7.124  19.872  0.00  0.00    +0.000 C 
ATOM     14  C   UNL     1       1.905   8.431  19.797  0.00  0.00    +0.000 C 
BRANCH  14  15
ATOM     15  C   UNL     1       0.988   9.172  20.679  0.00  0.00    +0.000 A 
ATOM     16  C   UNL     1       0.889   8.769  22.018  0.00  0.00    +0.000 A 
ATOM     17  C   UNL     1       0.009   9.411  22.890  0.00  0.00    +0.000 A 
ATOM     18  C   UNL     1      -0.802  10.444  22.425  0.00  0.00    +0.000 A 
ATOM     19  C   UNL     1      -0.778  10.812  21.077  0.00  0.00    +0.000 A 
ATOM     20  C   UNL     1       0.154  10.205  20.224  0.00  0.00    +0.000 A 
BRANCH  19  21
ATOM     21  N   UNL     1      -1.518  11.920  20.643  0.00  0.00    +0.000 N 
ATOM     22  H   UNL     1      -1.018  12.507  19.981  0.00  0.00    +0.000 HD
ATOM     23  H   UNL     1      -1.924  12.462  21.399  0.00  0.00    +0.000 HD
ENDBRANCH  19  21
ENDBRANCH  14  15
ENDBRANCH   7  13
BRANCH   1  24
ATOM     24  C   UNL     1       5.965   3.445  14.811  0.00  0.00    +0.000 C 
BRANCH  24  26
ATOM     25  C   UNL     1       6.585   3.690  12.350  0.00  0.00    +0.000 C 
ATOM     26  C   UNL     1       5.488   3.799  13.398  0.00  0.00    +0.000 C 
ENDBRANCH  24  26
ENDBRANCH   1  24
BRANCH  10  27
ATOM     27  C   UNL     1       6.871   7.607  17.272  0.00  0.00    +0.000 C 
BRANCH  27  28
ATOM     28  C   UNL     1       7.981   7.328  18.290  0.00  0.00    +0.000 C 
ATOM     29  C   UNL     1       7.839   5.988  18.997  0.00  0.00    +0.000 C 
ENDBRANCH  27  28
ENDBRANCH  10  27
TORSDOF 7
ENDMDL
MODEL 9
REMARK VINA RESULT:      -6.9      1.487      2.089
REMARK  Name = 
REMARK  10 active torsions:
REMARK  status: ('A' for Active; 'I' for Inactive)
REMARK    1  A    between atoms: C_1  and  C_2
REMARK    2  A    between atoms: C_2  and  C_3
REMARK    3  A    between atoms: C_3  and  N_4
REMARK    4  A    between atoms: C_10  and  C_11
REMARK    5  A    between atoms: C_12  and  C_13
REMARK    6  A    between atoms: C_17  and  N_18
REMARK    7  A    between atoms: N_20  and  C_21
REMARK    8  A    between atoms: N_22  and  C_23
REMARK    9  A    between atoms: C_23  and  C_24
REMARK   10  A    between atoms: C_24  and  C_25
REMARK                            x       y       z     vdW  Elec       q    Type
REMARK                         _______ _______ _______ _____ _____    ______ ____
ROOT
ATOM      1  N   UNL     1      -1.557  12.072  21.194  0.00  0.00    +0.000 N 
ATOM      2  C   UNL     1      -0.715  11.271  21.978  0.00  0.00    +0.000 A 
ATOM      3  O   UNL     1      -0.543  11.428  23.184  0.00  0.00    +0.000 OA
ATOM      4  C   UNL     1      -0.065  10.244  21.235  0.00  0.00    +0.000 A 
ATOM      5  C   UNL     1      -0.262  10.070  19.901  0.00  0.00    +0.000 A 
ATOM      6  N   UNL     1       0.486   9.052  19.412  0.00  0.00    +0.000 NA
ATOM      7  C   UNL     1       1.161   8.566  20.442  0.00  0.00    +0.000 A 
ATOM      8  N   UNL     1       0.842   9.274  21.593  0.00  0.00    +0.000 N 
ATOM      9  C   UNL     1       1.377   9.122  22.927  0.00  0.00    +0.000 C 
ATOM     10  N   UNL     1      -1.109  10.869  19.171  0.00  0.00    +0.000 N 
ATOM     11  C   UNL     1      -1.793  11.901  19.815  0.00  0.00    +0.000 A 
ATOM     12  O   UNL     1      -2.572  12.639  19.203  0.00  0.00    +0.000 OA
ENDROOT
BRANCH   7  13
ATOM     13  C   UNL     1       2.103   7.499  20.433  0.00  0.00    +0.000 C 
ATOM     14  C   UNL     1       1.657   6.251  20.202  0.00  0.00    +0.000 C 
BRANCH  14  15
ATOM     15  C   UNL     1       2.462   5.018  20.183  0.00  0.00    +0.000 A 
ATOM     16  C   UNL     1       2.032   3.937  20.964  0.00  0.00    +0.000 A 
ATOM     17  C   UNL     1       2.775   2.757  21.013  0.00  0.00    +0.000 A 
ATOM     18  C   UNL     1       3.970   2.657  20.304  0.00  0.00    +0.000 A 
ATOM     19  C   UNL     1       4.458   3.748  19.581  0.00  0.00    +0.000 A 
ATOM     20  C   UNL     1       3.674   4.906  19.486  0.00  0.00    +0.000 A 
BRANCH  19  21
ATOM     21  N   UNL     1       5.605   3.603  18.788  0.00  0.00    +0.000 N 
ATOM     22  H   UNL     1       6.182   4.438  18.753  0.00  0.00    +0.000 HD
ATOM     23  H   UNL     1       5.416   3.233  17.861  0.00  0.00    +0.000 HD
ENDBRANCH  19  21
ENDBRANCH  14  15
ENDBRANCH   7  13
BRANCH   1  24
ATOM     24  C   UNL     1      -2.253  13.179  21.848  0.00  0.00    +0.000 C 
BRANCH  24  26
ATOM     25  C   UNL     1      -3.763  12.638  23.830  0.00  0.00    +0.000 C 
ATOM     26  C   UNL     1      -3.666  12.819  22.323  0.00  0.00    +0.000 C 
ENDBRANCH  24  26
ENDBRANCH   1  24
BRANCH  10  27
ATOM     27  C   UNL     1      -1.296  10.646  17.740  0.00  0.00    +0.000 C 
BRANCH  27  28
ATOM     28  C   UNL     1      -2.539   9.816  17.406  0.00  0.00    +0.000 C 
ATOM     29  C   UNL     1      -3.231  10.244  16.121  0.00  0.00    +0.000 C 
ENDBRANCH  27  28
ENDBRANCH  10  27
TORSDOF 7
ENDMDL
