MODEL 1
REMARK VINA RESULT:      -6.9      0.000      0.000
REMARK  Name = 
REMARK  10 active torsions:
REMARK  status: ('A' for Active; 'I' for Inactive)
REMARK    1  A    between atoms: C_1  and  C_2
REMARK    2  A    between atoms: C_2  and  C_3
REMARK    3  A    between atoms: C_3  and  C_4
REMARK    4  A    between atoms: C_4  and  C_5
REMARK    5  A    between atoms: C_4  and  C_6
REMARK    6  A    between atoms: C_6  and  S_7
REMARK    7  A    between atoms: S_7  and  N_10
REMARK    8  A    between atoms: N_10  and  C_11
REMARK    9  A    between atoms: C_11  and  C_12
REMARK   10  A    between atoms: C_12  and  C_13
REMARK                            x       y       z     vdW  Elec       q    Type
REMARK                         _______ _______ _______ _____ _____    ______ ____
ROOT
ATOM      1  C   UNL     1       7.553   4.919  16.965  0.00  0.00    +0.000 C 
ENDROOT
BRANCH   1   2
ATOM      2  N   UNL     1       7.402   5.121  15.505  0.00  0.00    +0.000 NA
ATOM      3  H   UNL     1       7.444   6.099  15.207  0.00  0.00    +0.000 HD
BRANCH   2   4
ATOM      4  S   UNL     1       6.005   4.437  14.822  0.00  0.00    +0.000 S 
ATOM      5  O   UNL     1       5.068   5.532  14.686  0.00  0.00    +0.000 OA
ATOM      6  O   UNL     1       5.697   3.285  15.635  0.00  0.00    +0.000 OA
BRANCH   4   7
ATOM      7  C   UNL     1       6.565   3.927  13.190  0.00  0.00    +0.000 C 
BRANCH   7   8
ATOM      8  C   UNL     1       5.574   3.002  12.455  0.00  0.00    +0.000 C 
ATOM      9  C   UNL     1       6.276   2.154  11.388  0.00  0.00    +0.000 C 
BRANCH   8  10
ATOM     10  C   UNL     1       4.443   3.856  11.825  0.00  0.00    +0.000 C 
BRANCH  10  12
ATOM     11  C   UNL     1       3.021   4.044   9.729  0.00  0.00    +0.000 C 
ATOM     12  C   UNL     1       3.637   3.108  10.757  0.00  0.00    +0.000 C 
ENDBRANCH  10  12
ENDBRANCH   8  10
ENDBRANCH   7   8
ENDBRANCH   4   7
ENDBRANCH   2   4
ENDBRANCH   1   2
BRANCH   1  13
ATOM     13  C   UNL     1       7.146   6.166  17.749  0.00  0.00    +0.000 C 
BRANCH  13  14
ATOM     14  C   UNL     1       5.672   6.162  18.000  0.00  0.00    +0.000 A 
ATOM     15  C   UNL     1       4.787   7.180  17.712  0.00  0.00    +0.000 A 
ATOM     16  S   UNL     1       3.192   6.680  18.051  0.00  0.00    +0.000 S 
ATOM     17  C   UNL     1       3.771   5.126  18.566  0.00  0.00    +0.000 A 
ATOM     18  N   UNL     1       2.929   4.137  18.980  0.00  0.00    +0.000 N 
ATOM     19  C   UNL     1       3.451   2.858  19.445  0.00  0.00    +0.000 C 
ATOM     20  C   UNL     1       2.512   1.824  18.828  0.00  0.00    +0.000 C 
ATOM     21  C   UNL     1       1.186   2.560  18.745  0.00  0.00    +0.000 C 
ATOM     22  C   UNL     1       1.597   3.989  18.402  0.00  0.00    +0.000 C 
ATOM     23  N   UNL     1       5.084   5.019  18.524  0.00  0.00    +0.000 NA
ENDBRANCH  13  14
ENDBRANCH   1  13
TORSDOF 8
ENDMDL
MODEL 2
REMARK VINA RESULT:      -6.6      4.402      5.716
REMARK  Name = 
REMARK  10 active torsions:
REMARK  status: ('A' for Active; 'I' for Inactive)
REMARK    1  A    between atoms: C_1  and  C_2
REMARK    2  A    between atoms: C_2  and  C_3
REMARK    3  A    between atoms: C_3  and  C_4
REMARK    4  A    between atoms: C_4  and  C_5
REMARK    5  A    between atoms: C_4  and  C_6
REMARK    6  A    between atoms: C_6  and  S_7
REMARK    7  A    between atoms: S_7  and  N_10
REMARK    8  A    between atoms: N_10  and  C_11
REMARK    9  A    between atoms: C_11  and  C_12
REMARK   10  A    between atoms: C_12  and  C_13
REMARK                            x       y       z     vdW  Elec       q    Type
REMARK                         _______ _______ _______ _____ _____    ______ ____
ROOT
ATOM      1  C   UNL     1       3.267   6.135  19.400  0.00  0.00    +0.000 C 
ENDROOT
BRANCH   1   2
ATOM      2  N   UNL     1       3.077   4.666  19.439  0.00  0.00    +0.000 NA
ATOM      3  H   UNL     1       2.792   4.302  20.352  0.00  0.00    +0.000 HD
BRANCH   2   4
ATOM      4  S   UNL     1       4.409   3.751  18.916  0.00  0.00    +0.000 S 
ATOM      5  O   UNL     1       4.134   2.394  19.338  0.00  0.00    +0.000 OA
ATOM      6  O   UNL     1       5.577   4.458  19.385  0.00  0.00    +0.000 OA
BRANCH   4   7
ATOM      7  C   UNL     1       4.287   3.854  17.124  0.00  0.00    +0.000 C 
BRANCH   7   8
ATOM      8  C   UNL     1       5.542   4.444  16.449  0.00  0.00    +0.000 C 
ATOM      9  C   UNL     1       5.312   5.890  15.994  0.00  0.00    +0.000 C 
BRANCH   8  10
ATOM     10  C   UNL     1       5.952   3.548  15.252  0.00  0.00    +0.000 C 
BRANCH  10  12
ATOM     11  C   UNL     1       6.105   3.552  12.717  0.00  0.00    +0.000 C 
ATOM     12  C   UNL     1       6.330   4.342  13.997  0.00  0.00    +0.000 C 
ENDBRANCH  10  12
ENDBRANCH   8  10
ENDBRANCH   7   8
ENDBRANCH   4   7
ENDBRANCH   2   4
ENDBRANCH   1   2
BRANCH   1  13
ATOM     13  C   UNL     1       2.532   6.765  18.217  0.00  0.00    +0.000 C 
BRANCH  13  14
ATOM     14  C   UNL     1       1.989   8.105  18.599  0.00  0.00    +0.000 A 
ATOM     15  C   UNL     1       1.655   9.131  17.740  0.00  0.00    +0.000 A 
ATOM     16  S   UNL     1       0.956  10.419  18.613  0.00  0.00    +0.000 S 
ATOM     17  C   UNL     1       1.136   9.533  20.097  0.00  0.00    +0.000 A 
ATOM     18  N   UNL     1       0.712  10.027  21.294  0.00  0.00    +0.000 N 
ATOM     19  C   UNL     1       0.917   9.275  22.527  0.00  0.00    +0.000 C 
ATOM     20  C   UNL     1      -0.393   9.446  23.291  0.00  0.00    +0.000 C 
ATOM     21  C   UNL     1      -0.880  10.816  22.850  0.00  0.00    +0.000 C 
ATOM     22  C   UNL     1      -0.468  10.881  21.382  0.00  0.00    +0.000 C 
ATOM     23  N   UNL     1       1.728   8.365  19.937  0.00  0.00    +0.000 NA
ENDBRANCH  13  14
ENDBRANCH   1  13
TORSDOF 8
ENDMDL
MODEL 3
REMARK VINA RESULT:      -6.3      4.816      7.850
REMARK  Name = 
REMARK  10 active torsions:
REMARK  status: ('A' for Active; 'I' for Inactive)
REMARK    1  A    between atoms: C_1  and  C_2
REMARK    2  A    between atoms: C_2  and  C_3
REMARK    3  A    between atoms: C_3  and  C_4
REMARK    4  A    between atoms: C_4  and  C_5
REMARK    5  A    between atoms: C_4  and  C_6
REMARK    6  A    between atoms: C_6  and  S_7
REMARK    7  A    between atoms: S_7  and  N_10
REMARK    8  A    between atoms: N_10  and  C_11
REMARK    9  A    between atoms: C_11  and  C_12
REMARK   10  A    between atoms: C_12  and  C_13
REMARK                            x       y       z     vdW  Elec       q    Type
REMARK                         _______ _______ _______ _____ _____    ______ ____
ROOT
ATOM      1  C   UNL     1       1.439   6.647  20.376  0.00  0.00    +0.000 C 
ENDROOT
BRANCH   1   2
ATOM      2  N   UNL     1       2.002   7.823  21.082  0.00  0.00    +0.000 NA
ATOM      3  H   UNL     1       2.607   7.589  21.874  0.00  0.00    +0.000 HD
BRANCH   2   4
ATOM      4  S   UNL     1       0.858   8.954  21.627  0.00  0.00    +0.000 S 
ATOM      5  O   UNL     1       1.395   9.478  22.865  0.00  0.00    +0.000 OA
ATOM      6  O   UNL     1      -0.413   8.271  21.593  0.00  0.00    +0.000 OA
BRANCH   4   7
ATOM      7  C   UNL     1       0.923  10.231  20.361  0.00  0.00    +0.000 C 
BRANCH   7   8
ATOM      8  C   UNL     1       0.388   9.773  18.989  0.00  0.00    +0.000 C 
ATOM      9  C   UNL     1       1.520   9.602  17.969  0.00  0.00    +0.000 C 
BRANCH   8  10
ATOM     10  C   UNL     1      -0.664  10.791  18.481  0.00  0.00    +0.000 C 
BRANCH  10  12
ATOM     11  C   UNL     1      -2.237   9.997  16.653  0.00  0.00    +0.000 C 
ATOM     12  C   UNL     1      -2.019  10.155  18.149  0.00  0.00    +0.000 C 
ENDBRANCH  10  12
ENDBRANCH   8  10
ENDBRANCH   7   8
ENDBRANCH   4   7
ENDBRANCH   2   4
ENDBRANCH   1   2
BRANCH   1  13
ATOM     13  C   UNL     1       1.832   5.340  21.062  0.00  0.00    +0.000 C 
BRANCH  13  14
ATOM     14  C   UNL     1       2.820   4.592  20.224  0.00  0.00    +0.000 A 
ATOM     15  C   UNL     1       3.030   3.229  20.221  0.00  0.00    +0.000 A 
ATOM     16  S   UNL     1       4.160   2.815  19.013  0.00  0.00    +0.000 S 
ATOM     17  C   UNL     1       4.308   4.484  18.555  0.00  0.00    +0.000 A 
ATOM     18  N   UNL     1       5.111   4.888  17.532  0.00  0.00    +0.000 N 
ATOM     19  C   UNL     1       5.244   6.302  17.201  0.00  0.00    +0.000 C 
ATOM     20  C   UNL     1       5.221   6.333  15.675  0.00  0.00    +0.000 C 
ATOM     21  C   UNL     1       5.840   5.001  15.288  0.00  0.00    +0.000 C 
ATOM     22  C   UNL     1       5.320   4.046  16.358  0.00  0.00    +0.000 C 
ATOM     23  N   UNL     1       3.584   5.294  19.302  0.00  0.00    +0.000 NA
ENDBRANCH  13  14
ENDBRANCH   1  13
TORSDOF 8
ENDMDL
MODEL 4
REMARK VINA RESULT:      -6.3      5.487      7.780
REMARK  Name = 
REMARK  10 active torsions:
REMARK  status: ('A' for Active; 'I' for Inactive)
REMARK    1  A    between atoms: C_1  and  C_2
REMARK    2  A    between atoms: C_2  and  C_3
REMARK    3  A    between atoms: C_3  and  C_4
REMARK    4  A    between atoms: C_4  and  C_5
REMARK    5  A    between atoms: C_4  and  C_6
REMARK    6  A    between atoms: C_6  and  S_7
REMARK    7  A    between atoms: S_7  and  N_10
REMARK    8  A    between atoms: N_10  and  C_11
REMARK    9  A    between atoms: C_11  and  C_12
REMARK   10  A    between atoms: C_12  and  C_13
REMARK                            x       y       z     vdW  Elec       q    Type
REMARK                         _______ _______ _______ _____ _____    ______ ____
ROOT
ATOM      1  C   UNL     1       2.163   7.782  17.712  0.00  0.00    +0.000 C 
ENDROOT
BRANCH   1   2
ATOM      2  N   UNL     1       3.454   7.113  18.003  0.00  0.00    +0.000 NA
ATOM      3  H   UNL     1       3.961   6.795  17.173  0.00  0.00    +0.000 HD
BRANCH   2   4
ATOM      4  S   UNL     1       3.361   5.803  19.081  0.00  0.00    +0.000 S 
ATOM      5  O   UNL     1       2.400   6.201  20.088  0.00  0.00    +0.000 OA
ATOM      6  O   UNL     1       4.725   5.490  19.431  0.00  0.00    +0.000 OA
BRANCH   4   7
ATOM      7  C   UNL     1       2.654   4.498  18.065  0.00  0.00    +0.000 C 
BRANCH   7   8
ATOM      8  C   UNL     1       2.621   3.121  18.758  0.00  0.00    +0.000 C 
ATOM      9  C   UNL     1       3.187   2.019  17.854  0.00  0.00    +0.000 C 
BRANCH   8  10
ATOM     10  C   UNL     1       1.167   2.792  19.183  0.00  0.00    +0.000 C 
BRANCH  10  12
ATOM     11  C   UNL     1       2.031   2.816  21.571  0.00  0.00    +0.000 C 
ATOM     12  C   UNL     1       0.867   3.135  20.647  0.00  0.00    +0.000 C 
ENDBRANCH  10  12
ENDBRANCH   8  10
ENDBRANCH   7   8
ENDBRANCH   4   7
ENDBRANCH   2   4
ENDBRANCH   1   2
BRANCH   1  13
ATOM     13  C   UNL     1       2.244   9.288  17.959  0.00  0.00    +0.000 C 
BRANCH  13  14
ATOM     14  C   UNL     1       0.958   9.787  18.538  0.00  0.00    +0.000 A 
ATOM     15  C   UNL     1       0.791  10.396  19.764  0.00  0.00    +0.000 A 
ATOM     16  S   UNL     1      -0.825  10.912  19.944  0.00  0.00    +0.000 S 
ATOM     17  C   UNL     1      -1.216  10.292  18.369  0.00  0.00    +0.000 A 
ATOM     18  N   UNL     1      -2.462  10.410  17.830  0.00  0.00    +0.000 N 
ATOM     19  C   UNL     1      -2.767   9.842  16.523  0.00  0.00    +0.000 C 
ATOM     20  C   UNL     1      -3.620  10.909  15.841  0.00  0.00    +0.000 C 
ATOM     21  C   UNL     1      -4.342  11.574  16.999  0.00  0.00    +0.000 C 
ATOM     22  C   UNL     1      -3.299  11.572  18.113  0.00  0.00    +0.000 C 
ATOM     23  N   UNL     1      -0.199   9.697  17.777  0.00  0.00    +0.000 NA
ENDBRANCH  13  14
ENDBRANCH   1  13
TORSDOF 8
ENDMDL
MODEL 5
REMARK VINA RESULT:      -6.3      4.847      6.564
REMARK  Name = 
REMARK  10 active torsions:
REMARK  status: ('A' for Active; 'I' for Inactive)
REMARK    1  A    between atoms: C_1  and  C_2
REMARK    2  A    between atoms: C_2  and  C_3
REMARK    3  A    between atoms: C_3  and  C_4
REMARK    4  A    between atoms: C_4  and  C_5
REMARK    5  A    between atoms: C_4  and  C_6
REMARK    6  A    between atoms: C_6  and  S_7
REMARK    7  A    between atoms: S_7  and  N_10
REMARK    8  A    between atoms: N_10  and  C_11
REMARK    9  A    between atoms: C_11  and  C_12
REMARK   10  A    between atoms: C_12  and  C_13
REMARK                            x       y       z     vdW  Elec       q    Type
REMARK                         _______ _______ _______ _____ _____    ______ ____
ROOT
ATOM      1  C   UNL     1       3.256   6.454  19.300  0.00  0.00    +0.000 C 
ENDROOT
BRANCH   1   2
ATOM      2  N   UNL     1       2.429   5.878  20.387  0.00  0.00    +0.000 NA
ATOM      3  H   UNL     1       2.763   6.093  21.330  0.00  0.00    +0.000 HD
BRANCH   2   4
ATOM      4  S   UNL     1       2.186   4.200  20.299  0.00  0.00    +0.000 S 
ATOM      5  O   UNL     1       1.155   4.013  19.300  0.00  0.00    +0.000 OA
ATOM      6  O   UNL     1       1.996   3.761  21.660  0.00  0.00    +0.000 OA
BRANCH   4   7
ATOM      7  C   UNL     1       3.755   3.601  19.655  0.00  0.00    +0.000 C 
BRANCH   7   8
ATOM      8  C   UNL     1       3.711   3.229  18.158  0.00  0.00    +0.000 C 
ATOM      9  C   UNL     1       3.541   1.719  17.956  0.00  0.00    +0.000 C 
BRANCH   8  10
ATOM     10  C   UNL     1       5.000   3.737  17.463  0.00  0.00    +0.000 C 
BRANCH  10  12
ATOM     11  C   UNL     1       5.662   4.207  15.057  0.00  0.00    +0.000 C 
ATOM     12  C   UNL     1       4.728   4.564  16.201  0.00  0.00    +0.000 C 
ENDBRANCH  10  12
ENDBRANCH   8  10
ENDBRANCH   7   8
ENDBRANCH   4   7
ENDBRANCH   2   4
ENDBRANCH   1   2
BRANCH   1  13
ATOM     13  C   UNL     1       2.391   7.085  18.210  0.00  0.00    +0.000 C 
BRANCH  13  14
ATOM     14  C   UNL     1       1.918   8.436  18.642  0.00  0.00    +0.000 A 
ATOM     15  C   UNL     1       1.716   9.533  17.832  0.00  0.00    +0.000 A 
ATOM     16  S   UNL     1       1.050  10.815  18.740  0.00  0.00    +0.000 S 
ATOM     17  C   UNL     1       1.067   9.832  20.171  0.00  0.00    +0.000 A 
ATOM     18  N   UNL     1       0.597  10.283  21.368  0.00  0.00    +0.000 N 
ATOM     19  C   UNL     1       0.664   9.445  22.561  0.00  0.00    +0.000 C 
ATOM     20  C   UNL     1      -0.680   9.667  23.249  0.00  0.00    +0.000 C 
ATOM     21  C   UNL     1      -1.038  11.093  22.868  0.00  0.00    +0.000 C 
ATOM     22  C   UNL     1      -0.524  11.215  21.436  0.00  0.00    +0.000 C 
ATOM     23  N   UNL     1       1.585   8.635  19.975  0.00  0.00    +0.000 NA
ENDBRANCH  13  14
ENDBRANCH   1  13
TORSDOF 8
ENDMDL
MODEL 6
REMARK VINA RESULT:      -6.2      4.466      6.809
REMARK  Name = 
REMARK  10 active torsions:
REMARK  status: ('A' for Active; 'I' for Inactive)
REMARK    1  A    between atoms: C_1  and  C_2
REMARK    2  A    between atoms: C_2  and  C_3
REMARK    3  A    between atoms: C_3  and  C_4
REMARK    4  A    between atoms: C_4  and  C_5
REMARK    5  A    between atoms: C_4  and  C_6
REMARK    6  A    between atoms: C_6  and  S_7
REMARK    7  A    between atoms: S_7  and  N_10
REMARK    8  A    between atoms: N_10  and  C_11
REMARK    9  A    between atoms: C_11  and  C_12
REMARK   10  A    between atoms: C_12  and  C_13
REMARK                            x       y       z     vdW  Elec       q    Type
REMARK                         _______ _______ _______ _____ _____    ______ ____
ROOT
ATOM      1  C   UNL     1       2.530   5.897  17.949  0.00  0.00    +0.000 C 
ENDROOT
BRANCH   1   2
ATOM      2  N   UNL     1       3.909   5.832  17.410  0.00  0.00    +0.000 NA
ATOM      3  H   UNL     1       4.033   6.301  16.510  0.00  0.00    +0.000 HD
BRANCH   2   4
ATOM      4  S   UNL     1       4.555   4.267  17.266  0.00  0.00    +0.000 S 
ATOM      5  O   UNL     1       5.334   4.061  18.469  0.00  0.00    +0.000 OA
ATOM      6  O   UNL     1       5.167   4.217  15.961  0.00  0.00    +0.000 OA
BRANCH   4   7
ATOM      7  C   UNL     1       3.091   3.223  17.318  0.00  0.00    +0.000 C 
BRANCH   7   8
ATOM      8  C   UNL     1       2.899   2.490  18.661  0.00  0.00    +0.000 C 
ATOM      9  C   UNL     1       3.637   1.146  18.682  0.00  0.00    +0.000 C 
BRANCH   8  10
ATOM     10  C   UNL     1       1.384   2.292  18.928  0.00  0.00    +0.000 C 
BRANCH  10  12
ATOM     11  C   UNL     1       1.579   2.783  21.412  0.00  0.00    +0.000 C 
ATOM     12  C   UNL     1       0.861   3.112  20.113  0.00  0.00    +0.000 C 
ENDBRANCH  10  12
ENDBRANCH   8  10
ENDBRANCH   7   8
ENDBRANCH   4   7
ENDBRANCH   2   4
ENDBRANCH   1   2
BRANCH   1  13
ATOM     13  C   UNL     1       2.510   6.450  19.373  0.00  0.00    +0.000 C 
BRANCH  13  14
ATOM     14  C   UNL     1       2.011   7.861  19.374  0.00  0.00    +0.000 A 
ATOM     15  C   UNL     1       1.900   8.693  18.281  0.00  0.00    +0.000 A 
ATOM     16  S   UNL     1       1.163  10.162  18.737  0.00  0.00    +0.000 S 
ATOM     17  C   UNL     1       1.030   9.605  20.377  0.00  0.00    +0.000 A 
ATOM     18  N   UNL     1       0.451  10.356  21.355  0.00  0.00    +0.000 N 
ATOM     19  C   UNL     1       0.393   9.875  22.731  0.00  0.00    +0.000 C 
ATOM     20  C   UNL     1      -1.009  10.254  23.201  0.00  0.00    +0.000 C 
ATOM     21  C   UNL     1      -1.313  11.516  22.413  0.00  0.00    +0.000 C 
ATOM     22  C   UNL     1      -0.661  11.254  21.059  0.00  0.00    +0.000 C 
ATOM     23  N   UNL     1       1.552   8.408  20.564  0.00  0.00    +0.000 NA
ENDBRANCH  13  14
ENDBRANCH   1  13
TORSDOF 8
ENDMDL
MODEL 7
REMARK VINA RESULT:      -6.2      1.118      1.338
REMARK  Name = 
REMARK  10 active torsions:
REMARK  status: ('A' for Active; 'I' for Inactive)
REMARK    1  A    between atoms: C_1  and  C_2
REMARK    2  A    between atoms: C_2  and  C_3
REMARK    3  A    between atoms: C_3  and  C_4
REMARK    4  A    between atoms: C_4  and  C_5
REMARK    5  A    between atoms: C_4  and  C_6
REMARK    6  A    between atoms: C_6  and  S_7
REMARK    7  A    between atoms: S_7  and  N_10
REMARK    8  A    between atoms: N_10  and  C_11
REMARK    9  A    between atoms: C_11  and  C_12
REMARK   10  A    between atoms: C_12  and  C_13
REMARK                            x       y       z     vdW  Elec       q    Type
REMARK                         _______ _______ _______ _____ _____    ______ ____
ROOT
ATOM      1  C   UNL     1       5.726   6.891  15.404  0.00  0.00    +0.000 C 
ENDROOT
BRANCH   1   2
ATOM      2  N   UNL     1       5.281   5.550  14.956  0.00  0.00    +0.000 NA
ATOM      3  H   UNL     1       4.612   5.096  15.583  0.00  0.00    +0.000 HD
BRANCH   2   4
ATOM      4  S   UNL     1       6.531   4.440  14.648  0.00  0.00    +0.000 S 
ATOM      5  O   UNL     1       6.147   3.228  15.340  0.00  0.00    +0.000 OA
ATOM      6  O   UNL     1       7.755   5.132  14.974  0.00  0.00    +0.000 OA
BRANCH   4   7
ATOM      7  C   UNL     1       6.406   4.179  12.873  0.00  0.00    +0.000 C 
BRANCH   7   8
ATOM      8  C   UNL     1       5.396   3.083  12.476  0.00  0.00    +0.000 C 
ATOM      9  C   UNL     1       6.006   2.086  11.484  0.00  0.00    +0.000 C 
BRANCH   8  10
ATOM     10  C   UNL     1       4.126   3.745  11.883  0.00  0.00    +0.000 C 
BRANCH  10  12
ATOM     11  C   UNL     1       2.976   4.066   9.642  0.00  0.00    +0.000 C 
ATOM     12  C   UNL     1       3.638   3.080  10.590  0.00  0.00    +0.000 C 
ENDBRANCH  10  12
ENDBRANCH   8  10
ENDBRANCH   7   8
ENDBRANCH   4   7
ENDBRANCH   2   4
ENDBRANCH   1   2
BRANCH   1  13
ATOM     13  C   UNL     1       5.916   6.941  16.920  0.00  0.00    +0.000 C 
BRANCH  13  14
ATOM     14  C   UNL     1       4.634   6.605  17.614  0.00  0.00    +0.000 A 
ATOM     15  C   UNL     1       3.561   7.447  17.810  0.00  0.00    +0.000 A 
ATOM     16  S   UNL     1       2.273   6.594  18.533  0.00  0.00    +0.000 S 
ATOM     17  C   UNL     1       3.222   5.139  18.545  0.00  0.00    +0.000 A 
ATOM     18  N   UNL     1       2.733   3.956  19.012  0.00  0.00    +0.000 N 
ATOM     19  C   UNL     1       3.570   2.763  19.046  0.00  0.00    +0.000 C 
ATOM     20  C   UNL     1       2.645   1.644  18.574  0.00  0.00    +0.000 C 
ATOM     21  C   UNL     1       1.276   2.097  19.047  0.00  0.00    +0.000 C 
ATOM     22  C   UNL     1       1.322   3.611  18.863  0.00  0.00    +0.000 C 
ATOM     23  N   UNL     1       4.442   5.310  18.075  0.00  0.00    +0.000 NA
ENDBRANCH  13  14
ENDBRANCH   1  13
TORSDOF 8
ENDMDL
MODEL 8
REMARK VINA RESULT:      -6.2      4.295      7.675
REMARK  Name = 
REMARK  10 active torsions:
REMARK  status: ('A' for Active; 'I' for Inactive)
REMARK    1  A    between atoms: C_1  and  C_2
REMARK    2  A    between atoms: C_2  and  C_3
REMARK    3  A    between atoms: C_3  and  C_4
REMARK    4  A    between atoms: C_4  and  C_5
REMARK    5  A    between atoms: C_4  and  C_6
REMARK    6  A    between atoms: C_6  and  S_7
REMARK    7  A    between atoms: S_7  and  N_10
REMARK    8  A    between atoms: N_10  and  C_11
REMARK    9  A    between atoms: C_11  and  C_12
REMARK   10  A    between atoms: C_12  and  C_13
REMARK                            x       y       z     vdW  Elec       q    Type
REMARK                         _______ _______ _______ _____ _____    ______ ____
ROOT
ATOM      1  C   UNL     1       1.241   6.347  20.758  0.00  0.00    +0.000 C 
ENDROOT
BRANCH   1   2
ATOM      2  N   UNL     1       1.744   7.674  21.186  0.00  0.00    +0.000 NA
ATOM      3  H   UNL     1       2.335   7.651  22.021  0.00  0.00    +0.000 HD
BRANCH   2   4
ATOM      4  S   UNL     1       0.547   8.853  21.437  0.00  0.00    +0.000 S 
ATOM      5  O   UNL     1       1.187   9.891  22.218  0.00  0.00    +0.000 OA
ATOM      6  O   UNL     1      -0.603   8.141  21.940  0.00  0.00    +0.000 OA
BRANCH   4   7
ATOM      7  C   UNL     1       0.234   9.466  19.775  0.00  0.00    +0.000 C 
BRANCH   7   8
ATOM      8  C   UNL     1       1.199  10.584  19.333  0.00  0.00    +0.000 C 
ATOM      9  C   UNL     1       0.453  11.890  19.035  0.00  0.00    +0.000 C 
BRANCH   8  10
ATOM     10  C   UNL     1       2.001  10.111  18.093  0.00  0.00    +0.000 C 
BRANCH  10  12
ATOM     11  C   UNL     1       3.026   7.812  17.756  0.00  0.00    +0.000 C 
ATOM     12  C   UNL     1       1.753   8.643  17.729  0.00  0.00    +0.000 C 
ENDBRANCH  10  12
ENDBRANCH   8  10
ENDBRANCH   7   8
ENDBRANCH   4   7
ENDBRANCH   2   4
ENDBRANCH   1   2
BRANCH   1  13
ATOM     13  C   UNL     1       2.279   5.251  20.993  0.00  0.00    +0.000 C 
BRANCH  13  14
ATOM     14  C   UNL     1       2.648   4.599  19.698  0.00  0.00    +0.000 A 
ATOM     15  C   UNL     1       1.789   3.969  18.823  0.00  0.00    +0.000 A 
ATOM     16  S   UNL     1       2.633   3.492  17.419  0.00  0.00    +0.000 S 
ATOM     17  C   UNL     1       4.105   4.157  18.059  0.00  0.00    +0.000 A 
ATOM     18  N   UNL     1       5.276   4.134  17.362  0.00  0.00    +0.000 N 
ATOM     19  C   UNL     1       6.503   4.663  17.945  0.00  0.00    +0.000 C 
ATOM     20  C   UNL     1       7.164   5.424  16.798  0.00  0.00    +0.000 C 
ATOM     21  C   UNL     1       6.718   4.657  15.565  0.00  0.00    +0.000 C 
ATOM     22  C   UNL     1       5.290   4.241  15.906  0.00  0.00    +0.000 C 
ATOM     23  N   UNL     1       3.966   4.660  19.269  0.00  0.00    +0.000 NA
ENDBRANCH  13  14
ENDBRANCH   1  13
TORSDOF 8
ENDMDL
MODEL 9
REMARK VINA RESULT:      -6.1      4.203      6.496
REMARK  Name = 
REMARK  10 active torsions:
REMARK  status: ('A' for Active; 'I' for Inactive)
REMARK    1  A    between atoms: C_1  and  C_2
REMARK    2  A    between atoms: C_2  and  C_3
REMARK    3  A    between atoms: C_3  and  C_4
REMARK    4  A    between atoms: C_4  and  C_5
REMARK    5  A    between atoms: C_4  and  C_6
REMARK    6  A    between atoms: C_6  and  S_7
REMARK    7  A    between atoms: S_7  and  N_10
REMARK    8  A    between atoms: N_10  and  C_11
REMARK    9  A    between atoms: C_11  and  C_12
REMARK   10  A    between atoms: C_12  and  C_13
REMARK                            x       y       z     vdW  Elec       q    Type
REMARK                         _______ _______ _______ _____ _____    ______ ____
ROOT
ATOM      1  C   UNL     1       3.878   6.249  18.896  0.00  0.00    +0.000 C 
ENDROOT
BRANCH   1   2
ATOM      2  N   UNL     1       4.825   5.878  17.818  0.00  0.00    +0.000 NA
ATOM      3  H   UNL     1       4.462   6.016  16.871  0.00  0.00    +0.000 HD
BRANCH   2   4
ATOM      4  S   UNL     1       5.438   4.296  17.907  0.00  0.00    +0.000 S 
ATOM      5  O   UNL     1       6.705   4.413  18.598  0.00  0.00    +0.000 OA
ATOM      6  O   UNL     1       5.364   3.773  16.564  0.00  0.00    +0.000 OA
BRANCH   4   7
ATOM      7  C   UNL     1       4.251   3.467  18.974  0.00  0.00    +0.000 C 
BRANCH   7   8
ATOM      8  C   UNL     1       3.290   2.526  18.220  0.00  0.00    +0.000 C 
ATOM      9  C   UNL     1       2.549   3.258  17.096  0.00  0.00    +0.000 C 
BRANCH   8  10
ATOM     10  C   UNL     1       2.289   1.900  19.225  0.00  0.00    +0.000 C 
BRANCH  10  12
ATOM     11  C   UNL     1       1.034   3.665  20.552  0.00  0.00    +0.000 C 
ATOM     12  C   UNL     1       2.185   2.673  20.545  0.00  0.00    +0.000 C 
ENDBRANCH  10  12
ENDBRANCH   8  10
ENDBRANCH   7   8
ENDBRANCH   4   7
ENDBRANCH   2   4
ENDBRANCH   1   2
BRANCH   1  13
ATOM     13  C   UNL     1       2.477   6.513  18.346  0.00  0.00    +0.000 C 
BRANCH  13  14
ATOM     14  C   UNL     1       2.047   7.908  18.673  0.00  0.00    +0.000 A 
ATOM     15  C   UNL     1       1.869   8.943  17.780  0.00  0.00    +0.000 A 
ATOM     16  S   UNL     1       1.248  10.311  18.587  0.00  0.00    +0.000 S 
ATOM     17  C   UNL     1       1.251   9.444  20.092  0.00  0.00    +0.000 A 
ATOM     18  N   UNL     1       0.806  10.001  21.253  0.00  0.00    +0.000 N 
ATOM     19  C   UNL     1       0.860   9.259  22.508  0.00  0.00    +0.000 C 
ATOM     20  C   UNL     1      -0.470   9.574  23.186  0.00  0.00    +0.000 C 
ATOM     21  C   UNL     1      -0.791  10.975  22.696  0.00  0.00    +0.000 C 
ATOM     22  C   UNL     1      -0.287  10.969  21.255  0.00  0.00    +0.000 C 
ATOM     23  N   UNL     1       1.733   8.221  19.988  0.00  0.00    +0.000 NA
ENDBRANCH  13  14
ENDBRANCH   1  13
TORSDOF 8
ENDMDL
