MODEL 1
REMARK VINA RESULT:      -7.5      0.000      0.000
REMARK  Name = 
REMARK  11 active torsions:
REMARK  status: ('A' for Active; 'I' for Inactive)
REMARK    1  A    between atoms: C_1  and  C_2
REMARK    2  A    between atoms: C_2  and  C_3
REMARK    3  A    between atoms: C_2  and  C_4
REMARK    4  A    between atoms: C_4  and  N_5
REMARK    5  A    between atoms: N_5  and  C_6
REMARK    6  A    between atoms: C_7  and  C_9
REMARK    7  A    between atoms: N_12  and  C_13
REMARK    8  A    between atoms: C_13  and  C_14
REMARK    9  A    between atoms: C_18  and  N_19
REMARK   10  A    between atoms: C_20  and  C_22
REMARK   11  A    between atoms: C_25  and  C_26
REMARK                            x       y       z     vdW  Elec       q    Type
REMARK                         _______ _______ _______ _____ _____    ______ ____
ROOT
ATOM      1  C   UNL     1       1.508   8.397  20.223  0.00  0.00    +0.000 A 
ATOM      2  C   UNL     1       1.044   7.489  21.185  0.00  0.00    +0.000 A 
ATOM      3  C   UNL     1       1.353   6.139  21.075  0.00  0.00    +0.000 A 
ATOM      4  C   UNL     1       2.106   5.681  19.995  0.00  0.00    +0.000 A 
ATOM      5  C   UNL     1       2.585   6.563  19.019  0.00  0.00    +0.000 A 
ATOM      6  C   UNL     1       2.312   7.928  19.165  0.00  0.00    +0.000 A 
ENDROOT
BRANCH   5   7
ATOM      7  N   UNL     1       3.286   6.129  17.871  0.00  0.00    +0.000 N 
ATOM      8  C   UNL     1       4.626   5.773  17.809  0.00  0.00    +0.000 C 
ATOM      9  O   UNL     1       5.447   5.839  18.722  0.00  0.00    +0.000 OA
ATOM     10  H   UNL     1       2.760   5.989  17.013  0.00  0.00    +0.000 HD
BRANCH   8  11
ATOM     11  C   UNL     1       5.085   5.240  16.494  0.00  0.00    +0.000 A 
ATOM     12  C   UNL     1       5.247   3.862  16.348  0.00  0.00    +0.000 A 
ATOM     13  C   UNL     1       5.649   3.363  15.114  0.00  0.00    +0.000 A 
ATOM     14  C   UNL     1       5.871   4.248  14.057  0.00  0.00    +0.000 A 
ATOM     15  C   UNL     1       5.686   5.609  14.298  0.00  0.00    +0.000 A 
ATOM     16  N   UNL     1       5.301   6.132  15.489  0.00  0.00    +0.000 NA
BRANCH  14  17
ATOM     17  C   UNL     1       6.288   3.783  12.696  0.00  0.00    +0.000 C 
ATOM     18  F   UNL     1       7.333   4.484  12.176  0.00  0.00    +0.000 F 
ATOM     19  F   UNL     1       6.676   2.478  12.691  0.00  0.00    +0.000 F 
ATOM     20  F   UNL     1       5.283   3.879  11.783  0.00  0.00    +0.000 F 
ENDBRANCH  14  17
ENDBRANCH   8  11
ENDBRANCH   5   7
BRANCH   1  21
ATOM     21  C   UNL     1       1.079   9.850  20.293  0.00  0.00    +0.000 C 
BRANCH  21  25
ATOM     22  C   UNL     1      -1.965  11.607  17.764  0.00  0.00    +0.000 C 
ATOM     23  C   UNL     1      -1.734  10.096  17.746  0.00  0.00    +0.000 C 
ATOM     24  C   UNL     1      -0.947   9.629  18.973  0.00  0.00    +0.000 C 
ATOM     25  N   UNL     1       0.356  10.308  19.081  0.00  0.00    +0.000 NA
ATOM     26  C   UNL     1       0.185  11.770  19.151  0.00  0.00    +0.000 C 
ATOM     27  C   UNL     1      -0.635  12.330  17.985  0.00  0.00    +0.000 C 
BRANCH  22  30
ATOM     28  N   UNL     1      -4.365  11.819  18.486  0.00  0.00    +0.000 N 
ATOM     29  C   UNL     1      -4.822  11.627  17.116  0.00  0.00    +0.000 C 
ATOM     30  C   UNL     1      -3.021  11.977  18.821  0.00  0.00    +0.000 C 
ATOM     31  O   UNL     1      -2.685  12.339  19.951  0.00  0.00    +0.000 OA
BRANCH  28  32
ATOM     32  C   UNL     1      -5.379  12.124  19.507  0.00  0.00    +0.000 C 
BRANCH  32  34
ATOM     33  C   UNL     1      -7.397  10.731  20.226  0.00  0.00    +0.000 C 
ATOM     34  C   UNL     1      -6.812  11.663  19.167  0.00  0.00    +0.000 C 
ATOM     35  C   UNL     1      -7.734  12.879  19.011  0.00  0.00    +0.000 C 
ENDBRANCH  32  34
ENDBRANCH  28  32
ENDBRANCH  22  30
ENDBRANCH  21  25
ENDBRANCH   1  21
TORSDOF 8
ENDMDL
MODEL 2
REMARK VINA RESULT:      -7.2      6.637     12.032
REMARK  Name = 
REMARK  11 active torsions:
REMARK  status: ('A' for Active; 'I' for Inactive)
REMARK    1  A    between atoms: C_1  and  C_2
REMARK    2  A    between atoms: C_2  and  C_3
REMARK    3  A    between atoms: C_2  and  C_4
REMARK    4  A    between atoms: C_4  and  N_5
REMARK    5  A    between atoms: N_5  and  C_6
REMARK    6  A    between atoms: C_7  and  C_9
REMARK    7  A    between atoms: N_12  and  C_13
REMARK    8  A    between atoms: C_13  and  C_14
REMARK    9  A    between atoms: C_18  and  N_19
REMARK   10  A    between atoms: C_20  and  C_22
REMARK   11  A    between atoms: C_25  and  C_26
REMARK                            x       y       z     vdW  Elec       q    Type
REMARK                         _______ _______ _______ _____ _____    ______ ____
ROOT
ATOM      1  C   UNL     1       1.602   7.608  20.251  0.00  0.00    +0.000 A 
ATOM      2  C   UNL     1       2.097   7.898  18.972  0.00  0.00    +0.000 A 
ATOM      3  C   UNL     1       1.841   9.133  18.389  0.00  0.00    +0.000 A 
ATOM      4  C   UNL     1       1.072  10.078  19.066  0.00  0.00    +0.000 A 
ATOM      5  C   UNL     1       0.564   9.819  20.344  0.00  0.00    +0.000 A 
ATOM      6  C   UNL     1       0.870   8.592  20.945  0.00  0.00    +0.000 A 
ENDROOT
BRANCH   5   7
ATOM      7  N   UNL     1      -0.282  10.719  21.031  0.00  0.00    +0.000 N 
ATOM      8  C   UNL     1      -0.375  10.876  22.406  0.00  0.00    +0.000 C 
ATOM      9  O   UNL     1       0.208  10.215  23.263  0.00  0.00    +0.000 OA
ATOM     10  H   UNL     1      -0.831  11.374  20.481  0.00  0.00    +0.000 HD
BRANCH   8  11
ATOM     11  C   UNL     1      -1.267  11.981  22.864  0.00  0.00    +0.000 A 
ATOM     12  C   UNL     1      -2.544  11.663  23.329  0.00  0.00    +0.000 A 
ATOM     13  C   UNL     1      -3.365  12.690  23.782  0.00  0.00    +0.000 A 
ATOM     14  C   UNL     1      -2.891  14.003  23.766  0.00  0.00    +0.000 A 
ATOM     15  C   UNL     1      -1.603  14.224  23.281  0.00  0.00    +0.000 A 
ATOM     16  N   UNL     1      -0.776  13.250  22.826  0.00  0.00    +0.000 NA
BRANCH  14  17
ATOM     17  C   UNL     1      -3.711  15.158  24.253  0.00  0.00    +0.000 C 
ATOM     18  F   UNL     1      -3.464  15.493  25.549  0.00  0.00    +0.000 F 
ATOM     19  F   UNL     1      -3.494  16.290  23.528  0.00  0.00    +0.000 F 
ATOM     20  F   UNL     1      -5.048  14.915  24.177  0.00  0.00    +0.000 F 
ENDBRANCH  14  17
ENDBRANCH   8  11
ENDBRANCH   5   7
BRANCH   1  21
ATOM     21  C   UNL     1       1.798   6.222  20.836  0.00  0.00    +0.000 C 
BRANCH  21  25
ATOM     22  C   UNL     1       3.646   3.462  18.058  0.00  0.00    +0.000 C 
ATOM     23  C   UNL     1       2.833   4.645  17.534  0.00  0.00    +0.000 C 
ATOM     24  C   UNL     1       2.627   5.713  18.611  0.00  0.00    +0.000 C 
ATOM     25  N   UNL     1       1.958   5.167  19.804  0.00  0.00    +0.000 NA
ATOM     26  C   UNL     1       2.729   4.051  20.378  0.00  0.00    +0.000 C 
ATOM     27  C   UNL     1       3.028   2.947  19.360  0.00  0.00    +0.000 C 
BRANCH  22  30
ATOM     28  N   UNL     1       5.833   4.231  17.081  0.00  0.00    +0.000 N 
ATOM     29  C   UNL     1       5.349   3.974  15.731  0.00  0.00    +0.000 C 
ATOM     30  C   UNL     1       5.125   3.855  18.222  0.00  0.00    +0.000 C 
ATOM     31  O   UNL     1       5.647   3.901  19.338  0.00  0.00    +0.000 OA
BRANCH  28  32
ATOM     32  C   UNL     1       7.232   4.655  17.236  0.00  0.00    +0.000 C 
BRANCH  32  34
ATOM     33  C   UNL     1       6.163   6.975  17.166  0.00  0.00    +0.000 C 
ATOM     34  C   UNL     1       7.442   6.175  17.400  0.00  0.00    +0.000 C 
ATOM     35  C   UNL     1       7.971   6.484  18.807  0.00  0.00    +0.000 C 
ENDBRANCH  32  34
ENDBRANCH  28  32
ENDBRANCH  22  30
ENDBRANCH  21  25
ENDBRANCH   1  21
TORSDOF 8
ENDMDL
MODEL 3
REMARK VINA RESULT:      -7.1      3.373      5.196
REMARK  Name = 
REMARK  11 active torsions:
REMARK  status: ('A' for Active; 'I' for Inactive)
REMARK    1  A    between atoms: C_1  and  C_2
REMARK    2  A    between atoms: C_2  and  C_3
REMARK    3  A    between atoms: C_2  and  C_4
REMARK    4  A    between atoms: C_4  and  N_5
REMARK    5  A    between atoms: N_5  and  C_6
REMARK    6  A    between atoms: C_7  and  C_9
REMARK    7  A    between atoms: N_12  and  C_13
REMARK    8  A    between atoms: C_13  and  C_14
REMARK    9  A    between atoms: C_18  and  N_19
REMARK   10  A    between atoms: C_20  and  C_22
REMARK   11  A    between atoms: C_25  and  C_26
REMARK                            x       y       z     vdW  Elec       q    Type
REMARK                         _______ _______ _______ _____ _____    ______ ____
ROOT
ATOM      1  C   UNL     1      -0.620  12.351  20.303  0.00  0.00    +0.000 A 
ATOM      2  C   UNL     1      -1.612  12.653  19.358  0.00  0.00    +0.000 A 
ATOM      3  C   UNL     1      -1.866  11.778  18.311  0.00  0.00    +0.000 A 
ATOM      4  C   UNL     1      -1.120  10.607  18.183  0.00  0.00    +0.000 A 
ATOM      5  C   UNL     1      -0.125  10.276  19.109  0.00  0.00    +0.000 A 
ATOM      6  C   UNL     1       0.091  11.139  20.190  0.00  0.00    +0.000 A 
ENDROOT
BRANCH   5   7
ATOM      7  N   UNL     1       0.704   9.139  18.973  0.00  0.00    +0.000 N 
ATOM      8  C   UNL     1       1.859   9.049  18.210  0.00  0.00    +0.000 C 
ATOM      9  O   UNL     1       2.321   9.915  17.470  0.00  0.00    +0.000 OA
ATOM     10  H   UNL     1       0.490   8.320  19.536  0.00  0.00    +0.000 HD
BRANCH   8  11
ATOM     11  C   UNL     1       2.607   7.764  18.334  0.00  0.00    +0.000 A 
ATOM     12  C   UNL     1       3.585   7.464  17.384  0.00  0.00    +0.000 A 
ATOM     13  C   UNL     1       4.302   6.279  17.516  0.00  0.00    +0.000 A 
ATOM     14  C   UNL     1       4.031   5.431  18.591  0.00  0.00    +0.000 A 
ATOM     15  C   UNL     1       3.035   5.814  19.488  0.00  0.00    +0.000 A 
ATOM     16  N   UNL     1       2.312   6.957  19.389  0.00  0.00    +0.000 NA
BRANCH  14  17
ATOM     17  C   UNL     1       4.774   4.148  18.808  0.00  0.00    +0.000 C 
ATOM     18  F   UNL     1       4.559   3.223  17.833  0.00  0.00    +0.000 F 
ATOM     19  F   UNL     1       6.123   4.333  18.855  0.00  0.00    +0.000 F 
ATOM     20  F   UNL     1       4.438   3.544  19.979  0.00  0.00    +0.000 F 
ENDBRANCH  14  17
ENDBRANCH   8  11
ENDBRANCH   5   7
BRANCH   1  21
ATOM     21  C   UNL     1      -0.278  13.360  21.382  0.00  0.00    +0.000 C 
BRANCH  21  25
ATOM     22  C   UNL     1      -4.087  13.159  23.433  0.00  0.00    +0.000 C 
ATOM     23  C   UNL     1      -3.417  14.512  23.195  0.00  0.00    +0.000 C 
ATOM     24  C   UNL     1      -2.333  14.426  22.118  0.00  0.00    +0.000 C 
ATOM     25  N   UNL     1      -1.297  13.436  22.459  0.00  0.00    +0.000 NA
ATOM     26  C   UNL     1      -1.887  12.099  22.652  0.00  0.00    +0.000 C 
ATOM     27  C   UNL     1      -3.019  12.091  23.683  0.00  0.00    +0.000 C 
BRANCH  22  30
ATOM     28  N   UNL     1      -6.388  12.776  22.493  0.00  0.00    +0.000 N 
ATOM     29  C   UNL     1      -6.961  12.758  23.832  0.00  0.00    +0.000 C 
ATOM     30  C   UNL     1      -5.014  12.802  22.257  0.00  0.00    +0.000 C 
ATOM     31  O   UNL     1      -4.559  12.613  21.127  0.00  0.00    +0.000 OA
BRANCH  28  32
ATOM     32  C   UNL     1      -7.284  12.485  21.363  0.00  0.00    +0.000 C 
BRANCH  32  34
ATOM     33  C   UNL     1      -7.281  15.031  21.156  0.00  0.00    +0.000 C 
ATOM     34  C   UNL     1      -7.910  13.722  20.686  0.00  0.00    +0.000 C 
ATOM     35  C   UNL     1      -7.764  13.618  19.162  0.00  0.00    +0.000 C 
ENDBRANCH  32  34
ENDBRANCH  28  32
ENDBRANCH  22  30
ENDBRANCH  21  25
ENDBRANCH   1  21
TORSDOF 8
ENDMDL
MODEL 4
REMARK VINA RESULT:      -7.1      6.132     11.832
REMARK  Name = 
REMARK  11 active torsions:
REMARK  status: ('A' for Active; 'I' for Inactive)
REMARK    1  A    between atoms: C_1  and  C_2
REMARK    2  A    between atoms: C_2  and  C_3
REMARK    3  A    between atoms: C_2  and  C_4
REMARK    4  A    between atoms: C_4  and  N_5
REMARK    5  A    between atoms: N_5  and  C_6
REMARK    6  A    between atoms: C_7  and  C_9
REMARK    7  A    between atoms: N_12  and  C_13
REMARK    8  A    between atoms: C_13  and  C_14
REMARK    9  A    between atoms: C_18  and  N_19
REMARK   10  A    between atoms: C_20  and  C_22
REMARK   11  A    between atoms: C_25  and  C_26
REMARK                            x       y       z     vdW  Elec       q    Type
REMARK                         _______ _______ _______ _____ _____    ______ ____
ROOT
ATOM      1  C   UNL     1       1.968   6.863  19.732  0.00  0.00    +0.000 A 
ATOM      2  C   UNL     1       2.398   6.975  18.402  0.00  0.00    +0.000 A 
ATOM      3  C   UNL     1       2.286   8.187  17.734  0.00  0.00    +0.000 A 
ATOM      4  C   UNL     1       1.727   9.291  18.376  0.00  0.00    +0.000 A 
ATOM      5  C   UNL     1       1.290   9.212  19.704  0.00  0.00    +0.000 A 
ATOM      6  C   UNL     1       1.452   8.001  20.386  0.00  0.00    +0.000 A 
ENDROOT
BRANCH   5   7
ATOM      7  N   UNL     1       0.649  10.284  20.365  0.00  0.00    +0.000 N 
ATOM      8  C   UNL     1      -0.617  10.780  20.093  0.00  0.00    +0.000 C 
ATOM      9  O   UNL     1      -1.369  10.422  19.188  0.00  0.00    +0.000 OA
ATOM     10  H   UNL     1       1.114  10.698  21.168  0.00  0.00    +0.000 HD
BRANCH   8  11
ATOM     11  C   UNL     1      -1.099  11.845  21.020  0.00  0.00    +0.000 A 
ATOM     12  C   UNL     1      -2.250  12.558  20.682  0.00  0.00    +0.000 A 
ATOM     13  C   UNL     1      -2.715  13.532  21.560  0.00  0.00    +0.000 A 
ATOM     14  C   UNL     1      -2.026  13.763  22.752  0.00  0.00    +0.000 A 
ATOM     15  C   UNL     1      -0.886  13.003  23.003  0.00  0.00    +0.000 A 
ATOM     16  N   UNL     1      -0.400  12.050  22.169  0.00  0.00    +0.000 NA
BRANCH  14  17
ATOM     17  C   UNL     1      -2.477  14.782  23.754  0.00  0.00    +0.000 C 
ATOM     18  F   UNL     1      -1.507  15.145  24.637  0.00  0.00    +0.000 F 
ATOM     19  F   UNL     1      -2.895  15.936  23.165  0.00  0.00    +0.000 F 
ATOM     20  F   UNL     1      -3.524  14.345  24.505  0.00  0.00    +0.000 F 
ENDBRANCH  14  17
ENDBRANCH   8  11
ENDBRANCH   5   7
BRANCH   1  21
ATOM     21  C   UNL     1       1.996   5.512  20.420  0.00  0.00    +0.000 C 
BRANCH  21  25
ATOM     22  C   UNL     1       5.295   3.702  18.276  0.00  0.00    +0.000 C 
ATOM     23  C   UNL     1       4.203   2.822  18.884  0.00  0.00    +0.000 C 
ATOM     24  C   UNL     1       2.945   3.628  19.216  0.00  0.00    +0.000 C 
ATOM     25  N   UNL     1       3.232   4.738  20.141  0.00  0.00    +0.000 NA
ATOM     26  C   UNL     1       4.247   5.645  19.578  0.00  0.00    +0.000 C 
ATOM     27  C   UNL     1       5.533   4.921  19.170  0.00  0.00    +0.000 C 
BRANCH  22  30
ATOM     28  N   UNL     1       5.972   4.375  15.949  0.00  0.00    +0.000 N 
ATOM     29  C   UNL     1       7.337   4.625  16.391  0.00  0.00    +0.000 C 
ATOM     30  C   UNL     1       4.930   4.091  16.832  0.00  0.00    +0.000 C 
ATOM     31  O   UNL     1       3.758   4.086  16.452  0.00  0.00    +0.000 OA
BRANCH  28  32
ATOM     32  C   UNL     1       5.635   4.700  14.555  0.00  0.00    +0.000 C 
BRANCH  32  34
ATOM     33  C   UNL     1       5.529   3.284  12.431  0.00  0.00    +0.000 C 
ATOM     34  C   UNL     1       6.430   3.917  13.488  0.00  0.00    +0.000 C 
ATOM     35  C   UNL     1       7.436   4.845  12.795  0.00  0.00    +0.000 C 
ENDBRANCH  32  34
ENDBRANCH  28  32
ENDBRANCH  22  30
ENDBRANCH  21  25
ENDBRANCH   1  21
TORSDOF 8
ENDMDL
MODEL 5
REMARK VINA RESULT:      -7.1      0.673      1.011
REMARK  Name = 
REMARK  11 active torsions:
REMARK  status: ('A' for Active; 'I' for Inactive)
REMARK    1  A    between atoms: C_1  and  C_2
REMARK    2  A    between atoms: C_2  and  C_3
REMARK    3  A    between atoms: C_2  and  C_4
REMARK    4  A    between atoms: C_4  and  N_5
REMARK    5  A    between atoms: N_5  and  C_6
REMARK    6  A    between atoms: C_7  and  C_9
REMARK    7  A    between atoms: N_12  and  C_13
REMARK    8  A    between atoms: C_13  and  C_14
REMARK    9  A    between atoms: C_18  and  N_19
REMARK   10  A    between atoms: C_20  and  C_22
REMARK   11  A    between atoms: C_25  and  C_26
REMARK                            x       y       z     vdW  Elec       q    Type
REMARK                         _______ _______ _______ _____ _____    ______ ____
ROOT
ATOM      1  C   UNL     1       1.333   8.766  20.074  0.00  0.00    +0.000 A 
ATOM      2  C   UNL     1       0.944   7.916  21.120  0.00  0.00    +0.000 A 
ATOM      3  C   UNL     1       1.365   6.593  21.136  0.00  0.00    +0.000 A 
ATOM      4  C   UNL     1       2.156   6.099  20.099  0.00  0.00    +0.000 A 
ATOM      5  C   UNL     1       2.561   6.922  19.041  0.00  0.00    +0.000 A 
ATOM      6  C   UNL     1       2.175   8.267  19.060  0.00  0.00    +0.000 A 
ENDROOT
BRANCH   5   7
ATOM      7  N   UNL     1       3.297   6.441  17.935  0.00  0.00    +0.000 N 
ATOM      8  C   UNL     1       4.521   5.791  17.980  0.00  0.00    +0.000 C 
ATOM      9  O   UNL     1       5.207   5.582  18.979  0.00  0.00    +0.000 OA
ATOM     10  H   UNL     1       2.873   6.505  17.013  0.00  0.00    +0.000 HD
BRANCH   8  11
ATOM     11  C   UNL     1       5.025   5.286  16.669  0.00  0.00    +0.000 A 
ATOM     12  C   UNL     1       5.246   3.916  16.519  0.00  0.00    +0.000 A 
ATOM     13  C   UNL     1       5.689   3.442  15.289  0.00  0.00    +0.000 A 
ATOM     14  C   UNL     1       5.893   4.342  14.241  0.00  0.00    +0.000 A 
ATOM     15  C   UNL     1       5.648   5.692  14.487  0.00  0.00    +0.000 A 
ATOM     16  N   UNL     1       5.221   6.191  15.673  0.00  0.00    +0.000 NA
BRANCH  14  17
ATOM     17  C   UNL     1       6.352   3.903  12.885  0.00  0.00    +0.000 C 
ATOM     18  F   UNL     1       5.382   3.973  11.932  0.00  0.00    +0.000 F 
ATOM     19  F   UNL     1       7.386   4.657  12.419  0.00  0.00    +0.000 F 
ATOM     20  F   UNL     1       6.793   2.617  12.876  0.00  0.00    +0.000 F 
ENDBRANCH  14  17
ENDBRANCH   8  11
ENDBRANCH   5   7
BRANCH   1  21
ATOM     21  C   UNL     1       0.785  10.179  20.011  0.00  0.00    +0.000 C 
BRANCH  21  25
ATOM     22  C   UNL     1      -2.565  11.520  17.617  0.00  0.00    +0.000 C 
ATOM     23  C   UNL     1      -2.362  10.029  17.881  0.00  0.00    +0.000 C 
ATOM     24  C   UNL     1      -1.414   9.785  19.057  0.00  0.00    +0.000 C 
ATOM     25  N   UNL     1      -0.099  10.413  18.842  0.00  0.00    +0.000 NA
ATOM     26  C   UNL     1      -0.236  11.864  18.630  0.00  0.00    +0.000 C 
ATOM     27  C   UNL     1      -1.206  12.213  17.497  0.00  0.00    +0.000 C 
BRANCH  22  30
ATOM     28  N   UNL     1      -4.824  12.217  18.476  0.00  0.00    +0.000 N 
ATOM     29  C   UNL     1      -5.413  12.026  17.158  0.00  0.00    +0.000 C 
ATOM     30  C   UNL     1      -3.451  12.145  18.710  0.00  0.00    +0.000 C 
ATOM     31  O   UNL     1      -2.969  12.508  19.784  0.00  0.00    +0.000 OA
BRANCH  28  32
ATOM     32  C   UNL     1      -5.684  12.767  19.535  0.00  0.00    +0.000 C 
BRANCH  32  34
ATOM     33  C   UNL     1      -6.180  12.349  22.006  0.00  0.00    +0.000 C 
ATOM     34  C   UNL     1      -6.144  11.751  20.602  0.00  0.00    +0.000 C 
ATOM     35  C   UNL     1      -7.539  11.216  20.253  0.00  0.00    +0.000 C 
ENDBRANCH  32  34
ENDBRANCH  28  32
ENDBRANCH  22  30
ENDBRANCH  21  25
ENDBRANCH   1  21
TORSDOF 8
ENDMDL
MODEL 6
REMARK VINA RESULT:      -7.1      3.590      6.098
REMARK  Name = 
REMARK  11 active torsions:
REMARK  status: ('A' for Active; 'I' for Inactive)
REMARK    1  A    between atoms: C_1  and  C_2
REMARK    2  A    between atoms: C_2  and  C_3
REMARK    3  A    between atoms: C_2  and  C_4
REMARK    4  A    between atoms: C_4  and  N_5
REMARK    5  A    between atoms: N_5  and  C_6
REMARK    6  A    between atoms: C_7  and  C_9
REMARK    7  A    between atoms: N_12  and  C_13
REMARK    8  A    between atoms: C_13  and  C_14
REMARK    9  A    between atoms: C_18  and  N_19
REMARK   10  A    between atoms: C_20  and  C_22
REMARK   11  A    between atoms: C_25  and  C_26
REMARK                            x       y       z     vdW  Elec       q    Type
REMARK                         _______ _______ _______ _____ _____    ______ ____
ROOT
ATOM      1  C   UNL     1       0.025  10.547  19.769  0.00  0.00    +0.000 A 
ATOM      2  C   UNL     1      -0.322  10.117  21.058  0.00  0.00    +0.000 A 
ATOM      3  C   UNL     1       0.267   8.979  21.594  0.00  0.00    +0.000 A 
ATOM      4  C   UNL     1       1.186   8.248  20.843  0.00  0.00    +0.000 A 
ATOM      5  C   UNL     1       1.554   8.652  19.554  0.00  0.00    +0.000 A 
ATOM      6  C   UNL     1       0.994   9.828  19.041  0.00  0.00    +0.000 A 
ENDROOT
BRANCH   5   7
ATOM      7  N   UNL     1       2.423   7.899  18.733  0.00  0.00    +0.000 N 
ATOM      8  C   UNL     1       2.782   6.571  18.912  0.00  0.00    +0.000 C 
ATOM      9  O   UNL     1       2.462   5.843  19.850  0.00  0.00    +0.000 OA
ATOM     10  H   UNL     1       2.774   8.332  17.883  0.00  0.00    +0.000 HD
BRANCH   8  11
ATOM     11  C   UNL     1       3.626   5.985  17.831  0.00  0.00    +0.000 A 
ATOM     12  C   UNL     1       4.413   6.840  17.058  0.00  0.00    +0.000 A 
ATOM     13  C   UNL     1       5.222   6.291  16.068  0.00  0.00    +0.000 A 
ATOM     14  C   UNL     1       5.230   4.908  15.880  0.00  0.00    +0.000 A 
ATOM     15  C   UNL     1       4.408   4.135  16.699  0.00  0.00    +0.000 A 
ATOM     16  N   UNL     1       3.603   4.635  17.669  0.00  0.00    +0.000 NA
BRANCH  14  17
ATOM     17  C   UNL     1       6.087   4.244  14.846  0.00  0.00    +0.000 C 
ATOM     18  F   UNL     1       6.326   2.928  15.099  0.00  0.00    +0.000 F 
ATOM     19  F   UNL     1       5.530   4.290  13.605  0.00  0.00    +0.000 F 
ATOM     20  F   UNL     1       7.309   4.831  14.730  0.00  0.00    +0.000 F 
ENDBRANCH  14  17
ENDBRANCH   8  11
ENDBRANCH   5   7
BRANCH   1  21
ATOM     21  C   UNL     1      -0.698  11.729  19.152  0.00  0.00    +0.000 C 
BRANCH  21  25
ATOM     22  C   UNL     1       1.274  15.463  20.110  0.00  0.00    +0.000 C 
ATOM     23  C   UNL     1       1.326  14.296  21.095  0.00  0.00    +0.000 C 
ATOM     24  C   UNL     1       0.956  12.971  20.424  0.00  0.00    +0.000 C 
ATOM     25  N   UNL     1      -0.384  13.019  19.814  0.00  0.00    +0.000 NA
ATOM     26  C   UNL     1      -0.471  14.101  18.817  0.00  0.00    +0.000 C 
ATOM     27  C   UNL     1      -0.073  15.467  19.383  0.00  0.00    +0.000 C 
BRANCH  22  30
ATOM     28  N   UNL     1       3.572  16.207  19.408  0.00  0.00    +0.000 N 
ATOM     29  C   UNL     1       3.534  17.310  20.359  0.00  0.00    +0.000 C 
ATOM     30  C   UNL     1       2.467  15.401  19.138  0.00  0.00    +0.000 C 
ATOM     31  O   UNL     1       2.471  14.613  18.190  0.00  0.00    +0.000 OA
BRANCH  28  32
ATOM     32  C   UNL     1       4.736  16.118  18.514  0.00  0.00    +0.000 C 
BRANCH  32  34
ATOM     33  C   UNL     1       6.620  14.600  17.692  0.00  0.00    +0.000 C 
ATOM     34  C   UNL     1       5.766  15.029  18.882  0.00  0.00    +0.000 C 
ATOM     35  C   UNL     1       6.688  15.533  20.000  0.00  0.00    +0.000 C 
ENDBRANCH  32  34
ENDBRANCH  28  32
ENDBRANCH  22  30
ENDBRANCH  21  25
ENDBRANCH   1  21
TORSDOF 8
ENDMDL
MODEL 7
REMARK VINA RESULT:      -7.0      3.409      5.161
REMARK  Name = 
REMARK  11 active torsions:
REMARK  status: ('A' for Active; 'I' for Inactive)
REMARK    1  A    between atoms: C_1  and  C_2
REMARK    2  A    between atoms: C_2  and  C_3
REMARK    3  A    between atoms: C_2  and  C_4
REMARK    4  A    between atoms: C_4  and  N_5
REMARK    5  A    between atoms: N_5  and  C_6
REMARK    6  A    between atoms: C_7  and  C_9
REMARK    7  A    between atoms: N_12  and  C_13
REMARK    8  A    between atoms: C_13  and  C_14
REMARK    9  A    between atoms: C_18  and  N_19
REMARK   10  A    between atoms: C_20  and  C_22
REMARK   11  A    between atoms: C_25  and  C_26
REMARK                            x       y       z     vdW  Elec       q    Type
REMARK                         _______ _______ _______ _____ _____    ______ ____
ROOT
ATOM      1  C   UNL     1      -0.686  11.423  22.035  0.00  0.00    +0.000 A 
ATOM      2  C   UNL     1       0.028  12.527  21.546  0.00  0.00    +0.000 A 
ATOM      3  C   UNL     1       1.105  12.336  20.691  0.00  0.00    +0.000 A 
ATOM      4  C   UNL     1       1.493  11.046  20.333  0.00  0.00    +0.000 A 
ATOM      5  C   UNL     1       0.801   9.924  20.802  0.00  0.00    +0.000 A 
ATOM      6  C   UNL     1      -0.315  10.126  21.624  0.00  0.00    +0.000 A 
ENDROOT
BRANCH   5   7
ATOM      7  N   UNL     1       1.208   8.600  20.525  0.00  0.00    +0.000 N 
ATOM      8  C   UNL     1       1.864   8.161  19.384  0.00  0.00    +0.000 C 
ATOM      9  O   UNL     1       2.141   8.832  18.391  0.00  0.00    +0.000 OA
ATOM     10  H   UNL     1       1.082   7.898  21.250  0.00  0.00    +0.000 HD
BRANCH   8  11
ATOM     11  C   UNL     1       2.282   6.729  19.397  0.00  0.00    +0.000 A 
ATOM     12  C   UNL     1       1.937   5.941  20.496  0.00  0.00    +0.000 A 
ATOM     13  C   UNL     1       2.303   4.598  20.496  0.00  0.00    +0.000 A 
ATOM     14  C   UNL     1       2.995   4.078  19.400  0.00  0.00    +0.000 A 
ATOM     15  C   UNL     1       3.297   4.943  18.350  0.00  0.00    +0.000 A 
ATOM     16  N   UNL     1       2.962   6.256  18.318  0.00  0.00    +0.000 NA
BRANCH  14  17
ATOM     17  C   UNL     1       3.406   2.639  19.322  0.00  0.00    +0.000 C 
ATOM     18  F   UNL     1       3.962   2.295  18.128  0.00  0.00    +0.000 F 
ATOM     19  F   UNL     1       4.327   2.312  20.270  0.00  0.00    +0.000 F 
ATOM     20  F   UNL     1       2.360   1.789  19.507  0.00  0.00    +0.000 F 
ENDBRANCH  14  17
ENDBRANCH   8  11
ENDBRANCH   5   7
BRANCH   1  21
ATOM     21  C   UNL     1      -1.793  11.633  23.049  0.00  0.00    +0.000 C 
BRANCH  21  25
ATOM     22  C   UNL     1      -5.218  13.953  21.769  0.00  0.00    +0.000 C 
ATOM     23  C   UNL     1      -3.929  13.976  20.949  0.00  0.00    +0.000 C 
ATOM     24  C   UNL     1      -3.010  12.805  21.304  0.00  0.00    +0.000 C 
ATOM     25  N   UNL     1      -2.663  12.794  22.736  0.00  0.00    +0.000 NA
ATOM     26  C   UNL     1      -3.874  12.723  23.572  0.00  0.00    +0.000 C 
ATOM     27  C   UNL     1      -4.882  13.831  23.257  0.00  0.00    +0.000 C 
BRANCH  22  30
ATOM     28  N   UNL     1      -6.718  12.953  20.014  0.00  0.00    +0.000 N 
ATOM     29  C   UNL     1      -6.736  14.209  19.277  0.00  0.00    +0.000 C 
ATOM     30  C   UNL     1      -6.146  12.826  21.280  0.00  0.00    +0.000 C 
ATOM     31  O   UNL     1      -6.324  11.813  21.959  0.00  0.00    +0.000 OA
BRANCH  28  32
ATOM     32  C   UNL     1      -7.567  11.858  19.520  0.00  0.00    +0.000 C 
BRANCH  32  34
ATOM     33  C   UNL     1      -5.372  11.145  18.424  0.00  0.00    +0.000 C 
ATOM     34  C   UNL     1      -6.843  10.808  18.651  0.00  0.00    +0.000 C 
ATOM     35  C   UNL     1      -6.940   9.425  19.309  0.00  0.00    +0.000 C 
ENDBRANCH  32  34
ENDBRANCH  28  32
ENDBRANCH  22  30
ENDBRANCH  21  25
ENDBRANCH   1  21
TORSDOF 8
ENDMDL
MODEL 8
REMARK VINA RESULT:      -7.0      6.521     11.741
REMARK  Name = 
REMARK  11 active torsions:
REMARK  status: ('A' for Active; 'I' for Inactive)
REMARK    1  A    between atoms: C_1  and  C_2
REMARK    2  A    between atoms: C_2  and  C_3
REMARK    3  A    between atoms: C_2  and  C_4
REMARK    4  A    between atoms: C_4  and  N_5
REMARK    5  A    between atoms: N_5  and  C_6
REMARK    6  A    between atoms: C_7  and  C_9
REMARK    7  A    between atoms: N_12  and  C_13
REMARK    8  A    between atoms: C_13  and  C_14
REMARK    9  A    between atoms: C_18  and  N_19
REMARK   10  A    between atoms: C_20  and  C_22
REMARK   11  A    between atoms: C_25  and  C_26
REMARK                            x       y       z     vdW  Elec       q    Type
REMARK                         _______ _______ _______ _____ _____    ______ ____
ROOT
ATOM      1  C   UNL     1       1.569   9.981  18.243  0.00  0.00    +0.000 A 
ATOM      2  C   UNL     1       2.490  10.990  17.928  0.00  0.00    +0.000 A 
ATOM      3  C   UNL     1       2.299  12.281  18.403  0.00  0.00    +0.000 A 
ATOM      4  C   UNL     1       1.178  12.582  19.175  0.00  0.00    +0.000 A 
ATOM      5  C   UNL     1       0.241  11.598  19.509  0.00  0.00    +0.000 A 
ATOM      6  C   UNL     1       0.468  10.288  19.069  0.00  0.00    +0.000 A 
ENDROOT
BRANCH   5   7
ATOM      7  N   UNL     1      -0.945  11.878  20.224  0.00  0.00    +0.000 N 
ATOM      8  C   UNL     1      -1.094  11.878  21.603  0.00  0.00    +0.000 C 
ATOM      9  O   UNL     1      -0.243  11.569  22.435  0.00  0.00    +0.000 OA
ATOM     10  H   UNL     1      -1.761  12.180  19.699  0.00  0.00    +0.000 HD
BRANCH   8  11
ATOM     11  C   UNL     1      -2.429  12.322  22.101  0.00  0.00    +0.000 A 
ATOM     12  C   UNL     1      -3.367  12.788  21.179  0.00  0.00    +0.000 A 
ATOM     13  C   UNL     1      -4.621  13.176  21.640  0.00  0.00    +0.000 A 
ATOM     14  C   UNL     1      -4.907  13.083  23.004  0.00  0.00    +0.000 A 
ATOM     15  C   UNL     1      -3.905  12.609  23.848  0.00  0.00    +0.000 A 
ATOM     16  N   UNL     1      -2.671  12.227  23.437  0.00  0.00    +0.000 NA
BRANCH  14  17
ATOM     17  C   UNL     1      -6.240  13.466  23.570  0.00  0.00    +0.000 C 
ATOM     18  F   UNL     1      -6.683  12.621  24.541  0.00  0.00    +0.000 F 
ATOM     19  F   UNL     1      -6.226  14.706  24.134  0.00  0.00    +0.000 F 
ATOM     20  F   UNL     1      -7.218  13.495  22.625  0.00  0.00    +0.000 F 
ENDBRANCH  14  17
ENDBRANCH   8  11
ENDBRANCH   5   7
BRANCH   1  21
ATOM     21  C   UNL     1       1.729   8.601  17.636  0.00  0.00    +0.000 C 
BRANCH  21  25
ATOM     22  C   UNL     1       4.537   5.425  18.519  0.00  0.00    +0.000 C 
ATOM     23  C   UNL     1       3.878   6.202  19.658  0.00  0.00    +0.000 C 
ATOM     24  C   UNL     1       2.639   6.964  19.182  0.00  0.00    +0.000 C 
ATOM     25  N   UNL     1       2.956   7.899  18.089  0.00  0.00    +0.000 NA
ATOM     26  C   UNL     1       3.551   7.190  16.943  0.00  0.00    +0.000 C 
ATOM     27  C   UNL     1       4.777   6.357  17.329  0.00  0.00    +0.000 C 
BRANCH  22  30
ATOM     28  N   UNL     1       3.755   3.079  18.976  0.00  0.00    +0.000 N 
ATOM     29  C   UNL     1       4.795   2.899  19.980  0.00  0.00    +0.000 C 
ATOM     30  C   UNL     1       3.689   4.196  18.145  0.00  0.00    +0.000 C 
ATOM     31  O   UNL     1       2.926   4.225  17.177  0.00  0.00    +0.000 OA
BRANCH  28  32
ATOM     32  C   UNL     1       2.911   1.918  18.653  0.00  0.00    +0.000 C 
BRANCH  32  34
ATOM     33  C   UNL     1       1.663   2.503  20.805  0.00  0.00    +0.000 C 
ATOM     34  C   UNL     1       1.582   1.835  19.434  0.00  0.00    +0.000 C 
ATOM     35  C   UNL     1       0.455   2.491  18.627  0.00  0.00    +0.000 C 
ENDBRANCH  32  34
ENDBRANCH  28  32
ENDBRANCH  22  30
ENDBRANCH  21  25
ENDBRANCH   1  21
TORSDOF 8
ENDMDL
MODEL 9
REMARK VINA RESULT:      -7.0      3.023      4.181
REMARK  Name = 
REMARK  11 active torsions:
REMARK  status: ('A' for Active; 'I' for Inactive)
REMARK    1  A    between atoms: C_1  and  C_2
REMARK    2  A    between atoms: C_2  and  C_3
REMARK    3  A    between atoms: C_2  and  C_4
REMARK    4  A    between atoms: C_4  and  N_5
REMARK    5  A    between atoms: N_5  and  C_6
REMARK    6  A    between atoms: C_7  and  C_9
REMARK    7  A    between atoms: N_12  and  C_13
REMARK    8  A    between atoms: C_13  and  C_14
REMARK    9  A    between atoms: C_18  and  N_19
REMARK   10  A    between atoms: C_20  and  C_22
REMARK   11  A    between atoms: C_25  and  C_26
REMARK                            x       y       z     vdW  Elec       q    Type
REMARK                         _______ _______ _______ _____ _____    ______ ____
ROOT
ATOM      1  C   UNL     1       2.004   6.394  20.465  0.00  0.00    +0.000 A 
ATOM      2  C   UNL     1       1.155   5.347  20.853  0.00  0.00    +0.000 A 
ATOM      3  C   UNL     1       1.149   4.155  20.141  0.00  0.00    +0.000 A 
ATOM      4  C   UNL     1       1.970   4.004  19.025  0.00  0.00    +0.000 A 
ATOM      5  C   UNL     1       2.829   5.029  18.612  0.00  0.00    +0.000 A 
ATOM      6  C   UNL     1       2.867   6.208  19.366  0.00  0.00    +0.000 A 
ENDROOT
BRANCH   5   7
ATOM      7  N   UNL     1       3.620   4.944  17.444  0.00  0.00    +0.000 N 
ATOM      8  C   UNL     1       4.955   4.572  17.378  0.00  0.00    +0.000 C 
ATOM      9  O   UNL     1       5.696   4.320  18.326  0.00  0.00    +0.000 OA
ATOM     10  H   UNL     1       3.167   5.097  16.547  0.00  0.00    +0.000 HD
BRANCH   8  11
ATOM     11  C   UNL     1       5.518   4.454  16.001  0.00  0.00    +0.000 A 
ATOM     12  C   UNL     1       4.707   3.944  14.987  0.00  0.00    +0.000 A 
ATOM     13  C   UNL     1       5.222   3.860  13.698  0.00  0.00    +0.000 A 
ATOM     14  C   UNL     1       6.527   4.293  13.454  0.00  0.00    +0.000 A 
ATOM     15  C   UNL     1       7.262   4.785  14.531  0.00  0.00    +0.000 A 
ATOM     16  N   UNL     1       6.795   4.877  15.800  0.00  0.00    +0.000 NA
BRANCH  14  17
ATOM     17  C   UNL     1       7.144   4.249  12.089  0.00  0.00    +0.000 C 
ATOM     18  F   UNL     1       8.041   5.248  11.864  0.00  0.00    +0.000 F 
ATOM     19  F   UNL     1       7.816   3.087  11.861  0.00  0.00    +0.000 F 
ATOM     20  F   UNL     1       6.218   4.347  11.097  0.00  0.00    +0.000 F 
ENDBRANCH  14  17
ENDBRANCH   8  11
ENDBRANCH   5   7
BRANCH   1  21
ATOM     21  C   UNL     1       1.930   7.727  21.184  0.00  0.00    +0.000 C 
BRANCH  21  25
ATOM     22  C   UNL     1      -0.313  11.229  19.978  0.00  0.00    +0.000 C 
ATOM     23  C   UNL     1      -0.662  10.508  21.279  0.00  0.00    +0.000 C 
ATOM     24  C   UNL     1       0.471   9.588  21.739  0.00  0.00    +0.000 C 
ATOM     25  N   UNL     1       0.813   8.584  20.716  0.00  0.00    +0.000 NA
ATOM     26  C   UNL     1       1.205   9.232  19.452  0.00  0.00    +0.000 C 
ATOM     27  C   UNL     1       0.150  10.212  18.932  0.00  0.00    +0.000 C 
BRANCH  22  30
ATOM     28  N   UNL     1       0.578  13.547  19.576  0.00  0.00    +0.000 N 
ATOM     29  C   UNL     1      -0.320  13.723  18.442  0.00  0.00    +0.000 C 
ATOM     30  C   UNL     1       0.734  12.328  20.236  0.00  0.00    +0.000 C 
ATOM     31  O   UNL     1       1.642  12.158  21.052  0.00  0.00    +0.000 OA
BRANCH  28  32
ATOM     32  C   UNL     1       1.546  14.619  19.853  0.00  0.00    +0.000 C 
BRANCH  32  34
ATOM     33  C   UNL     1       1.936  17.028  19.097  0.00  0.00    +0.000 C 
ATOM     34  C   UNL     1       1.834  15.566  18.669  0.00  0.00    +0.000 C 
ATOM     35  C   UNL     1       3.139  15.159  17.974  0.00  0.00    +0.000 C 
ENDBRANCH  32  34
ENDBRANCH  28  32
ENDBRANCH  22  30
ENDBRANCH  21  25
ENDBRANCH   1  21
TORSDOF 8
ENDMDL
