MODEL 1
REMARK VINA RESULT:      -7.6      0.000      0.000
REMARK  Name = 
REMARK  7 active torsions:
REMARK  status: ('A' for Active; 'I' for Inactive)
REMARK    1  A    between atoms: C_5  and  N_6
REMARK    2  A    between atoms: C_9  and  O_10
REMARK    3  A    between atoms: O_10  and  C_11
REMARK    4  A    between atoms: C_11  and  C_12
REMARK    5  A    between atoms: C_12  and  C_13
REMARK    6  A    between atoms: C_13  and  C_14
REMARK    7  A    between atoms: C_14  and  N_15
REMARK                            x       y       z     vdW  Elec       q    Type
REMARK                         _______ _______ _______ _____ _____    ______ ____
ROOT
ATOM      1  N   UNL     1       5.116   5.009  17.628  0.00  0.00    +0.000 N 
ATOM      2  C   UNL     1       5.264   4.622  16.312  0.00  0.00    +0.000 A 
ATOM      3  C   UNL     1       6.261   5.390  15.769  0.00  0.00    +0.000 A 
ATOM      4  C   UNL     1       6.682   6.195  16.827  0.00  0.00    +0.000 A 
ATOM      5  N   UNL     1       5.993   6.000  17.952  0.00  0.00    +0.000 NA
ENDROOT
BRANCH   1  10
ATOM      6 CL   UNL     1       1.263   2.720  21.566  0.00  0.00    +0.000 Cl
ATOM      7  C   UNL     1       2.363   3.438  20.445  0.00  0.00    +0.000 A 
ATOM      8  C   UNL     1       3.228   2.586  19.756  0.00  0.00    +0.000 A 
ATOM      9  C   UNL     1       4.135   3.104  18.827  0.00  0.00    +0.000 A 
ATOM     10  C   UNL     1       4.194   4.486  18.585  0.00  0.00    +0.000 A 
ATOM     11  C   UNL     1       3.334   5.341  19.288  0.00  0.00    +0.000 A 
ATOM     12  C   UNL     1       2.415   4.818  20.208  0.00  0.00    +0.000 A 
ATOM     13 CL   UNL     1       1.355   5.923  21.012  0.00  0.00    +0.000 Cl
ENDBRANCH   1  10
BRANCH   4  14
ATOM     14  O   UNL     1       7.659   7.121  16.745  0.00  0.00    +0.000 OA
BRANCH  14  15
ATOM     15  C   UNL     1       7.978   7.715  17.998  0.00  0.00    +0.000 C 
BRANCH  15  16
ATOM     16  C   UNL     1       8.172   9.218  17.790  0.00  0.00    +0.000 C 
BRANCH  16  17
ATOM     17  C   UNL     1       9.071   9.850  18.860  0.00  0.00    +0.000 C 
BRANCH  17  18
ATOM     18  C   UNL     1       9.240  11.363  18.649  0.00  0.00    +0.000 C 
BRANCH  18  19
ATOM     19  N   UNL     1      10.407  11.757  17.847  0.00  0.00    +0.000 NA
ATOM     20  C   UNL     1      11.704  11.571  18.538  0.00  0.00    +0.000 C 
ATOM     21  C   UNL     1      11.943  12.548  19.701  0.00  0.00    +0.000 C 
ATOM     22  O   UNL     1      11.854  13.909  19.259  0.00  0.00    +0.000 OA
ATOM     23  C   UNL     1      10.581  14.164  18.651  0.00  0.00    +0.000 C 
ATOM     24  C   UNL     1      10.308  13.196  17.482  0.00  0.00    +0.000 C 
ENDBRANCH  18  19
ENDBRANCH  17  18
ENDBRANCH  16  17
ENDBRANCH  15  16
ENDBRANCH  14  15
ENDBRANCH   4  14
TORSDOF 7
ENDMDL
MODEL 2
REMARK VINA RESULT:      -7.4      1.139      1.519
REMARK  Name = 
REMARK  7 active torsions:
REMARK  status: ('A' for Active; 'I' for Inactive)
REMARK    1  A    between atoms: C_5  and  N_6
REMARK    2  A    between atoms: C_9  and  O_10
REMARK    3  A    between atoms: O_10  and  C_11
REMARK    4  A    between atoms: C_11  and  C_12
REMARK    5  A    between atoms: C_12  and  C_13
REMARK    6  A    between atoms: C_13  and  C_14
REMARK    7  A    between atoms: C_14  and  N_15
REMARK                            x       y       z     vdW  Elec       q    Type
REMARK                         _______ _______ _______ _____ _____    ______ ____
ROOT
ATOM      1  N   UNL     1       5.275   4.768  16.904  0.00  0.00    +0.000 N 
ATOM      2  C   UNL     1       5.867   4.270  15.761  0.00  0.00    +0.000 A 
ATOM      3  C   UNL     1       6.949   5.064  15.480  0.00  0.00    +0.000 A 
ATOM      4  C   UNL     1       6.959   5.999  16.515  0.00  0.00    +0.000 A 
ATOM      5  N   UNL     1       5.947   5.856  17.373  0.00  0.00    +0.000 NA
ENDROOT
BRANCH   1  10
ATOM      6 CL   UNL     1       0.400   2.603  19.576  0.00  0.00    +0.000 Cl
ATOM      7  C   UNL     1       1.816   3.272  18.846  0.00  0.00    +0.000 A 
ATOM      8  C   UNL     1       2.383   2.571  17.781  0.00  0.00    +0.000 A 
ATOM      9  C   UNL     1       3.523   3.064  17.140  0.00  0.00    +0.000 A 
ATOM     10  C   UNL     1       4.116   4.263  17.567  0.00  0.00    +0.000 A 
ATOM     11  C   UNL     1       3.553   4.958  18.647  0.00  0.00    +0.000 A 
ATOM     12  C   UNL     1       2.401   4.470  19.278  0.00  0.00    +0.000 A 
ATOM     13 CL   UNL     1       1.733   5.396  20.576  0.00  0.00    +0.000 Cl
ENDBRANCH   1  10
BRANCH   4  14
ATOM     14  O   UNL     1       7.863   6.992  16.642  0.00  0.00    +0.000 OA
BRANCH  14  15
ATOM     15  C   UNL     1       7.865   7.588  17.935  0.00  0.00    +0.000 C 
BRANCH  15  16
ATOM     16  C   UNL     1       8.047   9.098  17.776  0.00  0.00    +0.000 C 
BRANCH  16  17
ATOM     17  C   UNL     1       8.955   9.700  18.856  0.00  0.00    +0.000 C 
BRANCH  17  18
ATOM     18  C   UNL     1       9.580  11.030  18.408  0.00  0.00    +0.000 C 
BRANCH  18  19
ATOM     19  N   UNL     1       9.355  12.165  19.315  0.00  0.00    +0.000 NA
ATOM     20  C   UNL     1       9.138  13.456  18.621  0.00  0.00    +0.000 C 
ATOM     21  C   UNL     1      10.391  14.018  17.930  0.00  0.00    +0.000 C 
ATOM     22  O   UNL     1      11.467  14.179  18.864  0.00  0.00    +0.000 OA
ATOM     23  C   UNL     1      11.772  12.936  19.508  0.00  0.00    +0.000 C 
ATOM     24  C   UNL     1      10.532  12.341  20.207  0.00  0.00    +0.000 C 
ENDBRANCH  18  19
ENDBRANCH  17  18
ENDBRANCH  16  17
ENDBRANCH  15  16
ENDBRANCH  14  15
ENDBRANCH   4  14
TORSDOF 7
ENDMDL
MODEL 3
REMARK VINA RESULT:      -7.3      1.281      1.406
REMARK  Name = 
REMARK  7 active torsions:
REMARK  status: ('A' for Active; 'I' for Inactive)
REMARK    1  A    between atoms: C_5  and  N_6
REMARK    2  A    between atoms: C_9  and  O_10
REMARK    3  A    between atoms: O_10  and  C_11
REMARK    4  A    between atoms: C_11  and  C_12
REMARK    5  A    between atoms: C_12  and  C_13
REMARK    6  A    between atoms: C_13  and  C_14
REMARK    7  A    between atoms: C_14  and  N_15
REMARK                            x       y       z     vdW  Elec       q    Type
REMARK                         _______ _______ _______ _____ _____    ______ ____
ROOT
ATOM      1  N   UNL     1       5.379   5.222  17.389  0.00  0.00    +0.000 N 
ATOM      2  C   UNL     1       6.490   4.668  16.786  0.00  0.00    +0.000 A 
ATOM      3  C   UNL     1       7.383   5.683  16.562  0.00  0.00    +0.000 A 
ATOM      4  C   UNL     1       6.750   6.812  17.082  0.00  0.00    +0.000 A 
ATOM      5  N   UNL     1       5.532   6.564  17.565  0.00  0.00    +0.000 NA
ENDROOT
BRANCH   1  10
ATOM      6 CL   UNL     1       0.400   2.363  19.011  0.00  0.00    +0.000 Cl
ATOM      7  C   UNL     1       1.841   3.221  18.594  0.00  0.00    +0.000 A 
ATOM      8  C   UNL     1       2.515   2.823  17.438  0.00  0.00    +0.000 A 
ATOM      9  C   UNL     1       3.681   3.483  17.041  0.00  0.00    +0.000 A 
ATOM     10  C   UNL     1       4.192   4.545  17.804  0.00  0.00    +0.000 A 
ATOM     11  C   UNL     1       3.521   4.934  18.972  0.00  0.00    +0.000 A 
ATOM     12  C   UNL     1       2.344   4.280  19.361  0.00  0.00    +0.000 A 
ATOM     13 CL   UNL     1       1.543   4.835  20.789  0.00  0.00    +0.000 Cl
ENDBRANCH   1  10
BRANCH   4  14
ATOM     14  O   UNL     1       7.272   8.056  17.073  0.00  0.00    +0.000 OA
BRANCH  14  15
ATOM     15  C   UNL     1       8.124   8.316  18.184  0.00  0.00    +0.000 C 
BRANCH  15  16
ATOM     16  C   UNL     1       8.727   9.711  18.018  0.00  0.00    +0.000 C 
BRANCH  16  17
ATOM     17  C   UNL     1       9.321  10.256  19.324  0.00  0.00    +0.000 C 
BRANCH  17  18
ATOM     18  C   UNL     1      10.286  11.425  19.074  0.00  0.00    +0.000 C 
BRANCH  18  19
ATOM     19  N   UNL     1       9.977  12.252  17.899  0.00  0.00    +0.000 NA
ATOM     20  C   UNL     1      11.166  12.869  17.267  0.00  0.00    +0.000 C 
ATOM     21  C   UNL     1      11.820  13.979  18.106  0.00  0.00    +0.000 C 
ATOM     22  O   UNL     1      10.879  15.016  18.414  0.00  0.00    +0.000 OA
ATOM     23  C   UNL     1       9.740  14.482  19.100  0.00  0.00    +0.000 C 
ATOM     24  C   UNL     1       9.063  13.360  18.286  0.00  0.00    +0.000 C 
ENDBRANCH  18  19
ENDBRANCH  17  18
ENDBRANCH  16  17
ENDBRANCH  15  16
ENDBRANCH  14  15
ENDBRANCH   4  14
TORSDOF 7
ENDMDL
MODEL 4
REMARK VINA RESULT:      -7.3      1.411      1.868
REMARK  Name = 
REMARK  7 active torsions:
REMARK  status: ('A' for Active; 'I' for Inactive)
REMARK    1  A    between atoms: C_5  and  N_6
REMARK    2  A    between atoms: C_9  and  O_10
REMARK    3  A    between atoms: O_10  and  C_11
REMARK    4  A    between atoms: C_11  and  C_12
REMARK    5  A    between atoms: C_12  and  C_13
REMARK    6  A    between atoms: C_13  and  C_14
REMARK    7  A    between atoms: C_14  and  N_15
REMARK                            x       y       z     vdW  Elec       q    Type
REMARK                         _______ _______ _______ _____ _____    ______ ____
ROOT
ATOM      1  N   UNL     1       5.441   5.258  18.111  0.00  0.00    +0.000 N 
ATOM      2  C   UNL     1       6.729   4.775  18.224  0.00  0.00    +0.000 A 
ATOM      3  C   UNL     1       7.580   5.799  17.900  0.00  0.00    +0.000 A 
ATOM      4  C   UNL     1       6.731   6.873  17.632  0.00  0.00    +0.000 A 
ATOM      5  N   UNL     1       5.437   6.566  17.730  0.00  0.00    +0.000 NA
ENDROOT
BRANCH   1  10
ATOM      6 CL   UNL     1       0.315   2.344  19.018  0.00  0.00    +0.000 Cl
ATOM      7  C   UNL     1       1.818   3.170  18.810  0.00  0.00    +0.000 A 
ATOM      8  C   UNL     1       2.087   3.709  17.551  0.00  0.00    +0.000 A 
ATOM      9  C   UNL     1       3.281   4.398  17.321  0.00  0.00    +0.000 A 
ATOM     10  C   UNL     1       4.226   4.546  18.349  0.00  0.00    +0.000 A 
ATOM     11  C   UNL     1       3.961   3.990  19.608  0.00  0.00    +0.000 A 
ATOM     12  C   UNL     1       2.756   3.313  19.841  0.00  0.00    +0.000 A 
ATOM     13 CL   UNL     1       2.471   2.687  21.428  0.00  0.00    +0.000 Cl
ENDBRANCH   1  10
BRANCH   4  14
ATOM     14  O   UNL     1       7.144   8.103  17.264  0.00  0.00    +0.000 OA
BRANCH  14  15
ATOM     15  C   UNL     1       8.391   8.474  17.841  0.00  0.00    +0.000 C 
BRANCH  15  16
ATOM     16  C   UNL     1       8.334   9.956  18.213  0.00  0.00    +0.000 C 
BRANCH  16  17
ATOM     17  C   UNL     1       9.306  10.319  19.343  0.00  0.00    +0.000 C 
BRANCH  17  18
ATOM     18  C   UNL     1       9.648  11.817  19.350  0.00  0.00    +0.000 C 
BRANCH  18  19
ATOM     19  N   UNL     1      11.083  12.132  19.312  0.00  0.00    +0.000 NA
ATOM     20  C   UNL     1      11.409  13.510  19.746  0.00  0.00    +0.000 C 
ATOM     21  C   UNL     1      10.955  14.603  18.764  0.00  0.00    +0.000 C 
ATOM     22  O   UNL     1      11.515  14.392  17.461  0.00  0.00    +0.000 OA
ATOM     23  C   UNL     1      11.161  13.097  16.959  0.00  0.00    +0.000 C 
ATOM     24  C   UNL     1      11.599  11.977  17.925  0.00  0.00    +0.000 C 
ENDBRANCH  18  19
ENDBRANCH  17  18
ENDBRANCH  16  17
ENDBRANCH  15  16
ENDBRANCH  14  15
ENDBRANCH   4  14
TORSDOF 7
ENDMDL
MODEL 5
REMARK VINA RESULT:      -7.2      1.055      1.772
REMARK  Name = 
REMARK  7 active torsions:
REMARK  status: ('A' for Active; 'I' for Inactive)
REMARK    1  A    between atoms: C_5  and  N_6
REMARK    2  A    between atoms: C_9  and  O_10
REMARK    3  A    between atoms: O_10  and  C_11
REMARK    4  A    between atoms: C_11  and  C_12
REMARK    5  A    between atoms: C_12  and  C_13
REMARK    6  A    between atoms: C_13  and  C_14
REMARK    7  A    between atoms: C_14  and  N_15
REMARK                            x       y       z     vdW  Elec       q    Type
REMARK                         _______ _______ _______ _____ _____    ______ ____
ROOT
ATOM      1  N   UNL     1       5.355   5.133  17.584  0.00  0.00    +0.000 N 
ATOM      2  C   UNL     1       5.902   4.519  16.475  0.00  0.00    +0.000 A 
ATOM      3  C   UNL     1       6.900   5.332  16.007  0.00  0.00    +0.000 A 
ATOM      4  C   UNL     1       6.913   6.402  16.902  0.00  0.00    +0.000 A 
ATOM      5  N   UNL     1       5.977   6.316  17.848  0.00  0.00    +0.000 NA
ENDROOT
BRANCH   1  10
ATOM      6 CL   UNL     1       0.932   3.182  21.080  0.00  0.00    +0.000 Cl
ATOM      7  C   UNL     1       2.198   3.705  20.026  0.00  0.00    +0.000 A 
ATOM      8  C   UNL     1       2.891   4.864  20.380  0.00  0.00    +0.000 A 
ATOM      9  C   UNL     1       3.933   5.334  19.575  0.00  0.00    +0.000 A 
ATOM     10  C   UNL     1       4.285   4.653  18.398  0.00  0.00    +0.000 A 
ATOM     11  C   UNL     1       3.577   3.498  18.038  0.00  0.00    +0.000 A 
ATOM     12  C   UNL     1       2.544   3.020  18.854  0.00  0.00    +0.000 A 
ATOM     13 CL   UNL     1       1.738   1.567  18.374  0.00  0.00    +0.000 Cl
ENDBRANCH   1  10
BRANCH   4  14
ATOM     14  O   UNL     1       7.748   7.458  16.823  0.00  0.00    +0.000 OA
BRANCH  14  15
ATOM     15  C   UNL     1       8.133   7.967  18.096  0.00  0.00    +0.000 C 
BRANCH  15  16
ATOM     16  C   UNL     1       8.303   9.482  17.983  0.00  0.00    +0.000 C 
BRANCH  16  17
ATOM     17  C   UNL     1       9.205  10.058  19.083  0.00  0.00    +0.000 C 
BRANCH  17  18
ATOM     18  C   UNL     1       9.454  11.563  18.895  0.00  0.00    +0.000 C 
BRANCH  18  19
ATOM     19  N   UNL     1      10.821  12.014  19.194  0.00  0.00    +0.000 NA
ATOM     20  C   UNL     1      10.894  13.383  19.752  0.00  0.00    +0.000 C 
ATOM     21  C   UNL     1      10.551  14.493  18.744  0.00  0.00    +0.000 C 
ATOM     22  O   UNL     1      11.402  14.425  17.592  0.00  0.00    +0.000 OA
ATOM     23  C   UNL     1      11.307  13.139  16.965  0.00  0.00    +0.000 C 
ATOM     24  C   UNL     1      11.640  12.002  17.952  0.00  0.00    +0.000 C 
ENDBRANCH  18  19
ENDBRANCH  17  18
ENDBRANCH  16  17
ENDBRANCH  15  16
ENDBRANCH  14  15
ENDBRANCH   4  14
TORSDOF 7
ENDMDL
MODEL 6
REMARK VINA RESULT:      -7.2      1.242      1.684
REMARK  Name = 
REMARK  7 active torsions:
REMARK  status: ('A' for Active; 'I' for Inactive)
REMARK    1  A    between atoms: C_5  and  N_6
REMARK    2  A    between atoms: C_9  and  O_10
REMARK    3  A    between atoms: O_10  and  C_11
REMARK    4  A    between atoms: C_11  and  C_12
REMARK    5  A    between atoms: C_12  and  C_13
REMARK    6  A    between atoms: C_13  and  C_14
REMARK    7  A    between atoms: C_14  and  N_15
REMARK                            x       y       z     vdW  Elec       q    Type
REMARK                         _______ _______ _______ _____ _____    ______ ____
ROOT
ATOM      1  N   UNL     1       5.067   4.772  17.065  0.00  0.00    +0.000 N 
ATOM      2  C   UNL     1       5.477   4.329  15.824  0.00  0.00    +0.000 A 
ATOM      3  C   UNL     1       6.585   5.057  15.475  0.00  0.00    +0.000 A 
ATOM      4  C   UNL     1       6.795   5.898  16.568  0.00  0.00    +0.000 A 
ATOM      5  N   UNL     1       5.881   5.760  17.530  0.00  0.00    +0.000 NA
ENDROOT
BRANCH   1  10
ATOM      6 CL   UNL     1       0.344   2.900  20.192  0.00  0.00    +0.000 Cl
ATOM      7  C   UNL     1       1.748   3.412  19.325  0.00  0.00    +0.000 A 
ATOM      8  C   UNL     1       1.549   4.078  18.114  0.00  0.00    +0.000 A 
ATOM      9  C   UNL     1       2.643   4.527  17.370  0.00  0.00    +0.000 A 
ATOM     10  C   UNL     1       3.952   4.303  17.825  0.00  0.00    +0.000 A 
ATOM     11  C   UNL     1       4.150   3.621  19.033  0.00  0.00    +0.000 A 
ATOM     12  C   UNL     1       3.051   3.186  19.786  0.00  0.00    +0.000 A 
ATOM     13 CL   UNL     1       3.362   2.387  21.288  0.00  0.00    +0.000 Cl
ENDBRANCH   1  10
BRANCH   4  14
ATOM     14  O   UNL     1       7.791   6.803  16.659  0.00  0.00    +0.000 OA
BRANCH  14  15
ATOM     15  C   UNL     1       7.871   7.425  17.937  0.00  0.00    +0.000 C 
BRANCH  15  16
ATOM     16  C   UNL     1       7.868   8.941  17.742  0.00  0.00    +0.000 C 
BRANCH  16  17
ATOM     17  C   UNL     1       8.848   9.658  18.680  0.00  0.00    +0.000 C 
BRANCH  17  18
ATOM     18  C   UNL     1       9.579  10.812  17.976  0.00  0.00    +0.000 C 
BRANCH  18  19
ATOM     19  N   UNL     1      10.573  11.518  18.797  0.00  0.00    +0.000 NA
ATOM     20  C   UNL     1       9.983  12.417  19.816  0.00  0.00    +0.000 C 
ATOM     21  C   UNL     1       9.304  13.668  19.235  0.00  0.00    +0.000 C 
ATOM     22  O   UNL     1      10.219  14.427  18.434  0.00  0.00    +0.000 OA
ATOM     23  C   UNL     1      10.761  13.621  17.379  0.00  0.00    +0.000 C 
ATOM     24  C   UNL     1      11.446  12.353  17.930  0.00  0.00    +0.000 C 
ENDBRANCH  18  19
ENDBRANCH  17  18
ENDBRANCH  16  17
ENDBRANCH  15  16
ENDBRANCH  14  15
ENDBRANCH   4  14
TORSDOF 7
ENDMDL
MODEL 7
REMARK VINA RESULT:      -7.1      4.703      9.925
REMARK  Name = 
REMARK  7 active torsions:
REMARK  status: ('A' for Active; 'I' for Inactive)
REMARK    1  A    between atoms: C_5  and  N_6
REMARK    2  A    between atoms: C_9  and  O_10
REMARK    3  A    between atoms: O_10  and  C_11
REMARK    4  A    between atoms: C_11  and  C_12
REMARK    5  A    between atoms: C_12  and  C_13
REMARK    6  A    between atoms: C_13  and  C_14
REMARK    7  A    between atoms: C_14  and  N_15
REMARK                            x       y       z     vdW  Elec       q    Type
REMARK                         _______ _______ _______ _____ _____    ______ ____
ROOT
ATOM      1  N   UNL     1       8.435   8.801  18.423  0.00  0.00    +0.000 N 
ATOM      2  C   UNL     1       8.538   7.563  19.024  0.00  0.00    +0.000 A 
ATOM      3  C   UNL     1       7.736   6.699  18.325  0.00  0.00    +0.000 A 
ATOM      4  C   UNL     1       7.206   7.485  17.301  0.00  0.00    +0.000 A 
ATOM      5  N   UNL     1       7.594   8.760  17.352  0.00  0.00    +0.000 NA
ENDROOT
BRANCH   1  10
ATOM      6 CL   UNL     1      11.120  13.843  20.142  0.00  0.00    +0.000 Cl
ATOM      7  C   UNL     1      10.359  12.395  19.587  0.00  0.00    +0.000 A 
ATOM      8  C   UNL     1       9.878  11.510  20.554  0.00  0.00    +0.000 A 
ATOM      9  C   UNL     1       9.243  10.325  20.170  0.00  0.00    +0.000 A 
ATOM     10  C   UNL     1       9.092  10.008  18.810  0.00  0.00    +0.000 A 
ATOM     11  C   UNL     1       9.589  10.891  17.842  0.00  0.00    +0.000 A 
ATOM     12  C   UNL     1      10.212  12.086  18.229  0.00  0.00    +0.000 A 
ATOM     13 CL   UNL     1      10.766  13.151  16.985  0.00  0.00    +0.000 Cl
ENDBRANCH   1  10
BRANCH   4  14
ATOM     14  O   UNL     1       6.347   7.041  16.360  0.00  0.00    +0.000 OA
BRANCH  14  15
ATOM     15  C   UNL     1       6.335   5.623  16.234  0.00  0.00    +0.000 C 
BRANCH  15  16
ATOM     16  C   UNL     1       4.882   5.145  16.246  0.00  0.00    +0.000 C 
BRANCH  16  17
ATOM     17  C   UNL     1       4.581   4.203  17.419  0.00  0.00    +0.000 C 
BRANCH  17  18
ATOM     18  C   UNL     1       3.073   4.082  17.687  0.00  0.00    +0.000 C 
BRANCH  18  19
ATOM     19  N   UNL     1       2.600   2.726  18.005  0.00  0.00    +0.000 NA
ATOM     20  C   UNL     1       1.209   2.677  18.509  0.00  0.00    +0.000 C 
ATOM     21  C   UNL     1       1.028   3.269  19.917  0.00  0.00    +0.000 C 
ATOM     22  O   UNL     1       1.879   2.613  20.866  0.00  0.00    +0.000 OA
ATOM     23  C   UNL     1       3.252   2.702  20.463  0.00  0.00    +0.000 C 
ATOM     24  C   UNL     1       3.467   2.120  19.051  0.00  0.00    +0.000 C 
ENDBRANCH  18  19
ENDBRANCH  17  18
ENDBRANCH  16  17
ENDBRANCH  15  16
ENDBRANCH  14  15
ENDBRANCH   4  14
TORSDOF 7
ENDMDL
MODEL 8
REMARK VINA RESULT:      -7.1      1.591      1.812
REMARK  Name = 
REMARK  7 active torsions:
REMARK  status: ('A' for Active; 'I' for Inactive)
REMARK    1  A    between atoms: C_5  and  N_6
REMARK    2  A    between atoms: C_9  and  O_10
REMARK    3  A    between atoms: O_10  and  C_11
REMARK    4  A    between atoms: C_11  and  C_12
REMARK    5  A    between atoms: C_12  and  C_13
REMARK    6  A    between atoms: C_13  and  C_14
REMARK    7  A    between atoms: C_14  and  N_15
REMARK                            x       y       z     vdW  Elec       q    Type
REMARK                         _______ _______ _______ _____ _____    ______ ____
ROOT
ATOM      1  N   UNL     1       5.401   5.303  17.420  0.00  0.00    +0.000 N 
ATOM      2  C   UNL     1       6.539   4.748  16.870  0.00  0.00    +0.000 A 
ATOM      3  C   UNL     1       7.430   5.767  16.657  0.00  0.00    +0.000 A 
ATOM      4  C   UNL     1       6.767   6.900  17.130  0.00  0.00    +0.000 A 
ATOM      5  N   UNL     1       5.535   6.650  17.574  0.00  0.00    +0.000 NA
ENDROOT
BRANCH   1  10
ATOM      6 CL   UNL     1       0.396   2.423  18.919  0.00  0.00    +0.000 Cl
ATOM      7  C   UNL     1       1.841   3.289  18.536  0.00  0.00    +0.000 A 
ATOM      8  C   UNL     1       2.575   2.859  17.429  0.00  0.00    +0.000 A 
ATOM      9  C   UNL     1       3.748   3.523  17.061  0.00  0.00    +0.000 A 
ATOM     10  C   UNL     1       4.207   4.622  17.805  0.00  0.00    +0.000 A 
ATOM     11  C   UNL     1       3.476   5.043  18.925  0.00  0.00    +0.000 A 
ATOM     12  C   UNL     1       2.292   4.385  19.284  0.00  0.00    +0.000 A 
ATOM     13 CL   UNL     1       1.416   4.979  20.651  0.00  0.00    +0.000 Cl
ENDBRANCH   1  10
BRANCH   4  14
ATOM     14  O   UNL     1       7.277   8.149  17.115  0.00  0.00    +0.000 OA
BRANCH  14  15
ATOM     15  C   UNL     1       8.248   8.373  18.131  0.00  0.00    +0.000 C 
BRANCH  15  16
ATOM     16  C   UNL     1       8.545   9.871  18.199  0.00  0.00    +0.000 C 
BRANCH  16  17
ATOM     17  C   UNL     1       9.315  10.262  19.467  0.00  0.00    +0.000 C 
BRANCH  17  18
ATOM     18  C   UNL     1      10.455  11.249  19.168  0.00  0.00    +0.000 C 
BRANCH  18  19
ATOM     19  N   UNL     1      10.944  12.012  20.325  0.00  0.00    +0.000 NA
ATOM     20  C   UNL     1       9.884  12.387  21.290  0.00  0.00    +0.000 C 
ATOM     21  C   UNL     1       8.907  13.453  20.767  0.00  0.00    +0.000 C 
ATOM     22  O   UNL     1       9.603  14.642  20.370  0.00  0.00    +0.000 OA
ATOM     23  C   UNL     1      10.590  14.344  19.375  0.00  0.00    +0.000 C 
ATOM     24  C   UNL     1      11.585  13.273  19.866  0.00  0.00    +0.000 C 
ENDBRANCH  18  19
ENDBRANCH  17  18
ENDBRANCH  16  17
ENDBRANCH  15  16
ENDBRANCH  14  15
ENDBRANCH   4  14
TORSDOF 7
ENDMDL
MODEL 9
REMARK VINA RESULT:      -7.1      4.722      9.658
REMARK  Name = 
REMARK  7 active torsions:
REMARK  status: ('A' for Active; 'I' for Inactive)
REMARK    1  A    between atoms: C_5  and  N_6
REMARK    2  A    between atoms: C_9  and  O_10
REMARK    3  A    between atoms: O_10  and  C_11
REMARK    4  A    between atoms: C_11  and  C_12
REMARK    5  A    between atoms: C_12  and  C_13
REMARK    6  A    between atoms: C_13  and  C_14
REMARK    7  A    between atoms: C_14  and  N_15
REMARK                            x       y       z     vdW  Elec       q    Type
REMARK                         _______ _______ _______ _____ _____    ______ ____
ROOT
ATOM      1  N   UNL     1       8.411   8.832  18.415  0.00  0.00    +0.000 N 
ATOM      2  C   UNL     1       8.598   7.573  18.950  0.00  0.00    +0.000 A 
ATOM      3  C   UNL     1       7.761   6.716  18.284  0.00  0.00    +0.000 A 
ATOM      4  C   UNL     1       7.125   7.528  17.344  0.00  0.00    +0.000 A 
ATOM      5  N   UNL     1       7.483   8.811  17.419  0.00  0.00    +0.000 NA
ENDROOT
BRANCH   1  10
ATOM      6 CL   UNL     1      11.093  13.881  20.119  0.00  0.00    +0.000 Cl
ATOM      7  C   UNL     1      10.334  12.430  19.569  0.00  0.00    +0.000 A 
ATOM      8  C   UNL     1       9.830  11.560  20.537  0.00  0.00    +0.000 A 
ATOM      9  C   UNL     1       9.195  10.375  20.157  0.00  0.00    +0.000 A 
ATOM     10  C   UNL     1       9.068  10.040  18.799  0.00  0.00    +0.000 A 
ATOM     11  C   UNL     1       9.588  10.907  17.829  0.00  0.00    +0.000 A 
ATOM     12  C   UNL     1      10.211  12.104  18.212  0.00  0.00    +0.000 A 
ATOM     13 CL   UNL     1      10.794  13.149  16.964  0.00  0.00    +0.000 Cl
ENDBRANCH   1  10
BRANCH   4  14
ATOM     14  O   UNL     1       6.200   7.099  16.461  0.00  0.00    +0.000 OA
BRANCH  14  15
ATOM     15  C   UNL     1       5.231   6.231  17.038  0.00  0.00    +0.000 C 
BRANCH  15  16
ATOM     16  C   UNL     1       3.982   7.049  17.371  0.00  0.00    +0.000 C 
BRANCH  16  17
ATOM     17  C   UNL     1       3.152   6.425  18.500  0.00  0.00    +0.000 C 
BRANCH  17  18
ATOM     18  C   UNL     1       2.320   5.229  18.010  0.00  0.00    +0.000 C 
BRANCH  18  19
ATOM     19  N   UNL     1       1.958   4.251  19.046  0.00  0.00    +0.000 NA
ATOM     20  C   UNL     1       3.071   3.897  19.956  0.00  0.00    +0.000 C 
ATOM     21  C   UNL     1       4.182   3.062  19.296  0.00  0.00    +0.000 C 
ATOM     22  O   UNL     1       3.654   1.855  18.732  0.00  0.00    +0.000 OA
ATOM     23  C   UNL     1       2.622   2.147  17.781  0.00  0.00    +0.000 C 
ATOM     24  C   UNL     1       1.493   2.989  18.410  0.00  0.00    +0.000 C 
ENDBRANCH  18  19
ENDBRANCH  17  18
ENDBRANCH  16  17
ENDBRANCH  15  16
ENDBRANCH  14  15
ENDBRANCH   4  14
TORSDOF 7
ENDMDL
