MODEL 1
REMARK VINA RESULT:      -7.4      0.000      0.000
REMARK  Name = 
REMARK  7 active torsions:
REMARK  status: ('A' for Active; 'I' for Inactive)
REMARK    1  A    between atoms: C_1  and  C_2
REMARK    2  A    between atoms: C_2  and  N_3
REMARK    3  A    between atoms: C_2  and  C_13
REMARK    4  A    between atoms: N_3  and  C_4
REMARK    5  A    between atoms: C_4  and  C_5
REMARK    6  A    between atoms: C_13  and  O_14
REMARK    7  A    between atoms: C_13  and  C_15
REMARK                            x       y       z     vdW  Elec       q    Type
REMARK                         _______ _______ _______ _____ _____    ______ ____
ROOT
ATOM      1  C   UNL     1       7.378   6.859  17.347  0.00  0.00    +0.000 C 
ATOM      2  C   UNL     1       7.096   5.479  16.740  0.00  0.00    +0.000 C 
ENDROOT
BRANCH   2   3
ATOM      3  N   UNL     1       6.940   4.482  17.827  0.00  0.00    +0.000 NA
ATOM      4  H   UNL     1       7.885   4.278  18.233  0.00  0.00    +0.000 HD
BRANCH   3   5
ATOM      5  C   UNL     1       6.027   4.825  18.948  0.00  0.00    +0.000 C 
BRANCH   5   6
ATOM      6  C   UNL     1       4.649   4.166  18.880  0.00  0.00    +0.000 A 
ATOM      7  C   UNL     1       4.373   3.129  17.977  0.00  0.00    +0.000 A 
ATOM      8  C   UNL     1       3.122   2.520  17.922  0.00  0.00    +0.000 A 
ATOM      9  C   UNL     1       2.096   2.960  18.754  0.00  0.00    +0.000 A 
ATOM     10 CL   UNL     1       0.529   2.170  18.646  0.00  0.00    +0.000 Cl
ATOM     11  C   UNL     1       2.328   4.025  19.638  0.00  0.00    +0.000 A 
ATOM     12 CL   UNL     1       1.046   4.635  20.671  0.00  0.00    +0.000 Cl
ATOM     13  C   UNL     1       3.600   4.621  19.702  0.00  0.00    +0.000 A 
ENDBRANCH   5   6
ENDBRANCH   3   5
ENDBRANCH   2   3
BRANCH   2  14
ATOM     14  C   UNL     1       5.895   5.469  15.732  0.00  0.00    +0.000 C 
BRANCH  14  15
ATOM     15  C   UNL     1       6.261   4.853  14.392  0.00  0.00    +0.000 A 
ATOM     16  C   UNL     1       7.420   5.289  13.717  0.00  0.00    +0.000 A 
ATOM     17  C   UNL     1       7.751   4.778  12.464  0.00  0.00    +0.000 A 
ATOM     18  C   UNL     1       6.945   3.807  11.872  0.00  0.00    +0.000 A 
ATOM     19  C   UNL     1       5.805   3.346  12.535  0.00  0.00    +0.000 A 
ATOM     20  C   UNL     1       5.458   3.869  13.785  0.00  0.00    +0.000 A 
ENDBRANCH  14  15
BRANCH  14  21
ATOM     21  O   UNL     1       5.261   6.718  15.590  0.00  0.00    +0.000 OA
ATOM     22  H   UNL     1       4.948   6.810  14.656  0.00  0.00    +0.000 HD
ENDBRANCH  14  21
ENDBRANCH   2  14
TORSDOF 6
ENDMDL
MODEL 2
REMARK VINA RESULT:      -7.1      1.837      2.477
REMARK  Name = 
REMARK  7 active torsions:
REMARK  status: ('A' for Active; 'I' for Inactive)
REMARK    1  A    between atoms: C_1  and  C_2
REMARK    2  A    between atoms: C_2  and  N_3
REMARK    3  A    between atoms: C_2  and  C_13
REMARK    4  A    between atoms: N_3  and  C_4
REMARK    5  A    between atoms: C_4  and  C_5
REMARK    6  A    between atoms: C_13  and  O_14
REMARK    7  A    between atoms: C_13  and  C_15
REMARK                            x       y       z     vdW  Elec       q    Type
REMARK                         _______ _______ _______ _____ _____    ______ ____
ROOT
ATOM      1  C   UNL     1       7.366   7.727  17.504  0.00  0.00    +0.000 C 
ATOM      2  C   UNL     1       6.417   6.525  17.593  0.00  0.00    +0.000 C 
ENDROOT
BRANCH   2   3
ATOM      3  N   UNL     1       5.210   6.785  16.773  0.00  0.00    +0.000 NA
ATOM      4  H   UNL     1       4.971   5.913  16.243  0.00  0.00    +0.000 HD
BRANCH   3   5
ATOM      5  C   UNL     1       3.984   7.240  17.478  0.00  0.00    +0.000 C 
BRANCH   5   6
ATOM      6  C   UNL     1       3.247   6.150  18.256  0.00  0.00    +0.000 A 
ATOM      7  C   UNL     1       2.713   6.389  19.531  0.00  0.00    +0.000 A 
ATOM      8  C   UNL     1       2.031   5.401  20.235  0.00  0.00    +0.000 A 
ATOM      9  C   UNL     1       1.894   4.126  19.692  0.00  0.00    +0.000 A 
ATOM     10 CL   UNL     1       1.034   2.905  20.620  0.00  0.00    +0.000 Cl
ATOM     11  C   UNL     1       2.456   3.843  18.438  0.00  0.00    +0.000 A 
ATOM     12 CL   UNL     1       2.341   2.235  17.740  0.00  0.00    +0.000 Cl
ATOM     13  C   UNL     1       3.125   4.852  17.723  0.00  0.00    +0.000 A 
ENDBRANCH   5   6
ENDBRANCH   3   5
ENDBRANCH   2   3
BRANCH   2  14
ATOM     14  C   UNL     1       7.102   5.158  17.247  0.00  0.00    +0.000 C 
BRANCH  14  15
ATOM     15  C   UNL     1       6.826   4.709  15.822  0.00  0.00    +0.000 A 
ATOM     16  C   UNL     1       7.585   5.247  14.762  0.00  0.00    +0.000 A 
ATOM     17  C   UNL     1       7.319   4.891  13.441  0.00  0.00    +0.000 A 
ATOM     18  C   UNL     1       6.308   3.977  13.155  0.00  0.00    +0.000 A 
ATOM     19  C   UNL     1       5.560   3.415  14.193  0.00  0.00    +0.000 A 
ATOM     20  C   UNL     1       5.810   3.783  15.520  0.00  0.00    +0.000 A 
ENDBRANCH  14  15
BRANCH  14  21
ATOM     21  O   UNL     1       6.847   4.140  18.186  0.00  0.00    +0.000 OA
ATOM     22  H   UNL     1       7.569   3.466  18.126  0.00  0.00    +0.000 HD
ENDBRANCH  14  21
ENDBRANCH   2  14
TORSDOF 6
ENDMDL
MODEL 3
REMARK VINA RESULT:      -7.1      3.574      5.355
REMARK  Name = 
REMARK  7 active torsions:
REMARK  status: ('A' for Active; 'I' for Inactive)
REMARK    1  A    between atoms: C_1  and  C_2
REMARK    2  A    between atoms: C_2  and  N_3
REMARK    3  A    between atoms: C_2  and  C_13
REMARK    4  A    between atoms: N_3  and  C_4
REMARK    5  A    between atoms: C_4  and  C_5
REMARK    6  A    between atoms: C_13  and  O_14
REMARK    7  A    between atoms: C_13  and  C_15
REMARK                            x       y       z     vdW  Elec       q    Type
REMARK                         _______ _______ _______ _____ _____    ______ ____
ROOT
ATOM      1  C   UNL     1       2.916   1.951  18.325  0.00  0.00    +0.000 C 
ATOM      2  C   UNL     1       3.277   3.434  18.483  0.00  0.00    +0.000 C 
ENDROOT
BRANCH   2   3
ATOM      3  N   UNL     1       2.149   4.154  19.121  0.00  0.00    +0.000 NA
ATOM      4  H   UNL     1       1.508   3.450  19.561  0.00  0.00    +0.000 HD
BRANCH   3   5
ATOM      5  C   UNL     1       2.479   5.175  20.149  0.00  0.00    +0.000 C 
BRANCH   5   6
ATOM      6  C   UNL     1       2.175   6.617  19.744  0.00  0.00    +0.000 A 
ATOM      7  C   UNL     1       2.531   7.117  18.482  0.00  0.00    +0.000 A 
ATOM      8  C   UNL     1       2.246   8.427  18.108  0.00  0.00    +0.000 A 
ATOM      9  C   UNL     1       1.621   9.289  19.006  0.00  0.00    +0.000 A 
ATOM     10 CL   UNL     1       1.287  10.938  18.496  0.00  0.00    +0.000 Cl
ATOM     11  C   UNL     1       1.293   8.831  20.292  0.00  0.00    +0.000 A 
ATOM     12 CL   UNL     1       0.544   9.901  21.466  0.00  0.00    +0.000 Cl
ATOM     13  C   UNL     1       1.565   7.501  20.655  0.00  0.00    +0.000 A 
ENDBRANCH   5   6
ENDBRANCH   3   5
ENDBRANCH   2   3
BRANCH   2  14
ATOM     14  C   UNL     1       4.642   3.673  19.217  0.00  0.00    +0.000 C 
BRANCH  14  15
ATOM     15  C   UNL     1       5.529   4.672  18.492  0.00  0.00    +0.000 A 
ATOM     16  C   UNL     1       5.323   4.918  17.119  0.00  0.00    +0.000 A 
ATOM     17  C   UNL     1       6.155   5.791  16.419  0.00  0.00    +0.000 A 
ATOM     18  C   UNL     1       7.191   6.448  17.079  0.00  0.00    +0.000 A 
ATOM     19  C   UNL     1       7.397   6.233  18.444  0.00  0.00    +0.000 A 
ATOM     20  C   UNL     1       6.576   5.345  19.148  0.00  0.00    +0.000 A 
ENDBRANCH  14  15
BRANCH  14  21
ATOM     21  O   UNL     1       5.328   2.488  19.545  0.00  0.00    +0.000 OA
ATOM     22  H   UNL     1       5.437   1.948  18.723  0.00  0.00    +0.000 HD
ENDBRANCH  14  21
ENDBRANCH   2  14
TORSDOF 6
ENDMDL
MODEL 4
REMARK VINA RESULT:      -7.0      1.935      2.673
REMARK  Name = 
REMARK  7 active torsions:
REMARK  status: ('A' for Active; 'I' for Inactive)
REMARK    1  A    between atoms: C_1  and  C_2
REMARK    2  A    between atoms: C_2  and  N_3
REMARK    3  A    between atoms: C_2  and  C_13
REMARK    4  A    between atoms: N_3  and  C_4
REMARK    5  A    between atoms: C_4  and  C_5
REMARK    6  A    between atoms: C_13  and  O_14
REMARK    7  A    between atoms: C_13  and  C_15
REMARK                            x       y       z     vdW  Elec       q    Type
REMARK                         _______ _______ _______ _____ _____    ______ ____
ROOT
ATOM      1  C   UNL     1       7.251   5.613  17.469  0.00  0.00    +0.000 C 
ATOM      2  C   UNL     1       6.344   4.587  16.778  0.00  0.00    +0.000 C 
ENDROOT
BRANCH   2   3
ATOM      3  N   UNL     1       5.466   3.943  17.785  0.00  0.00    +0.000 NA
ATOM      4  H   UNL     1       5.680   4.352  18.726  0.00  0.00    +0.000 HD
BRANCH   3   5
ATOM      5  C   UNL     1       3.998   4.032  17.573  0.00  0.00    +0.000 C 
BRANCH   5   6
ATOM      6  C   UNL     1       3.279   5.043  18.465  0.00  0.00    +0.000 A 
ATOM      7  C   UNL     1       2.754   4.680  19.715  0.00  0.00    +0.000 A 
ATOM      8  C   UNL     1       2.109   5.603  20.533  0.00  0.00    +0.000 A 
ATOM      9  C   UNL     1       1.941   6.917  20.105  0.00  0.00    +0.000 A 
ATOM     10 CL   UNL     1       1.112   8.047  21.166  0.00  0.00    +0.000 Cl
ATOM     11  C   UNL     1       2.415   7.300  18.841  0.00  0.00    +0.000 A 
ATOM     12 CL   UNL     1       2.182   8.937  18.249  0.00  0.00    +0.000 Cl
ATOM     13  C   UNL     1       3.084   6.368  18.028  0.00  0.00    +0.000 A 
ENDBRANCH   5   6
ENDBRANCH   3   5
ENDBRANCH   2   3
BRANCH   2  14
ATOM     14  C   UNL     1       5.545   5.173  15.563  0.00  0.00    +0.000 C 
BRANCH  14  15
ATOM     15  C   UNL     1       6.038   4.642  14.227  0.00  0.00    +0.000 A 
ATOM     16  C   UNL     1       7.236   5.146  13.677  0.00  0.00    +0.000 A 
ATOM     17  C   UNL     1       7.684   4.713  12.430  0.00  0.00    +0.000 A 
ATOM     18  C   UNL     1       6.959   3.758  11.721  0.00  0.00    +0.000 A 
ATOM     19  C   UNL     1       5.783   3.231  12.260  0.00  0.00    +0.000 A 
ATOM     20  C   UNL     1       5.318   3.674  13.503  0.00  0.00    +0.000 A 
ENDBRANCH  14  15
BRANCH  14  21
ATOM     21  O   UNL     1       5.441   6.577  15.574  0.00  0.00    +0.000 OA
ATOM     22  H   UNL     1       4.587   6.828  16.006  0.00  0.00    +0.000 HD
ENDBRANCH  14  21
ENDBRANCH   2  14
TORSDOF 6
ENDMDL
MODEL 5
REMARK VINA RESULT:      -7.0      3.698      6.368
REMARK  Name = 
REMARK  7 active torsions:
REMARK  status: ('A' for Active; 'I' for Inactive)
REMARK    1  A    between atoms: C_1  and  C_2
REMARK    2  A    between atoms: C_2  and  N_3
REMARK    3  A    between atoms: C_2  and  C_13
REMARK    4  A    between atoms: N_3  and  C_4
REMARK    5  A    between atoms: C_4  and  C_5
REMARK    6  A    between atoms: C_13  and  O_14
REMARK    7  A    between atoms: C_13  and  C_15
REMARK                            x       y       z     vdW  Elec       q    Type
REMARK                         _______ _______ _______ _____ _____    ______ ____
ROOT
ATOM      1  C   UNL     1       5.869   5.451  17.006  0.00  0.00    +0.000 C 
ATOM      2  C   UNL     1       4.737   5.241  18.020  0.00  0.00    +0.000 C 
ENDROOT
BRANCH   2   3
ATOM      3  N   UNL     1       3.492   5.863  17.509  0.00  0.00    +0.000 NA
ATOM      4  H   UNL     1       2.686   5.524  18.088  0.00  0.00    +0.000 HD
BRANCH   3   5
ATOM      5  C   UNL     1       3.431   7.347  17.468  0.00  0.00    +0.000 C 
BRANCH   5   6
ATOM      6  C   UNL     1       2.489   7.981  18.492  0.00  0.00    +0.000 A 
ATOM      7  C   UNL     1       2.266   7.396  19.747  0.00  0.00    +0.000 A 
ATOM      8  C   UNL     1       1.417   7.978  20.685  0.00  0.00    +0.000 A 
ATOM      9  C   UNL     1       0.738   9.153  20.376  0.00  0.00    +0.000 A 
ATOM     10 CL   UNL     1      -0.332   9.849  21.585  0.00  0.00    +0.000 Cl
ATOM     11  C   UNL     1       0.905   9.739  19.111  0.00  0.00    +0.000 A 
ATOM     12 CL   UNL     1       0.032  11.196  18.670  0.00  0.00    +0.000 Cl
ATOM     13  C   UNL     1       1.780   9.156  18.177  0.00  0.00    +0.000 A 
ENDBRANCH   5   6
ENDBRANCH   3   5
ENDBRANCH   2   3
BRANCH   2  14
ATOM     14  C   UNL     1       4.539   3.743  18.438  0.00  0.00    +0.000 C 
BRANCH  14  15
ATOM     15  C   UNL     1       3.177   3.485  19.061  0.00  0.00    +0.000 A 
ATOM     16  C   UNL     1       2.196   2.785  18.327  0.00  0.00    +0.000 A 
ATOM     17  C   UNL     1       0.923   2.579  18.855  0.00  0.00    +0.000 A 
ATOM     18  C   UNL     1       0.612   3.046  20.130  0.00  0.00    +0.000 A 
ATOM     19  C   UNL     1       1.577   3.721  20.881  0.00  0.00    +0.000 A 
ATOM     20  C   UNL     1       2.852   3.947  20.349  0.00  0.00    +0.000 A 
ENDBRANCH  14  15
BRANCH  14  21
ATOM     21  O   UNL     1       5.590   3.225  19.219  0.00  0.00    +0.000 OA
ATOM     22  H   UNL     1       5.401   3.415  20.171  0.00  0.00    +0.000 HD
ENDBRANCH  14  21
ENDBRANCH   2  14
TORSDOF 6
ENDMDL
MODEL 6
REMARK VINA RESULT:      -7.0      3.500      6.280
REMARK  Name = 
REMARK  7 active torsions:
REMARK  status: ('A' for Active; 'I' for Inactive)
REMARK    1  A    between atoms: C_1  and  C_2
REMARK    2  A    between atoms: C_2  and  N_3
REMARK    3  A    between atoms: C_2  and  C_13
REMARK    4  A    between atoms: N_3  and  C_4
REMARK    5  A    between atoms: C_4  and  C_5
REMARK    6  A    between atoms: C_13  and  O_14
REMARK    7  A    between atoms: C_13  and  C_15
REMARK                            x       y       z     vdW  Elec       q    Type
REMARK                         _______ _______ _______ _____ _____    ______ ____
ROOT
ATOM      1  C   UNL     1       4.961   4.010  16.711  0.00  0.00    +0.000 C 
ATOM      2  C   UNL     1       5.027   4.066  18.242  0.00  0.00    +0.000 C 
ENDROOT
BRANCH   2   3
ATOM      3  N   UNL     1       4.394   5.319  18.721  0.00  0.00    +0.000 NA
ATOM      4  H   UNL     1       5.114   5.882  19.234  0.00  0.00    +0.000 HD
BRANCH   3   5
ATOM      5  C   UNL     1       3.763   6.201  17.706  0.00  0.00    +0.000 C 
BRANCH   5   6
ATOM      6  C   UNL     1       2.850   7.287  18.276  0.00  0.00    +0.000 A 
ATOM      7  C   UNL     1       2.494   8.417  17.525  0.00  0.00    +0.000 A 
ATOM      8  C   UNL     1       1.654   9.401  18.038  0.00  0.00    +0.000 A 
ATOM      9  C   UNL     1       1.171   9.296  19.340  0.00  0.00    +0.000 A 
ATOM     10 CL   UNL     1       0.119  10.565  19.952  0.00  0.00    +0.000 Cl
ATOM     11  C   UNL     1       1.545   8.199  20.132  0.00  0.00    +0.000 A 
ATOM     12 CL   UNL     1       0.990   8.055  21.792  0.00  0.00    +0.000 Cl
ATOM     13  C   UNL     1       2.377   7.199  19.600  0.00  0.00    +0.000 A 
ENDBRANCH   5   6
ENDBRANCH   3   5
ENDBRANCH   2   3
BRANCH   2  14
ATOM     14  C   UNL     1       4.447   2.788  18.943  0.00  0.00    +0.000 C 
BRANCH  14  15
ATOM     15  C   UNL     1       2.982   2.939  19.316  0.00  0.00    +0.000 A 
ATOM     16  C   UNL     1       2.632   3.301  20.633  0.00  0.00    +0.000 A 
ATOM     17  C   UNL     1       1.295   3.396  21.015  0.00  0.00    +0.000 A 
ATOM     18  C   UNL     1       0.285   3.155  20.086  0.00  0.00    +0.000 A 
ATOM     19  C   UNL     1       0.612   2.818  18.770  0.00  0.00    +0.000 A 
ATOM     20  C   UNL     1       1.953   2.703  18.386  0.00  0.00    +0.000 A 
ENDBRANCH  14  15
BRANCH  14  21
ATOM     21  O   UNL     1       5.228   2.326  20.020  0.00  0.00    +0.000 OA
ATOM     22  H   UNL     1       4.961   2.815  20.837  0.00  0.00    +0.000 HD
ENDBRANCH  14  21
ENDBRANCH   2  14
TORSDOF 6
ENDMDL
MODEL 7
REMARK VINA RESULT:      -6.9      3.640      6.555
REMARK  Name = 
REMARK  7 active torsions:
REMARK  status: ('A' for Active; 'I' for Inactive)
REMARK    1  A    between atoms: C_1  and  C_2
REMARK    2  A    between atoms: C_2  and  N_3
REMARK    3  A    between atoms: C_2  and  C_13
REMARK    4  A    between atoms: N_3  and  C_4
REMARK    5  A    between atoms: C_4  and  C_5
REMARK    6  A    between atoms: C_13  and  O_14
REMARK    7  A    between atoms: C_13  and  C_15
REMARK                            x       y       z     vdW  Elec       q    Type
REMARK                         _______ _______ _______ _____ _____    ______ ____
ROOT
ATOM      1  C   UNL     1       5.023   4.486  16.317  0.00  0.00    +0.000 C 
ATOM      2  C   UNL     1       4.321   4.715  17.661  0.00  0.00    +0.000 C 
ENDROOT
BRANCH   2   3
ATOM      3  N   UNL     1       4.389   6.153  18.019  0.00  0.00    +0.000 NA
ATOM      4  H   UNL     1       5.322   6.527  17.722  0.00  0.00    +0.000 HD
BRANCH   3   5
ATOM      5  C   UNL     1       3.342   7.049  17.465  0.00  0.00    +0.000 C 
BRANCH   5   6
ATOM      6  C   UNL     1       2.487   7.762  18.512  0.00  0.00    +0.000 A 
ATOM      7  C   UNL     1       2.276   7.215  19.787  0.00  0.00    +0.000 A 
ATOM      8  C   UNL     1       1.506   7.869  20.745  0.00  0.00    +0.000 A 
ATOM      9  C   UNL     1       0.894   9.082  20.439  0.00  0.00    +0.000 A 
ATOM     10 CL   UNL     1      -0.076   9.869  21.675  0.00  0.00    +0.000 Cl
ATOM     11  C   UNL     1       1.050   9.633  19.157  0.00  0.00    +0.000 A 
ATOM     12 CL   UNL     1       0.257  11.139  18.721  0.00  0.00    +0.000 Cl
ATOM     13  C   UNL     1       1.845   8.977  18.202  0.00  0.00    +0.000 A 
ENDBRANCH   5   6
ENDBRANCH   3   5
ENDBRANCH   2   3
BRANCH   2  14
ATOM     14  C   UNL     1       2.860   4.147  17.712  0.00  0.00    +0.000 C 
BRANCH  14  15
ATOM     15  C   UNL     1       2.492   3.597  19.080  0.00  0.00    +0.000 A 
ATOM     16  C   UNL     1       1.154   3.664  19.521  0.00  0.00    +0.000 A 
ATOM     17  C   UNL     1       0.799   3.213  20.791  0.00  0.00    +0.000 A 
ATOM     18  C   UNL     1       1.766   2.668  21.634  0.00  0.00    +0.000 A 
ATOM     19  C   UNL     1       3.092   2.573  21.206  0.00  0.00    +0.000 A 
ATOM     20  C   UNL     1       3.458   3.041  19.938  0.00  0.00    +0.000 A 
ENDBRANCH  14  15
BRANCH  14  21
ATOM     21  O   UNL     1       2.565   3.241  16.675  0.00  0.00    +0.000 OA
ATOM     22  H   UNL     1       2.856   2.337  16.952  0.00  0.00    +0.000 HD
ENDBRANCH  14  21
ENDBRANCH   2  14
TORSDOF 6
ENDMDL
MODEL 8
REMARK VINA RESULT:      -6.9      3.865      5.369
REMARK  Name = 
REMARK  7 active torsions:
REMARK  status: ('A' for Active; 'I' for Inactive)
REMARK    1  A    between atoms: C_1  and  C_2
REMARK    2  A    between atoms: C_2  and  N_3
REMARK    3  A    between atoms: C_2  and  C_13
REMARK    4  A    between atoms: N_3  and  C_4
REMARK    5  A    between atoms: C_4  and  C_5
REMARK    6  A    between atoms: C_13  and  O_14
REMARK    7  A    between atoms: C_13  and  C_15
REMARK                            x       y       z     vdW  Elec       q    Type
REMARK                         _______ _______ _______ _____ _____    ______ ____
ROOT
ATOM      1  C   UNL     1       2.625   3.667  20.589  0.00  0.00    +0.000 C 
ATOM      2  C   UNL     1       3.440   4.390  19.510  0.00  0.00    +0.000 C 
ENDROOT
BRANCH   2   3
ATOM      3  N   UNL     1       3.441   5.848  19.783  0.00  0.00    +0.000 NA
ATOM      4  H   UNL     1       4.387   6.120  20.144  0.00  0.00    +0.000 HD
BRANCH   3   5
ATOM      5  C   UNL     1       3.105   6.758  18.659  0.00  0.00    +0.000 C 
BRANCH   5   6
ATOM      6  C   UNL     1       2.132   7.884  19.011  0.00  0.00    +0.000 A 
ATOM      7  C   UNL     1       1.732   8.835  18.060  0.00  0.00    +0.000 A 
ATOM      8  C   UNL     1       0.838   9.854  18.376  0.00  0.00    +0.000 A 
ATOM      9  C   UNL     1       0.343   9.970  19.672  0.00  0.00    +0.000 A 
ATOM     10 CL   UNL     1      -0.777  11.277  20.031  0.00  0.00    +0.000 Cl
ATOM     11  C   UNL     1       0.758   9.060  20.657  0.00  0.00    +0.000 A 
ATOM     12 CL   UNL     1       0.189   9.201  22.312  0.00  0.00    +0.000 Cl
ATOM     13  C   UNL     1       1.646   8.021  20.325  0.00  0.00    +0.000 A 
ENDBRANCH   5   6
ENDBRANCH   3   5
ENDBRANCH   2   3
BRANCH   2  14
ATOM     14  C   UNL     1       4.883   3.809  19.317  0.00  0.00    +0.000 C 
BRANCH  14  15
ATOM     15  C   UNL     1       5.482   4.163  17.965  0.00  0.00    +0.000 A 
ATOM     16  C   UNL     1       4.723   3.961  16.793  0.00  0.00    +0.000 A 
ATOM     17  C   UNL     1       5.266   4.229  15.538  0.00  0.00    +0.000 A 
ATOM     18  C   UNL     1       6.564   4.725  15.431  0.00  0.00    +0.000 A 
ATOM     19  C   UNL     1       7.322   4.953  16.581  0.00  0.00    +0.000 A 
ATOM     20  C   UNL     1       6.789   4.668  17.843  0.00  0.00    +0.000 A 
ENDBRANCH  14  15
BRANCH  14  21
ATOM     21  O   UNL     1       4.987   2.434  19.602  0.00  0.00    +0.000 OA
ATOM     22  H   UNL     1       4.349   2.212  20.325  0.00  0.00    +0.000 HD
ENDBRANCH  14  21
ENDBRANCH   2  14
TORSDOF 6
ENDMDL
MODEL 9
REMARK VINA RESULT:      -6.9      3.585      5.367
REMARK  Name = 
REMARK  7 active torsions:
REMARK  status: ('A' for Active; 'I' for Inactive)
REMARK    1  A    between atoms: C_1  and  C_2
REMARK    2  A    between atoms: C_2  and  N_3
REMARK    3  A    between atoms: C_2  and  C_13
REMARK    4  A    between atoms: N_3  and  C_4
REMARK    5  A    between atoms: C_4  and  C_5
REMARK    6  A    between atoms: C_13  and  O_14
REMARK    7  A    between atoms: C_13  and  C_15
REMARK                            x       y       z     vdW  Elec       q    Type
REMARK                         _______ _______ _______ _____ _____    ______ ____
ROOT
ATOM      1  C   UNL     1       2.181   1.866  18.959  0.00  0.00    +0.000 C 
ATOM      2  C   UNL     1       2.680   3.316  18.904  0.00  0.00    +0.000 C 
ENDROOT
BRANCH   2   3
ATOM      3  N   UNL     1       1.806   4.173  19.740  0.00  0.00    +0.000 NA
ATOM      4  H   UNL     1       1.301   3.566  20.429  0.00  0.00    +0.000 HD
BRANCH   3   5
ATOM      5  C   UNL     1       2.447   5.281  20.493  0.00  0.00    +0.000 C 
BRANCH   5   6
ATOM      6  C   UNL     1       2.105   6.684  19.990  0.00  0.00    +0.000 A 
ATOM      7  C   UNL     1       2.516   7.132  18.726  0.00  0.00    +0.000 A 
ATOM      8  C   UNL     1       2.196   8.405  18.262  0.00  0.00    +0.000 A 
ATOM      9  C   UNL     1       1.480   9.283  19.071  0.00  0.00    +0.000 A 
ATOM     10 CL   UNL     1       1.105  10.884  18.450  0.00  0.00    +0.000 Cl
ATOM     11  C   UNL     1       1.093   8.879  20.359  0.00  0.00    +0.000 A 
ATOM     12 CL   UNL     1       0.226   9.974  21.424  0.00  0.00    +0.000 Cl
ATOM     13  C   UNL     1       1.402   7.585  20.813  0.00  0.00    +0.000 A 
ENDBRANCH   5   6
ENDBRANCH   3   5
ENDBRANCH   2   3
BRANCH   2  14
ATOM     14  C   UNL     1       4.200   3.470  19.260  0.00  0.00    +0.000 C 
BRANCH  14  15
ATOM     15  C   UNL     1       4.930   4.409  18.315  0.00  0.00    +0.000 A 
ATOM     16  C   UNL     1       5.947   5.249  18.814  0.00  0.00    +0.000 A 
ATOM     17  C   UNL     1       6.598   6.155  17.979  0.00  0.00    +0.000 A 
ATOM     18  C   UNL     1       6.263   6.224  16.628  0.00  0.00    +0.000 A 
ATOM     19  C   UNL     1       5.274   5.384  16.110  0.00  0.00    +0.000 A 
ATOM     20  C   UNL     1       4.604   4.485  16.948  0.00  0.00    +0.000 A 
ENDBRANCH  14  15
BRANCH  14  21
ATOM     21  O   UNL     1       4.874   2.245  19.424  0.00  0.00    +0.000 OA
ATOM     22  H   UNL     1       5.391   2.056  18.602  0.00  0.00    +0.000 HD
ENDBRANCH  14  21
ENDBRANCH   2  14
TORSDOF 6
ENDMDL
