MODEL 1
REMARK VINA RESULT:      -7.2      0.000      0.000
REMARK  Name = 
REMARK  4 active torsions:
REMARK  status: ('A' for Active; 'I' for Inactive)
REMARK    1  A    between atoms: C_1  and  N_2
REMARK    2  A    between atoms: N_2  and  C_11
REMARK    3  A    between atoms: C_6  and  C_7
REMARK    4  A    between atoms: N_14  and  C_15
REMARK                            x       y       z     vdW  Elec       q    Type
REMARK                         _______ _______ _______ _____ _____    ______ ____
ROOT
ATOM      1  C   UNL     1       2.411   6.751  19.186  0.00  0.00    +0.000 C 
ATOM      2  C   UNL     1       1.965   5.629  18.234  0.00  0.00    +0.000 C 
ATOM      3  C   UNL     1       3.137   4.662  18.206  0.00  0.00    +0.000 C 
ATOM      4  N   UNL     1       4.286   5.530  18.363  0.00  0.00    +0.000 N 
ATOM      5  C   UNL     1       3.957   6.750  19.085  0.00  0.00    +0.000 C 
ENDROOT
BRANCH   4   6
ATOM      6  C   UNL     1       5.521   5.158  17.904  0.00  0.00    +0.000 A 
ATOM      7  N   UNL     1       6.505   4.940  18.822  0.00  0.00    +0.000 NA
ATOM      8  C   UNL     1       7.728   4.549  18.417  0.00  0.00    +0.000 A 
ATOM      9  N   UNL     1       8.154   4.347  17.164  0.00  0.00    +0.000 NA
ATOM     10  C   UNL     1       7.176   4.585  16.281  0.00  0.00    +0.000 A 
ATOM     11  N   UNL     1       7.331   4.483  14.926  0.00  0.00    +0.000 N 
ATOM     12  C   UNL     1       6.158   4.803  14.298  0.00  0.00    +0.000 A 
ATOM     13  C   UNL     1       5.233   5.096  15.274  0.00  0.00    +0.000 A 
ATOM     14  C   UNL     1       5.870   4.971  16.548  0.00  0.00    +0.000 A 
ATOM     15  H   UNL     1       8.201   4.224  14.481  0.00  0.00    +0.000 HD
ENDBRANCH   4   6
BRANCH   1  17
ATOM     16  C   UNL     1       2.209   8.750  17.637  0.00  0.00    +0.000 C 
ATOM     17  N   UNL     1       1.801   8.050  18.851  0.00  0.00    +0.000 N 
ATOM     18  C   UNL     1       1.304   8.832  19.882  0.00  0.00    +0.000 A 
ATOM     19  N   UNL     1       0.923  10.093  19.604  0.00  0.00    +0.000 NA
ATOM     20  C   UNL     1       0.270  10.799  20.548  0.00  0.00    +0.000 A 
ATOM     21  C   UNL     1      -0.021  10.300  21.787  0.00  0.00    +0.000 A 
ATOM     22  C   UNL     1       0.463   9.038  22.026  0.00  0.00    +0.000 A 
ATOM     23  N   UNL     1       1.128   8.300  21.103  0.00  0.00    +0.000 NA
BRANCH  21  24
ATOM     24  C   UNL     1      -0.806  11.020  22.725  0.00  0.00    +0.000 C 
ATOM     25  N   UNL     1      -1.471  11.585  23.490  0.00  0.00    +0.000 NA
ENDBRANCH  21  24
ENDBRANCH   1  17
TORSDOF 3
ENDMDL
MODEL 2
REMARK VINA RESULT:      -6.6      3.770      8.088
REMARK  Name = 
REMARK  4 active torsions:
REMARK  status: ('A' for Active; 'I' for Inactive)
REMARK    1  A    between atoms: C_1  and  N_2
REMARK    2  A    between atoms: N_2  and  C_11
REMARK    3  A    between atoms: C_6  and  C_7
REMARK    4  A    between atoms: N_14  and  C_15
REMARK                            x       y       z     vdW  Elec       q    Type
REMARK                         _______ _______ _______ _____ _____    ______ ____
ROOT
ATOM      1  C   UNL     1       5.358   6.577  18.136  0.00  0.00    +0.000 C 
ATOM      2  C   UNL     1       4.187   7.207  17.367  0.00  0.00    +0.000 C 
ATOM      3  C   UNL     1       2.943   6.699  18.081  0.00  0.00    +0.000 C 
ATOM      4  N   UNL     1       3.335   5.379  18.530  0.00  0.00    +0.000 N 
ATOM      5  C   UNL     1       4.772   5.273  18.733  0.00  0.00    +0.000 C 
ENDROOT
BRANCH   4   6
ATOM      6  C   UNL     1       2.401   4.406  18.763  0.00  0.00    +0.000 A 
ATOM      7  N   UNL     1       1.676   3.949  17.701  0.00  0.00    +0.000 NA
ATOM      8  C   UNL     1       0.764   2.975  17.880  0.00  0.00    +0.000 A 
ATOM      9  N   UNL     1       0.429   2.361  19.022  0.00  0.00    +0.000 NA
ATOM     10  C   UNL     1       1.141   2.839  20.050  0.00  0.00    +0.000 A 
ATOM     11  N   UNL     1       0.994   2.415  21.342  0.00  0.00    +0.000 N 
ATOM     12  C   UNL     1       1.850   3.102  22.158  0.00  0.00    +0.000 A 
ATOM     13  C   UNL     1       2.570   3.967  21.367  0.00  0.00    +0.000 A 
ATOM     14  C   UNL     1       2.123   3.820  20.017  0.00  0.00    +0.000 A 
ATOM     15  H   UNL     1       0.329   1.708  21.625  0.00  0.00    +0.000 HD
ENDBRANCH   4   6
BRANCH   1  17
ATOM     16  C   UNL     1       7.698   7.229  17.403  0.00  0.00    +0.000 C 
ATOM     17  N   UNL     1       6.538   6.352  17.281  0.00  0.00    +0.000 N 
ATOM     18  C   UNL     1       6.360   5.724  16.059  0.00  0.00    +0.000 A 
ATOM     19  N   UNL     1       7.395   5.687  15.200  0.00  0.00    +0.000 NA
ATOM     20  C   UNL     1       7.295   4.925  14.092  0.00  0.00    +0.000 A 
ATOM     21  C   UNL     1       6.185   4.187  13.790  0.00  0.00    +0.000 A 
ATOM     22  C   UNL     1       5.142   4.331  14.672  0.00  0.00    +0.000 A 
ATOM     23  N   UNL     1       5.204   5.092  15.792  0.00  0.00    +0.000 NA
BRANCH  21  24
ATOM     24  C   UNL     1       6.144   3.306  12.678  0.00  0.00    +0.000 C 
ATOM     25  N   UNL     1       6.078   2.580  11.775  0.00  0.00    +0.000 NA
ENDBRANCH  21  24
ENDBRANCH   1  17
TORSDOF 3
ENDMDL
MODEL 3
REMARK VINA RESULT:      -6.6      2.176      3.590
REMARK  Name = 
REMARK  4 active torsions:
REMARK  status: ('A' for Active; 'I' for Inactive)
REMARK    1  A    between atoms: C_1  and  N_2
REMARK    2  A    between atoms: N_2  and  C_11
REMARK    3  A    between atoms: C_6  and  C_7
REMARK    4  A    between atoms: N_14  and  C_15
REMARK                            x       y       z     vdW  Elec       q    Type
REMARK                         _______ _______ _______ _____ _____    ______ ____
ROOT
ATOM      1  C   UNL     1       1.478   8.672  20.117  0.00  0.00    +0.000 C 
ATOM      2  C   UNL     1       0.937   7.519  20.975  0.00  0.00    +0.000 C 
ATOM      3  C   UNL     1       1.911   6.375  20.738  0.00  0.00    +0.000 C 
ATOM      4  N   UNL     1       2.329   6.575  19.365  0.00  0.00    +0.000 N 
ATOM      5  C   UNL     1       2.240   7.971  18.964  0.00  0.00    +0.000 C 
ENDROOT
BRANCH   4   6
ATOM      6  C   UNL     1       2.790   5.533  18.608  0.00  0.00    +0.000 A 
ATOM      7  N   UNL     1       3.863   5.759  17.796  0.00  0.00    +0.000 NA
ATOM      8  C   UNL     1       4.366   4.756  17.052  0.00  0.00    +0.000 A 
ATOM      9  N   UNL     1       3.929   3.493  16.971  0.00  0.00    +0.000 NA
ATOM     10  C   UNL     1       2.865   3.302  17.762  0.00  0.00    +0.000 A 
ATOM     11  N   UNL     1       2.195   2.114  17.864  0.00  0.00    +0.000 N 
ATOM     12  C   UNL     1       1.150   2.243  18.738  0.00  0.00    +0.000 A 
ATOM     13  C   UNL     1       1.168   3.533  19.217  0.00  0.00    +0.000 A 
ATOM     14  C   UNL     1       2.253   4.227  18.596  0.00  0.00    +0.000 A 
ATOM     15  H   UNL     1       2.446   1.284  17.344  0.00  0.00    +0.000 HD
ENDBRANCH   4   6
BRANCH   1  17
ATOM     16  C   UNL     1       0.388  10.009  18.257  0.00  0.00    +0.000 C 
ATOM     17  N   UNL     1       0.413   9.577  19.650  0.00  0.00    +0.000 N 
ATOM     18  C   UNL     1      -0.192  10.417  20.572  0.00  0.00    +0.000 A 
ATOM     19  N   UNL     1      -1.025  11.372  20.119  0.00  0.00    +0.000 NA
ATOM     20  C   UNL     1      -1.759  12.072  21.007  0.00  0.00    +0.000 A 
ATOM     21  C   UNL     1      -1.694  11.865  22.357  0.00  0.00    +0.000 A 
ATOM     22  C   UNL     1      -0.769  10.930  22.751  0.00  0.00    +0.000 A 
ATOM     23  N   UNL     1      -0.011  10.211  21.887  0.00  0.00    +0.000 NA
BRANCH  21  24
ATOM     24  C   UNL     1      -2.555  12.535  23.265  0.00  0.00    +0.000 C 
ATOM     25  N   UNL     1      -3.233  13.095  24.023  0.00  0.00    +0.000 NA
ENDBRANCH  21  24
ENDBRANCH   1  17
TORSDOF 3
ENDMDL
MODEL 4
REMARK VINA RESULT:      -6.6      1.743      8.897
REMARK  Name = 
REMARK  4 active torsions:
REMARK  status: ('A' for Active; 'I' for Inactive)
REMARK    1  A    between atoms: C_1  and  N_2
REMARK    2  A    between atoms: N_2  and  C_11
REMARK    3  A    between atoms: C_6  and  C_7
REMARK    4  A    between atoms: N_14  and  C_15
REMARK                            x       y       z     vdW  Elec       q    Type
REMARK                         _______ _______ _______ _____ _____    ______ ____
ROOT
ATOM      1  C   UNL     1       2.593   7.727  18.783  0.00  0.00    +0.000 C 
ATOM      2  C   UNL     1       1.669   8.562  17.885  0.00  0.00    +0.000 C 
ATOM      3  C   UNL     1       1.239   9.731  18.758  0.00  0.00    +0.000 C 
ATOM      4  N   UNL     1       1.195   9.153  20.086  0.00  0.00    +0.000 N 
ATOM      5  C   UNL     1       2.106   8.026  20.223  0.00  0.00    +0.000 C 
ENDROOT
BRANCH   4   6
ATOM      6  C   UNL     1       0.401   9.689  21.063  0.00  0.00    +0.000 A 
ATOM      7  N   UNL     1       0.468   9.142  22.311  0.00  0.00    +0.000 NA
ATOM      8  C   UNL     1      -0.277   9.653  23.309  0.00  0.00    +0.000 A 
ATOM      9  N   UNL     1      -1.143  10.672  23.250  0.00  0.00    +0.000 NA
ATOM     10  C   UNL     1      -1.204  11.179  22.013  0.00  0.00    +0.000 A 
ATOM     11  N   UNL     1      -2.023  12.213  21.652  0.00  0.00    +0.000 N 
ATOM     12  C   UNL     1      -1.866  12.489  20.321  0.00  0.00    +0.000 A 
ATOM     13  C   UNL     1      -0.914  11.626  19.829  0.00  0.00    +0.000 A 
ATOM     14  C   UNL     1      -0.487  10.774  20.896  0.00  0.00    +0.000 A 
ATOM     15  H   UNL     1      -2.655  12.675  22.292  0.00  0.00    +0.000 HD
ENDBRANCH   4   6
BRANCH   1  17
ATOM     16  C   UNL     1       1.944   5.342  19.356  0.00  0.00    +0.000 C 
ATOM     17  N   UNL     1       2.568   6.293  18.442  0.00  0.00    +0.000 N 
ATOM     18  C   UNL     1       3.553   5.795  17.604  0.00  0.00    +0.000 A 
ATOM     19  N   UNL     1       3.645   4.462  17.444  0.00  0.00    +0.000 NA
ATOM     20  C   UNL     1       4.472   3.975  16.497  0.00  0.00    +0.000 A 
ATOM     21  C   UNL     1       5.234   4.772  15.689  0.00  0.00    +0.000 A 
ATOM     22  C   UNL     1       5.146   6.115  15.959  0.00  0.00    +0.000 A 
ATOM     23  N   UNL     1       4.330   6.641  16.906  0.00  0.00    +0.000 NA
BRANCH  21  24
ATOM     24  C   UNL     1       6.012   4.244  14.625  0.00  0.00    +0.000 C 
ATOM     25  N   UNL     1       6.674   3.811  13.776  0.00  0.00    +0.000 NA
ENDBRANCH  21  24
ENDBRANCH   1  17
TORSDOF 3
ENDMDL
MODEL 5
REMARK VINA RESULT:      -6.6      1.455      8.234
REMARK  Name = 
REMARK  4 active torsions:
REMARK  status: ('A' for Active; 'I' for Inactive)
REMARK    1  A    between atoms: C_1  and  N_2
REMARK    2  A    between atoms: N_2  and  C_11
REMARK    3  A    between atoms: C_6  and  C_7
REMARK    4  A    between atoms: N_14  and  C_15
REMARK                            x       y       z     vdW  Elec       q    Type
REMARK                         _______ _______ _______ _____ _____    ______ ____
ROOT
ATOM      1  C   UNL     1       3.607   4.907  18.666  0.00  0.00    +0.000 C 
ATOM      2  C   UNL     1       3.292   4.490  20.111  0.00  0.00    +0.000 C 
ATOM      3  C   UNL     1       2.084   5.329  20.497  0.00  0.00    +0.000 C 
ATOM      4  N   UNL     1       2.290   6.562  19.766  0.00  0.00    +0.000 N 
ATOM      5  C   UNL     1       3.077   6.359  18.559  0.00  0.00    +0.000 C 
ENDROOT
BRANCH   4   6
ATOM      6  C   UNL     1       1.737   7.738  20.194  0.00  0.00    +0.000 A 
ATOM      7  N   UNL     1       1.300   7.807  21.485  0.00  0.00    +0.000 NA
ATOM      8  C   UNL     1       0.772   8.952  21.955  0.00  0.00    +0.000 A 
ATOM      9  N   UNL     1       0.582  10.102  21.297  0.00  0.00    +0.000 NA
ATOM     10  C   UNL     1       1.002  10.004  20.029  0.00  0.00    +0.000 A 
ATOM     11  N   UNL     1       0.910  11.017  19.115  0.00  0.00    +0.000 N 
ATOM     12  C   UNL     1       1.408  10.604  17.910  0.00  0.00    +0.000 A 
ATOM     13  C   UNL     1       1.843   9.308  18.065  0.00  0.00    +0.000 A 
ATOM     14  C   UNL     1       1.582   8.904  19.412  0.00  0.00    +0.000 A 
ATOM     15  H   UNL     1       0.512  11.923  19.323  0.00  0.00    +0.000 HD
ENDBRANCH   4   6
BRANCH   1  17
ATOM     16  C   UNL     1       6.042   5.252  19.290  0.00  0.00    +0.000 C 
ATOM     17  N   UNL     1       5.039   4.779  18.341  0.00  0.00    +0.000 N 
ATOM     18  C   UNL     1       5.414   4.743  17.007  0.00  0.00    +0.000 A 
ATOM     19  N   UNL     1       6.724   4.818  16.707  0.00  0.00    +0.000 NA
ATOM     20  C   UNL     1       7.114   4.599  15.436  0.00  0.00    +0.000 A 
ATOM     21  C   UNL     1       6.241   4.310  14.425  0.00  0.00    +0.000 A 
ATOM     22  C   UNL     1       4.917   4.323  14.788  0.00  0.00    +0.000 A 
ATOM     23  N   UNL     1       4.487   4.544  16.055  0.00  0.00    +0.000 NA
BRANCH  21  24
ATOM     24  C   UNL     1       6.683   3.973  13.119  0.00  0.00    +0.000 C 
ATOM     25  N   UNL     1       7.035   3.667  12.056  0.00  0.00    +0.000 NA
ENDBRANCH  21  24
ENDBRANCH   1  17
TORSDOF 3
ENDMDL
MODEL 6
REMARK VINA RESULT:      -6.6      3.811      6.994
REMARK  Name = 
REMARK  4 active torsions:
REMARK  status: ('A' for Active; 'I' for Inactive)
REMARK    1  A    between atoms: C_1  and  N_2
REMARK    2  A    between atoms: N_2  and  C_11
REMARK    3  A    between atoms: C_6  and  C_7
REMARK    4  A    between atoms: N_14  and  C_15
REMARK                            x       y       z     vdW  Elec       q    Type
REMARK                         _______ _______ _______ _____ _____    ______ ____
ROOT
ATOM      1  C   UNL     1       6.671   6.139  17.212  0.00  0.00    +0.000 C 
ATOM      2  C   UNL     1       6.942   4.749  16.617  0.00  0.00    +0.000 C 
ATOM      3  C   UNL     1       5.561   4.151  16.397  0.00  0.00    +0.000 C 
ATOM      4  N   UNL     1       4.782   4.710  17.482  0.00  0.00    +0.000 N 
ATOM      5  C   UNL     1       5.304   5.993  17.928  0.00  0.00    +0.000 C 
ENDROOT
BRANCH   4   6
ATOM      6  C   UNL     1       3.664   4.074  17.951  0.00  0.00    +0.000 A 
ATOM      7  N   UNL     1       3.315   2.888  17.375  0.00  0.00    +0.000 NA
ATOM      8  C   UNL     1       2.238   2.215  17.821  0.00  0.00    +0.000 A 
ATOM      9  N   UNL     1       1.393   2.570  18.796  0.00  0.00    +0.000 NA
ATOM     10  C   UNL     1       1.745   3.745  19.333  0.00  0.00    +0.000 A 
ATOM     11  N   UNL     1       1.050   4.365  20.334  0.00  0.00    +0.000 N 
ATOM     12  C   UNL     1       1.652   5.551  20.653  0.00  0.00    +0.000 A 
ATOM     13  C   UNL     1       2.764   5.679  19.852  0.00  0.00    +0.000 A 
ATOM     14  C   UNL     1       2.833   4.538  18.995  0.00  0.00    +0.000 A 
ATOM     15  H   UNL     1       0.208   3.987  20.747  0.00  0.00    +0.000 HD
ENDBRANCH   4   6
BRANCH   1  17
ATOM     16  C   UNL     1       8.147   5.770  19.243  0.00  0.00    +0.000 C 
ATOM     17  N   UNL     1       7.754   6.593  18.103  0.00  0.00    +0.000 N 
ATOM     18  C   UNL     1       8.002   7.952  18.204  0.00  0.00    +0.000 A 
ATOM     19  N   UNL     1       8.856   8.380  19.152  0.00  0.00    +0.000 NA
ATOM     20  C   UNL     1       9.247   9.670  19.143  0.00  0.00    +0.000 A 
ATOM     21  C   UNL     1       8.812  10.576  18.217  0.00  0.00    +0.000 A 
ATOM     22  C   UNL     1       7.887  10.089  17.327  0.00  0.00    +0.000 A 
ATOM     23  N   UNL     1       7.467   8.800  17.309  0.00  0.00    +0.000 NA
BRANCH  21  24
ATOM     24  C   UNL     1       9.322  11.899  18.158  0.00  0.00    +0.000 C 
ATOM     25  N   UNL     1       9.719  12.987  18.084  0.00  0.00    +0.000 NA
ENDBRANCH  21  24
ENDBRANCH   1  17
TORSDOF 3
ENDMDL
MODEL 7
REMARK VINA RESULT:      -6.5      3.660      7.698
REMARK  Name = 
REMARK  4 active torsions:
REMARK  status: ('A' for Active; 'I' for Inactive)
REMARK    1  A    between atoms: C_1  and  N_2
REMARK    2  A    between atoms: N_2  and  C_11
REMARK    3  A    between atoms: C_6  and  C_7
REMARK    4  A    between atoms: N_14  and  C_15
REMARK                            x       y       z     vdW  Elec       q    Type
REMARK                         _______ _______ _______ _____ _____    ______ ____
ROOT
ATOM      1  C   UNL     1       5.544   6.788  18.235  0.00  0.00    +0.000 C 
ATOM      2  C   UNL     1       4.254   7.063  17.446  0.00  0.00    +0.000 C 
ATOM      3  C   UNL     1       3.135   6.620  18.375  0.00  0.00    +0.000 C 
ATOM      4  N   UNL     1       3.724   5.511  19.097  0.00  0.00    +0.000 N 
ATOM      5  C   UNL     1       5.172   5.623  19.187  0.00  0.00    +0.000 C 
ENDROOT
BRANCH   4   6
ATOM      6  C   UNL     1       2.943   4.532  19.648  0.00  0.00    +0.000 A 
ATOM      7  N   UNL     1       2.552   4.681  20.947  0.00  0.00    +0.000 NA
ATOM      8  C   UNL     1       1.763   3.754  21.522  0.00  0.00    +0.000 A 
ATOM      9  N   UNL     1       1.288   2.627  20.979  0.00  0.00    +0.000 NA
ATOM     10  C   UNL     1       1.700   2.495  19.711  0.00  0.00    +0.000 A 
ATOM     11  N   UNL     1       1.388   1.426  18.917  0.00  0.00    +0.000 N 
ATOM     12  C   UNL     1       1.967   1.577  17.686  0.00  0.00    +0.000 A 
ATOM     13  C   UNL     1       2.645   2.775  17.692  0.00  0.00    +0.000 A 
ATOM     14  C   UNL     1       2.492   3.370  18.983  0.00  0.00    +0.000 A 
ATOM     15  H   UNL     1       0.825   0.645  19.225  0.00  0.00    +0.000 HD
ENDBRANCH   4   6
BRANCH   1  17
ATOM     16  C   UNL     1       7.893   7.305  17.429  0.00  0.00    +0.000 C 
ATOM     17  N   UNL     1       6.689   6.485  17.357  0.00  0.00    +0.000 N 
ATOM     18  C   UNL     1       6.448   5.839  16.155  0.00  0.00    +0.000 A 
ATOM     19  N   UNL     1       7.457   5.732  15.272  0.00  0.00    +0.000 NA
ATOM     20  C   UNL     1       7.292   4.951  14.185  0.00  0.00    +0.000 A 
ATOM     21  C   UNL     1       6.139   4.262  13.928  0.00  0.00    +0.000 A 
ATOM     22  C   UNL     1       5.128   4.478  14.831  0.00  0.00    +0.000 A 
ATOM     23  N   UNL     1       5.256   5.259  15.932  0.00  0.00    +0.000 NA
BRANCH  21  24
ATOM     24  C   UNL     1       6.026   3.359  12.839  0.00  0.00    +0.000 C 
ATOM     25  N   UNL     1       5.901   2.621  11.952  0.00  0.00    +0.000 NA
ENDBRANCH  21  24
ENDBRANCH   1  17
TORSDOF 3
ENDMDL
MODEL 8
REMARK VINA RESULT:      -6.5      2.134      3.527
REMARK  Name = 
REMARK  4 active torsions:
REMARK  status: ('A' for Active; 'I' for Inactive)
REMARK    1  A    between atoms: C_1  and  N_2
REMARK    2  A    between atoms: N_2  and  C_11
REMARK    3  A    between atoms: C_6  and  C_7
REMARK    4  A    between atoms: N_14  and  C_15
REMARK                            x       y       z     vdW  Elec       q    Type
REMARK                         _______ _______ _______ _____ _____    ______ ____
ROOT
ATOM      1  C   UNL     1       3.122   3.276  19.486  0.00  0.00    +0.000 C 
ATOM      2  C   UNL     1       2.294   3.284  18.192  0.00  0.00    +0.000 C 
ATOM      3  C   UNL     1       3.316   3.093  17.082  0.00  0.00    +0.000 C 
ATOM      4  N   UNL     1       4.493   3.763  17.597  0.00  0.00    +0.000 N 
ATOM      5  C   UNL     1       4.522   3.778  19.052  0.00  0.00    +0.000 C 
ENDROOT
BRANCH   4   6
ATOM      6  C   UNL     1       5.451   4.256  16.754  0.00  0.00    +0.000 A 
ATOM      7  N   UNL     1       5.655   3.611  15.570  0.00  0.00    +0.000 NA
ATOM      8  C   UNL     1       6.569   4.076  14.699  0.00  0.00    +0.000 A 
ATOM      9  N   UNL     1       7.374   5.136  14.840  0.00  0.00    +0.000 NA
ATOM     10  C   UNL     1       7.169   5.742  16.016  0.00  0.00    +0.000 A 
ATOM     11  N   UNL     1       7.866   6.839  16.442  0.00  0.00    +0.000 N 
ATOM     12  C   UNL     1       7.435   7.211  17.685  0.00  0.00    +0.000 A 
ATOM     13  C   UNL     1       6.430   6.345  18.051  0.00  0.00    +0.000 A 
ATOM     14  C   UNL     1       6.253   5.393  17.000  0.00  0.00    +0.000 A 
ATOM     15  H   UNL     1       8.599   7.279  15.902  0.00  0.00    +0.000 HD
ENDBRANCH   4   6
BRANCH   1  17
ATOM     16  C   UNL     1       1.832   3.436  21.665  0.00  0.00    +0.000 C 
ATOM     17  N   UNL     1       2.511   4.091  20.552  0.00  0.00    +0.000 N 
ATOM     18  C   UNL     1       2.104   5.380  20.248  0.00  0.00    +0.000 A 
ATOM     19  N   UNL     1       1.379   6.055  21.159  0.00  0.00    +0.000 NA
ATOM     20  C   UNL     1       1.135   7.365  20.956  0.00  0.00    +0.000 A 
ATOM     21  C   UNL     1       1.583   8.048  19.860  0.00  0.00    +0.000 A 
ATOM     22  C   UNL     1       2.250   7.280  18.938  0.00  0.00    +0.000 A 
ATOM     23  N   UNL     1       2.510   5.960  19.105  0.00  0.00    +0.000 NA
BRANCH  21  24
ATOM     24  C   UNL     1       1.410   9.450  19.721  0.00  0.00    +0.000 C 
ATOM     25  N   UNL     1       1.257  10.591  19.577  0.00  0.00    +0.000 NA
ENDBRANCH  21  24
ENDBRANCH   1  17
TORSDOF 3
ENDMDL
MODEL 9
REMARK VINA RESULT:      -6.4      2.367      8.771
REMARK  Name = 
REMARK  4 active torsions:
REMARK  status: ('A' for Active; 'I' for Inactive)
REMARK    1  A    between atoms: C_1  and  N_2
REMARK    2  A    between atoms: N_2  and  C_11
REMARK    3  A    between atoms: C_6  and  C_7
REMARK    4  A    between atoms: N_14  and  C_15
REMARK                            x       y       z     vdW  Elec       q    Type
REMARK                         _______ _______ _______ _____ _____    ______ ____
ROOT
ATOM      1  C   UNL     1       2.438   8.072  19.135  0.00  0.00    +0.000 C 
ATOM      2  C   UNL     1       2.434   8.817  17.791  0.00  0.00    +0.000 C 
ATOM      3  C   UNL     1       1.735  10.135  18.086  0.00  0.00    +0.000 C 
ATOM      4  N   UNL     1       0.772   9.777  19.107  0.00  0.00    +0.000 N 
ATOM      5  C   UNL     1       1.202   8.627  19.887  0.00  0.00    +0.000 C 
ENDROOT
BRANCH   4   6
ATOM      6  C   UNL     1      -0.368  10.512  19.293  0.00  0.00    +0.000 A 
ATOM      7  N   UNL     1      -0.459  11.275  20.420  0.00  0.00    +0.000 NA
ATOM      8  C   UNL     1      -1.551  12.033  20.631  0.00  0.00    +0.000 A 
ATOM      9  N   UNL     1      -2.639  12.142  19.859  0.00  0.00    +0.000 NA
ATOM     10  C   UNL     1      -2.533  11.371  18.769  0.00  0.00    +0.000 A 
ATOM     11  N   UNL     1      -3.505  11.263  17.813  0.00  0.00    +0.000 N 
ATOM     12  C   UNL     1      -3.106  10.391  16.839  0.00  0.00    +0.000 A 
ATOM     13  C   UNL     1      -1.846   9.948  17.171  0.00  0.00    +0.000 A 
ATOM     14  C   UNL     1      -1.468  10.557  18.408  0.00  0.00    +0.000 A 
ATOM     15  H   UNL     1      -4.387  11.756  17.856  0.00  0.00    +0.000 HD
ENDBRANCH   4   6
BRANCH   1  17
ATOM     16  C   UNL     1       1.836   5.769  20.013  0.00  0.00    +0.000 C 
ATOM     17  N   UNL     1       2.416   6.607  18.969  0.00  0.00    +0.000 N 
ATOM     18  C   UNL     1       3.375   6.019  18.161  0.00  0.00    +0.000 A 
ATOM     19  N   UNL     1       3.475   4.677  18.158  0.00  0.00    +0.000 NA
ATOM     20  C   UNL     1       4.271   4.085  17.245  0.00  0.00    +0.000 A 
ATOM     21  C   UNL     1       4.995   4.783  16.320  0.00  0.00    +0.000 A 
ATOM     22  C   UNL     1       4.903   6.148  16.430  0.00  0.00    +0.000 A 
ATOM     23  N   UNL     1       4.117   6.779  17.337  0.00  0.00    +0.000 NA
BRANCH  21  24
ATOM     24  C   UNL     1       5.739   4.136  15.299  0.00  0.00    +0.000 C 
ATOM     25  N   UNL     1       6.344   3.634  14.445  0.00  0.00    +0.000 NA
ENDBRANCH  21  24
ENDBRANCH   1  17
TORSDOF 3
ENDMDL
