MODEL 1
REMARK VINA RESULT:      -6.8      0.000      0.000
REMARK  Name = 
REMARK  23 active torsions:
REMARK  status: ('A' for Active; 'I' for Inactive)
REMARK    1  A    between atoms: C_1  and  C_2
REMARK    2  A    between atoms: C_2  and  C_3
REMARK    3  A    between atoms: C_3  and  C_4
REMARK    4  A    between atoms: C_4  and  C_5
REMARK    5  A    between atoms: C_5  and  C_6
REMARK    6  A    between atoms: C_6  and  C_7
REMARK    7  A    between atoms: C_7  and  C_8
REMARK    8  A    between atoms: C_8  and  C_9
REMARK    9  A    between atoms: C_9  and  C_10
REMARK   10  A    between atoms: C_10  and  C_11
REMARK   11  A    between atoms: C_11  and  C_12
REMARK   12  A    between atoms: C_12  and  C_13
REMARK   13  A    between atoms: C_13  and  C_14
REMARK   14  A    between atoms: C_14  and  C_15
REMARK   15  A    between atoms: C_15  and  O_16
REMARK   16  A    between atoms: C_17  and  C_18
REMARK   17  A    between atoms: C_19  and  C_20
REMARK   18  A    between atoms: N_22  and  C_23
REMARK   19  A    between atoms: C_23  and  C_24
REMARK   20  A    between atoms: N_26  and  C_27
REMARK   21  A    between atoms: C_27  and  C_28
REMARK   22  A    between atoms: C_28  and  C_29
REMARK   23  A    between atoms: C_29  and  C_30
REMARK                            x       y       z     vdW  Elec       q    Type
REMARK                         _______ _______ _______ _____ _____    ______ ____
ROOT
ATOM      1  C   UNL     1       2.010   6.271  19.636  0.00  0.00    +0.000 C 
ATOM      2  C   UNL     1       2.697   7.163  18.602  0.00  0.00    +0.000 C 
ATOM      3  C   UNL     1       2.404   8.570  18.248  0.00  0.00    +0.000 C 
ATOM      4  C   UNL     1       3.644   6.435  17.941  0.00  0.00    +0.000 C 
ATOM      5  C   UNL     1       4.416   6.867  16.759  0.00  0.00    +0.000 C 
ATOM      6  C   UNL     1       3.499   5.014  18.374  0.00  0.00    +0.000 C 
ATOM      7  N   UNL     1       4.292   4.105  17.921  0.00  0.00    +0.000 N 
ATOM      8  C   UNL     1       3.823   2.750  17.584  0.00  0.00    +0.000 C 
ATOM      9  C   UNL     1       2.349   2.579  17.967  0.00  0.00    +0.000 C 
ATOM     10  C   UNL     1       1.506   3.895  18.118  0.00  0.00    +0.000 C 
ATOM     11  N   UNL     1       2.241   4.911  18.908  0.00  0.00    +0.000 N 
ENDROOT
BRANCH   1  12
ATOM     12  O   UNL     1       2.979   6.146  20.714  0.00  0.00    +0.000 OA
ATOM     13  H   UNL     1       3.185   7.035  21.060  0.00  0.00    +0.000 HD
ENDBRANCH   1  12
BRANCH   7  14
ATOM     14  C   UNL     1       5.760   4.283  18.188  0.00  0.00    +0.000 C 
BRANCH  14  15
ATOM     15  C   UNL     1       6.572   4.404  16.875  0.00  0.00    +0.000 C 
ATOM     16  O   UNL     1       7.604   5.052  16.831  0.00  0.00    +0.000 OA
ATOM     17  N   UNL     1       6.052   3.795  15.748  0.00  0.00    +0.000 N 
ATOM     18  H   UNL     1       5.125   3.368  15.731  0.00  0.00    +0.000 HD
BRANCH  17  19
ATOM     19  C   UNL     1       6.682   4.001  14.453  0.00  0.00    +0.000 C 
BRANCH  19  20
ATOM     20  C   UNL     1       5.688   3.888  13.304  0.00  0.00    +0.000 C 
BRANCH  20  21
ATOM     21  C   UNL     1       6.376   3.353  12.047  0.00  0.00    +0.000 C 
ATOM     22  C   UNL     1       5.653   2.119  11.543  0.00  0.00    +0.000 C 
ENDBRANCH  20  21
ENDBRANCH  19  20
ENDBRANCH  17  19
ENDBRANCH  14  15
ENDBRANCH   7  14
BRANCH   1  23
ATOM     23  C   UNL     1       0.736   6.936  20.455  0.00  0.00    +0.000 C 
BRANCH  23  24
ATOM     24  C   UNL     1       0.970   8.286  21.337  0.00  0.00    +0.000 C 
BRANCH  24  25
ATOM     25  C   UNL     1      -0.175   9.376  21.557  0.00  0.00    +0.000 C 
BRANCH  25  26
ATOM     26  C   UNL     1      -0.283  10.024  22.996  0.00  0.00    +0.000 C 
BRANCH  26  27
ATOM     27  C   UNL     1      -1.355  11.157  23.108  0.00  0.00    +0.000 C 
BRANCH  27  28
ATOM     28  C   UNL     1      -1.633  11.988  21.835  0.00  0.00    +0.000 C 
BRANCH  28  29
ATOM     29  C   UNL     1      -0.466  12.919  21.478  0.00  0.00    +0.000 C 
BRANCH  29  30
ATOM     30  C   UNL     1      -0.428  13.322  19.998  0.00  0.00    +0.000 C 
BRANCH  30  31
ATOM     31  C   UNL     1      -1.161  12.303  19.113  0.00  0.00    +0.000 C 
BRANCH  31  32
ATOM     32  C   UNL     1      -0.197  11.267  18.526  0.00  0.00    +0.000 C 
BRANCH  32  33
ATOM     33  C   UNL     1      -0.948  10.143  17.804  0.00  0.00    +0.000 C 
BRANCH  33  34
ATOM     34  C   UNL     1      -2.410  10.071  18.247  0.00  0.00    +0.000 C 
BRANCH  34  36
ATOM     35  C   UNL     1      -2.630   9.892  15.740  0.00  0.00    +0.000 C 
ATOM     36  C   UNL     1      -3.360  10.144  17.051  0.00  0.00    +0.000 C 
ENDBRANCH  34  36
ENDBRANCH  33  34
ENDBRANCH  32  33
ENDBRANCH  31  32
ENDBRANCH  30  31
ENDBRANCH  29  30
ENDBRANCH  28  29
ENDBRANCH  27  28
ENDBRANCH  26  27
ENDBRANCH  25  26
ENDBRANCH  24  25
ENDBRANCH  23  24
ENDBRANCH   1  23
TORSDOF 19
ENDMDL
MODEL 2
REMARK VINA RESULT:      -6.5      3.777     10.583
REMARK  Name = 
REMARK  23 active torsions:
REMARK  status: ('A' for Active; 'I' for Inactive)
REMARK    1  A    between atoms: C_1  and  C_2
REMARK    2  A    between atoms: C_2  and  C_3
REMARK    3  A    between atoms: C_3  and  C_4
REMARK    4  A    between atoms: C_4  and  C_5
REMARK    5  A    between atoms: C_5  and  C_6
REMARK    6  A    between atoms: C_6  and  C_7
REMARK    7  A    between atoms: C_7  and  C_8
REMARK    8  A    between atoms: C_8  and  C_9
REMARK    9  A    between atoms: C_9  and  C_10
REMARK   10  A    between atoms: C_10  and  C_11
REMARK   11  A    between atoms: C_11  and  C_12
REMARK   12  A    between atoms: C_12  and  C_13
REMARK   13  A    between atoms: C_13  and  C_14
REMARK   14  A    between atoms: C_14  and  C_15
REMARK   15  A    between atoms: C_15  and  O_16
REMARK   16  A    between atoms: C_17  and  C_18
REMARK   17  A    between atoms: C_19  and  C_20
REMARK   18  A    between atoms: N_22  and  C_23
REMARK   19  A    between atoms: C_23  and  C_24
REMARK   20  A    between atoms: N_26  and  C_27
REMARK   21  A    between atoms: C_27  and  C_28
REMARK   22  A    between atoms: C_28  and  C_29
REMARK   23  A    between atoms: C_29  and  C_30
REMARK                            x       y       z     vdW  Elec       q    Type
REMARK                         _______ _______ _______ _____ _____    ______ ____
ROOT
ATOM      1  C   UNL     1       0.731   9.955  18.854  0.00  0.00    +0.000 C 
ATOM      2  C   UNL     1       1.300  11.369  18.970  0.00  0.00    +0.000 C 
ATOM      3  C   UNL     1       2.344  12.022  18.148  0.00  0.00    +0.000 C 
ATOM      4  C   UNL     1       0.736  11.991  20.046  0.00  0.00    +0.000 C 
ATOM      5  C   UNL     1       1.127  13.299  20.608  0.00  0.00    +0.000 C 
ATOM      6  C   UNL     1      -0.072  10.972  20.779  0.00  0.00    +0.000 C 
ATOM      7  N   UNL     1      -0.740  11.297  21.832  0.00  0.00    +0.000 N 
ATOM      8  C   UNL     1      -0.846  10.406  23.001  0.00  0.00    +0.000 C 
ATOM      9  C   UNL     1      -0.176   9.058  22.714  0.00  0.00    +0.000 C 
ATOM     10  C   UNL     1       0.889   9.035  21.562  0.00  0.00    +0.000 C 
ATOM     11  N   UNL     1       0.395   9.753  20.363  0.00  0.00    +0.000 N 
ENDROOT
BRANCH   1  12
ATOM     12  O   UNL     1      -0.610  10.140  18.320  0.00  0.00    +0.000 OA
ATOM     13  H   UNL     1      -0.549  10.609  17.466  0.00  0.00    +0.000 HD
ENDBRANCH   1  12
BRANCH   7  14
ATOM     14  C   UNL     1      -1.790  12.361  21.676  0.00  0.00    +0.000 C 
BRANCH  14  15
ATOM     15  C   UNL     1      -2.047  13.114  23.004  0.00  0.00    +0.000 C 
ATOM     16  O   UNL     1      -3.078  12.947  23.632  0.00  0.00    +0.000 OA
ATOM     17  N   UNL     1      -1.086  14.019  23.418  0.00  0.00    +0.000 N 
ATOM     18  H   UNL     1      -0.285  14.274  22.839  0.00  0.00    +0.000 HD
BRANCH  17  19
ATOM     19  C   UNL     1      -1.337  14.870  24.571  0.00  0.00    +0.000 C 
BRANCH  19  20
ATOM     20  C   UNL     1      -1.112  16.344  24.258  0.00  0.00    +0.000 C 
BRANCH  20  21
ATOM     21  C   UNL     1      -0.404  17.040  25.422  0.00  0.00    +0.000 C 
ATOM     22  C   UNL     1      -0.513  16.196  26.677  0.00  0.00    +0.000 C 
ENDBRANCH  20  21
ENDBRANCH  19  20
ENDBRANCH  17  19
ENDBRANCH  14  15
ENDBRANCH   7  14
BRANCH   1  23
ATOM     23  C   UNL     1       1.388   8.989  17.681  0.00  0.00    +0.000 C 
BRANCH  23  24
ATOM     24  C   UNL     1       2.787   8.209  17.979  0.00  0.00    +0.000 C 
BRANCH  24  25
ATOM     25  C   UNL     1       2.927   7.111  19.129  0.00  0.00    +0.000 C 
BRANCH  25  26
ATOM     26  C   UNL     1       1.770   6.039  19.244  0.00  0.00    +0.000 C 
BRANCH  26  27
ATOM     27  C   UNL     1       1.620   5.410  20.667  0.00  0.00    +0.000 C 
BRANCH  27  28
ATOM     28  C   UNL     1       1.350   3.890  20.739  0.00  0.00    +0.000 C 
BRANCH  28  29
ATOM     29  C   UNL     1       1.235   3.250  19.349  0.00  0.00    +0.000 C 
BRANCH  29  30
ATOM     30  C   UNL     1       2.231   2.108  19.110  0.00  0.00    +0.000 C 
BRANCH  30  31
ATOM     31  C   UNL     1       2.788   2.132  17.679  0.00  0.00    +0.000 C 
BRANCH  31  32
ATOM     32  C   UNL     1       2.846   3.556  17.118  0.00  0.00    +0.000 C 
BRANCH  32  33
ATOM     33  C   UNL     1       4.232   4.181  17.306  0.00  0.00    +0.000 C 
BRANCH  33  34
ATOM     34  C   UNL     1       5.173   3.815  16.157  0.00  0.00    +0.000 C 
BRANCH  34  36
ATOM     35  C   UNL     1       5.142   6.335  16.056  0.00  0.00    +0.000 C 
ATOM     36  C   UNL     1       5.629   5.057  15.391  0.00  0.00    +0.000 C 
ENDBRANCH  34  36
ENDBRANCH  33  34
ENDBRANCH  32  33
ENDBRANCH  31  32
ENDBRANCH  30  31
ENDBRANCH  29  30
ENDBRANCH  28  29
ENDBRANCH  27  28
ENDBRANCH  26  27
ENDBRANCH  25  26
ENDBRANCH  24  25
ENDBRANCH  23  24
ENDBRANCH   1  23
TORSDOF 19
ENDMDL
MODEL 3
REMARK VINA RESULT:      -6.3      3.617      9.465
REMARK  Name = 
REMARK  23 active torsions:
REMARK  status: ('A' for Active; 'I' for Inactive)
REMARK    1  A    between atoms: C_1  and  C_2
REMARK    2  A    between atoms: C_2  and  C_3
REMARK    3  A    between atoms: C_3  and  C_4
REMARK    4  A    between atoms: C_4  and  C_5
REMARK    5  A    between atoms: C_5  and  C_6
REMARK    6  A    between atoms: C_6  and  C_7
REMARK    7  A    between atoms: C_7  and  C_8
REMARK    8  A    between atoms: C_8  and  C_9
REMARK    9  A    between atoms: C_9  and  C_10
REMARK   10  A    between atoms: C_10  and  C_11
REMARK   11  A    between atoms: C_11  and  C_12
REMARK   12  A    between atoms: C_12  and  C_13
REMARK   13  A    between atoms: C_13  and  C_14
REMARK   14  A    between atoms: C_14  and  C_15
REMARK   15  A    between atoms: C_15  and  O_16
REMARK   16  A    between atoms: C_17  and  C_18
REMARK   17  A    between atoms: C_19  and  C_20
REMARK   18  A    between atoms: N_22  and  C_23
REMARK   19  A    between atoms: C_23  and  C_24
REMARK   20  A    between atoms: N_26  and  C_27
REMARK   21  A    between atoms: C_27  and  C_28
REMARK   22  A    between atoms: C_28  and  C_29
REMARK   23  A    between atoms: C_29  and  C_30
REMARK                            x       y       z     vdW  Elec       q    Type
REMARK                         _______ _______ _______ _____ _____    ______ ____
ROOT
ATOM      1  C   UNL     1       0.904   9.644  18.731  0.00  0.00    +0.000 C 
ATOM      2  C   UNL     1       0.869   9.159  20.181  0.00  0.00    +0.000 C 
ATOM      3  C   UNL     1       1.472   7.943  20.769  0.00  0.00    +0.000 C 
ATOM      4  C   UNL     1       0.101  10.012  20.919  0.00  0.00    +0.000 C 
ATOM      5  C   UNL     1      -0.326   9.820  22.319  0.00  0.00    +0.000 C 
ATOM      6  C   UNL     1      -0.541  10.970  19.972  0.00  0.00    +0.000 C 
ATOM      7  N   UNL     1      -1.308  11.911  20.407  0.00  0.00    +0.000 N 
ATOM      8  C   UNL     1      -2.533  12.317  19.697  0.00  0.00    +0.000 C 
ATOM      9  C   UNL     1      -2.660  11.566  18.367  0.00  0.00    +0.000 C 
ATOM     10  C   UNL     1      -1.858  10.223  18.240  0.00  0.00    +0.000 C 
ATOM     11  N   UNL     1      -0.470  10.381  18.737  0.00  0.00    +0.000 N 
ENDROOT
BRANCH   1  12
ATOM     12  O   UNL     1       1.803  10.788  18.747  0.00  0.00    +0.000 OA
ATOM     13  H   UNL     1       1.841  11.148  19.654  0.00  0.00    +0.000 HD
ENDBRANCH   1  12
BRANCH   7  14
ATOM     14  C   UNL     1      -0.703  12.898  21.366  0.00  0.00    +0.000 C 
BRANCH  14  15
ATOM     15  C   UNL     1       0.066  14.019  20.625  0.00  0.00    +0.000 C 
ATOM     16  O   UNL     1      -0.186  15.195  20.829  0.00  0.00    +0.000 OA
ATOM     17  N   UNL     1       1.006  13.633  19.688  0.00  0.00    +0.000 N 
ATOM     18  H   UNL     1       1.133  12.661  19.404  0.00  0.00    +0.000 HD
BRANCH  17  19
ATOM     19  C   UNL     1       1.650  14.632  18.848  0.00  0.00    +0.000 C 
BRANCH  19  20
ATOM     20  C   UNL     1       2.924  14.106  18.200  0.00  0.00    +0.000 C 
BRANCH  20  21
ATOM     21  C   UNL     1       3.859  15.260  17.835  0.00  0.00    +0.000 C 
ATOM     22  C   UNL     1       5.296  14.776  17.800  0.00  0.00    +0.000 C 
ENDBRANCH  20  21
ENDBRANCH  19  20
ENDBRANCH  17  19
ENDBRANCH  14  15
ENDBRANCH   7  14
BRANCH   1  23
ATOM     23  C   UNL     1       1.683   8.668  17.645  0.00  0.00    +0.000 C 
BRANCH  23  24
ATOM     24  C   UNL     1       3.069   7.933  18.083  0.00  0.00    +0.000 C 
BRANCH  24  25
ATOM     25  C   UNL     1       4.107   7.356  17.017  0.00  0.00    +0.000 C 
BRANCH  25  26
ATOM     26  C   UNL     1       5.567   7.036  17.536  0.00  0.00    +0.000 C 
BRANCH  26  27
ATOM     27  C   UNL     1       6.418   6.168  16.553  0.00  0.00    +0.000 C 
BRANCH  27  28
ATOM     28  C   UNL     1       6.506   4.653  16.850  0.00  0.00    +0.000 C 
BRANCH  28  29
ATOM     29  C   UNL     1       5.485   3.839  16.045  0.00  0.00    +0.000 C 
BRANCH  29  30
ATOM     30  C   UNL     1       4.084   3.813  16.669  0.00  0.00    +0.000 C 
BRANCH  30  31
ATOM     31  C   UNL     1       4.129   3.398  18.147  0.00  0.00    +0.000 C 
BRANCH  31  32
ATOM     32  C   UNL     1       3.390   4.400  19.040  0.00  0.00    +0.000 C 
BRANCH  32  33
ATOM     33  C   UNL     1       1.878   4.365  18.795  0.00  0.00    +0.000 C 
BRANCH  33  34
ATOM     34  C   UNL     1       1.099   4.303  20.111  0.00  0.00    +0.000 C 
BRANCH  34  36
ATOM     35  C   UNL     1       1.975   2.735  21.881  0.00  0.00    +0.000 C 
ATOM     36  C   UNL     1       1.063   2.882  20.672  0.00  0.00    +0.000 C 
ENDBRANCH  34  36
ENDBRANCH  33  34
ENDBRANCH  32  33
ENDBRANCH  31  32
ENDBRANCH  30  31
ENDBRANCH  29  30
ENDBRANCH  28  29
ENDBRANCH  27  28
ENDBRANCH  26  27
ENDBRANCH  25  26
ENDBRANCH  24  25
ENDBRANCH  23  24
ENDBRANCH   1  23
TORSDOF 19
ENDMDL
MODEL 4
REMARK VINA RESULT:      -6.3      6.933     10.737
REMARK  Name = 
REMARK  23 active torsions:
REMARK  status: ('A' for Active; 'I' for Inactive)
REMARK    1  A    between atoms: C_1  and  C_2
REMARK    2  A    between atoms: C_2  and  C_3
REMARK    3  A    between atoms: C_3  and  C_4
REMARK    4  A    between atoms: C_4  and  C_5
REMARK    5  A    between atoms: C_5  and  C_6
REMARK    6  A    between atoms: C_6  and  C_7
REMARK    7  A    between atoms: C_7  and  C_8
REMARK    8  A    between atoms: C_8  and  C_9
REMARK    9  A    between atoms: C_9  and  C_10
REMARK   10  A    between atoms: C_10  and  C_11
REMARK   11  A    between atoms: C_11  and  C_12
REMARK   12  A    between atoms: C_12  and  C_13
REMARK   13  A    between atoms: C_13  and  C_14
REMARK   14  A    between atoms: C_14  and  C_15
REMARK   15  A    between atoms: C_15  and  O_16
REMARK   16  A    between atoms: C_17  and  C_18
REMARK   17  A    between atoms: C_19  and  C_20
REMARK   18  A    between atoms: N_22  and  C_23
REMARK   19  A    between atoms: C_23  and  C_24
REMARK   20  A    between atoms: N_26  and  C_27
REMARK   21  A    between atoms: C_27  and  C_28
REMARK   22  A    between atoms: C_28  and  C_29
REMARK   23  A    between atoms: C_29  and  C_30
REMARK                            x       y       z     vdW  Elec       q    Type
REMARK                         _______ _______ _______ _____ _____    ______ ____
ROOT
ATOM      1  C   UNL     1       9.316  12.315  18.506  0.00  0.00    +0.000 C 
ATOM      2  C   UNL     1      10.358  13.304  17.980  0.00  0.00    +0.000 C 
ATOM      3  C   UNL     1      11.655  13.026  17.324  0.00  0.00    +0.000 C 
ATOM      4  C   UNL     1       9.953  14.575  18.268  0.00  0.00    +0.000 C 
ATOM      5  C   UNL     1      10.741  15.809  18.085  0.00  0.00    +0.000 C 
ATOM      6  C   UNL     1       8.746  14.474  19.139  0.00  0.00    +0.000 C 
ATOM      7  N   UNL     1       8.136  15.536  19.543  0.00  0.00    +0.000 N 
ATOM      8  C   UNL     1       7.575  15.651  20.900  0.00  0.00    +0.000 C 
ATOM      9  C   UNL     1       7.716  14.325  21.657  0.00  0.00    +0.000 C 
ATOM     10  C   UNL     1       8.816  13.334  21.136  0.00  0.00    +0.000 C 
ATOM     11  N   UNL     1       8.764  13.207  19.660  0.00  0.00    +0.000 N 
ENDROOT
BRANCH   1  12
ATOM     12  O   UNL     1       8.212  12.410  17.564  0.00  0.00    +0.000 OA
ATOM     13  H   UNL     1       8.366  11.785  16.830  0.00  0.00    +0.000 HD
ENDBRANCH   1  12
BRANCH   7  14
ATOM     14  C   UNL     1       7.587  16.453  18.487  0.00  0.00    +0.000 C 
BRANCH  14  15
ATOM     15  C   UNL     1       6.115  16.839  18.770  0.00  0.00    +0.000 C 
ATOM     16  O   UNL     1       5.831  17.918  19.261  0.00  0.00    +0.000 OA
ATOM     17  N   UNL     1       5.145  15.891  18.497  0.00  0.00    +0.000 N 
ATOM     18  H   UNL     1       5.373  14.935  18.218  0.00  0.00    +0.000 HD
BRANCH  17  19
ATOM     19  C   UNL     1       3.763  16.130  18.885  0.00  0.00    +0.000 C 
BRANCH  19  20
ATOM     20  C   UNL     1       2.797  15.186  18.183  0.00  0.00    +0.000 C 
BRANCH  20  21
ATOM     21  C   UNL     1       3.045  13.740  18.617  0.00  0.00    +0.000 C 
ATOM     22  C   UNL     1       1.822  12.892  18.328  0.00  0.00    +0.000 C 
ENDBRANCH  20  21
ENDBRANCH  19  20
ENDBRANCH  17  19
ENDBRANCH  14  15
ENDBRANCH   7  14
BRANCH   1  23
ATOM     23  C   UNL     1       9.689  10.709  18.369  0.00  0.00    +0.000 C 
BRANCH  23  24
ATOM     24  C   UNL     1       8.539   9.594  18.666  0.00  0.00    +0.000 C 
BRANCH  24  25
ATOM     25  C   UNL     1       7.945   8.651  17.524  0.00  0.00    +0.000 C 
BRANCH  25  26
ATOM     26  C   UNL     1       7.464   7.208  17.961  0.00  0.00    +0.000 C 
BRANCH  26  27
ATOM     27  C   UNL     1       7.174   6.242  16.767  0.00  0.00    +0.000 C 
BRANCH  27  28
ATOM     28  C   UNL     1       5.744   6.258  16.181  0.00  0.00    +0.000 C 
BRANCH  28  29
ATOM     29  C   UNL     1       4.695   6.699  17.210  0.00  0.00    +0.000 C 
BRANCH  29  30
ATOM     30  C   UNL     1       3.820   5.552  17.732  0.00  0.00    +0.000 C 
BRANCH  30  31
ATOM     31  C   UNL     1       2.467   6.061  18.251  0.00  0.00    +0.000 C 
BRANCH  31  32
ATOM     32  C   UNL     1       2.574   6.594  19.683  0.00  0.00    +0.000 C 
BRANCH  32  33
ATOM     33  C   UNL     1       1.696   5.793  20.650  0.00  0.00    +0.000 C 
BRANCH  33  34
ATOM     34  C   UNL     1       2.169   4.342  20.766  0.00  0.00    +0.000 C 
BRANCH  34  36
ATOM     35  C   UNL     1       1.641   2.330  19.340  0.00  0.00    +0.000 C 
ATOM     36  C   UNL     1       1.087   3.364  20.308  0.00  0.00    +0.000 C 
ENDBRANCH  34  36
ENDBRANCH  33  34
ENDBRANCH  32  33
ENDBRANCH  31  32
ENDBRANCH  30  31
ENDBRANCH  29  30
ENDBRANCH  28  29
ENDBRANCH  27  28
ENDBRANCH  26  27
ENDBRANCH  25  26
ENDBRANCH  24  25
ENDBRANCH  23  24
ENDBRANCH   1  23
TORSDOF 19
ENDMDL
MODEL 5
REMARK VINA RESULT:      -6.3      3.527      9.416
REMARK  Name = 
REMARK  23 active torsions:
REMARK  status: ('A' for Active; 'I' for Inactive)
REMARK    1  A    between atoms: C_1  and  C_2
REMARK    2  A    between atoms: C_2  and  C_3
REMARK    3  A    between atoms: C_3  and  C_4
REMARK    4  A    between atoms: C_4  and  C_5
REMARK    5  A    between atoms: C_5  and  C_6
REMARK    6  A    between atoms: C_6  and  C_7
REMARK    7  A    between atoms: C_7  and  C_8
REMARK    8  A    between atoms: C_8  and  C_9
REMARK    9  A    between atoms: C_9  and  C_10
REMARK   10  A    between atoms: C_10  and  C_11
REMARK   11  A    between atoms: C_11  and  C_12
REMARK   12  A    between atoms: C_12  and  C_13
REMARK   13  A    between atoms: C_13  and  C_14
REMARK   14  A    between atoms: C_14  and  C_15
REMARK   15  A    between atoms: C_15  and  O_16
REMARK   16  A    between atoms: C_17  and  C_18
REMARK   17  A    between atoms: C_19  and  C_20
REMARK   18  A    between atoms: N_22  and  C_23
REMARK   19  A    between atoms: C_23  and  C_24
REMARK   20  A    between atoms: N_26  and  C_27
REMARK   21  A    between atoms: C_27  and  C_28
REMARK   22  A    between atoms: C_28  and  C_29
REMARK   23  A    between atoms: C_29  and  C_30
REMARK                            x       y       z     vdW  Elec       q    Type
REMARK                         _______ _______ _______ _____ _____    ______ ____
ROOT
ATOM      1  C   UNL     1       0.618   9.973  19.332  0.00  0.00    +0.000 C 
ATOM      2  C   UNL     1       1.279  11.332  19.099  0.00  0.00    +0.000 C 
ATOM      3  C   UNL     1       2.484  11.654  18.303  0.00  0.00    +0.000 C 
ATOM      4  C   UNL     1       0.615  12.282  19.820  0.00  0.00    +0.000 C 
ATOM      5  C   UNL     1       1.026  13.687  20.007  0.00  0.00    +0.000 C 
ATOM      6  C   UNL     1      -0.375  11.576  20.685  0.00  0.00    +0.000 C 
ATOM      7  N   UNL     1      -1.163  12.241  21.458  0.00  0.00    +0.000 N 
ATOM      8  C   UNL     1      -1.515  11.773  22.810  0.00  0.00    +0.000 C 
ATOM      9  C   UNL     1      -0.926  10.383  23.070  0.00  0.00    +0.000 C 
ATOM     10  C   UNL     1       0.294   9.960  22.178  0.00  0.00    +0.000 C 
ATOM     11  N   UNL     1       0.045  10.273  20.751  0.00  0.00    +0.000 N 
ENDROOT
BRANCH   1  12
ATOM     12  O   UNL     1      -0.608  10.022  18.550  0.00  0.00    +0.000 OA
ATOM     13  H   UNL     1      -1.275  10.542  19.038  0.00  0.00    +0.000 HD
ENDBRANCH   1  12
BRANCH   7  14
ATOM     14  C   UNL     1      -2.085  13.233  20.807  0.00  0.00    +0.000 C 
BRANCH  14  15
ATOM     15  C   UNL     1      -3.217  12.531  20.016  0.00  0.00    +0.000 C 
ATOM     16  O   UNL     1      -4.292  12.290  20.538  0.00  0.00    +0.000 OA
ATOM     17  N   UNL     1      -2.939  12.142  18.719  0.00  0.00    +0.000 N 
ATOM     18  H   UNL     1      -2.005  12.209  18.312  0.00  0.00    +0.000 HD
BRANCH  17  19
ATOM     19  C   UNL     1      -3.902  11.341  17.977  0.00  0.00    +0.000 C 
BRANCH  19  20
ATOM     20  C   UNL     1      -3.727  11.481  16.470  0.00  0.00    +0.000 C 
BRANCH  20  21
ATOM     21  C   UNL     1      -3.068  10.229  15.887  0.00  0.00    +0.000 C 
ATOM     22  C   UNL     1      -3.481  10.050  14.439  0.00  0.00    +0.000 C 
ENDBRANCH  20  21
ENDBRANCH  19  20
ENDBRANCH  17  19
ENDBRANCH  14  15
ENDBRANCH   7  14
BRANCH   1  23
ATOM     23  C   UNL     1       1.359   8.664  18.643  0.00  0.00    +0.000 C 
BRANCH  23  24
ATOM     24  C   UNL     1       2.318   7.716  19.557  0.00  0.00    +0.000 C 
BRANCH  24  25
ATOM     25  C   UNL     1       1.736   6.587  20.523  0.00  0.00    +0.000 C 
BRANCH  25  26
ATOM     26  C   UNL     1       1.325   5.212  19.856  0.00  0.00    +0.000 C 
BRANCH  26  27
ATOM     27  C   UNL     1       1.478   3.974  20.799  0.00  0.00    +0.000 C 
BRANCH  27  28
ATOM     28  C   UNL     1       2.758   3.123  20.638  0.00  0.00    +0.000 C 
BRANCH  28  29
ATOM     29  C   UNL     1       2.599   2.019  19.585  0.00  0.00    +0.000 C 
BRANCH  29  30
ATOM     30  C   UNL     1       2.263   2.545  18.183  0.00  0.00    +0.000 C 
BRANCH  30  31
ATOM     31  C   UNL     1       3.484   3.194  17.514  0.00  0.00    +0.000 C 
BRANCH  31  32
ATOM     32  C   UNL     1       3.325   4.713  17.399  0.00  0.00    +0.000 C 
BRANCH  32  33
ATOM     33  C   UNL     1       4.669   5.434  17.548  0.00  0.00    +0.000 C 
BRANCH  33  34
ATOM     34  C   UNL     1       4.993   6.277  16.313  0.00  0.00    +0.000 C 
BRANCH  34  36
ATOM     35  C   UNL     1       6.683   4.490  15.755  0.00  0.00    +0.000 C 
ATOM     36  C   UNL     1       5.619   5.429  15.207  0.00  0.00    +0.000 C 
ENDBRANCH  34  36
ENDBRANCH  33  34
ENDBRANCH  32  33
ENDBRANCH  31  32
ENDBRANCH  30  31
ENDBRANCH  29  30
ENDBRANCH  28  29
ENDBRANCH  27  28
ENDBRANCH  26  27
ENDBRANCH  25  26
ENDBRANCH  24  25
ENDBRANCH  23  24
ENDBRANCH   1  23
TORSDOF 19
ENDMDL
MODEL 6
REMARK VINA RESULT:      -6.3      3.361      9.615
REMARK  Name = 
REMARK  23 active torsions:
REMARK  status: ('A' for Active; 'I' for Inactive)
REMARK    1  A    between atoms: C_1  and  C_2
REMARK    2  A    between atoms: C_2  and  C_3
REMARK    3  A    between atoms: C_3  and  C_4
REMARK    4  A    between atoms: C_4  and  C_5
REMARK    5  A    between atoms: C_5  and  C_6
REMARK    6  A    between atoms: C_6  and  C_7
REMARK    7  A    between atoms: C_7  and  C_8
REMARK    8  A    between atoms: C_8  and  C_9
REMARK    9  A    between atoms: C_9  and  C_10
REMARK   10  A    between atoms: C_10  and  C_11
REMARK   11  A    between atoms: C_11  and  C_12
REMARK   12  A    between atoms: C_12  and  C_13
REMARK   13  A    between atoms: C_13  and  C_14
REMARK   14  A    between atoms: C_14  and  C_15
REMARK   15  A    between atoms: C_15  and  O_16
REMARK   16  A    between atoms: C_17  and  C_18
REMARK   17  A    between atoms: C_19  and  C_20
REMARK   18  A    between atoms: N_22  and  C_23
REMARK   19  A    between atoms: C_23  and  C_24
REMARK   20  A    between atoms: N_26  and  C_27
REMARK   21  A    between atoms: C_27  and  C_28
REMARK   22  A    between atoms: C_28  and  C_29
REMARK   23  A    between atoms: C_29  and  C_30
REMARK                            x       y       z     vdW  Elec       q    Type
REMARK                         _______ _______ _______ _____ _____    ______ ____
ROOT
ATOM      1  C   UNL     1       0.753  10.057  19.111  0.00  0.00    +0.000 C 
ATOM      2  C   UNL     1       1.441  11.392  18.823  0.00  0.00    +0.000 C 
ATOM      3  C   UNL     1       2.614  11.667  17.963  0.00  0.00    +0.000 C 
ATOM      4  C   UNL     1       0.841  12.372  19.560  0.00  0.00    +0.000 C 
ATOM      5  C   UNL     1       1.301  13.767  19.703  0.00  0.00    +0.000 C 
ATOM      6  C   UNL     1      -0.125  11.709  20.485  0.00  0.00    +0.000 C 
ATOM      7  N   UNL     1      -0.854  12.408  21.285  0.00  0.00    +0.000 N 
ATOM      8  C   UNL     1      -1.151  11.972  22.661  0.00  0.00    +0.000 C 
ATOM      9  C   UNL     1      -0.590  10.568  22.914  0.00  0.00    +0.000 C 
ATOM     10  C   UNL     1       0.571  10.096  21.970  0.00  0.00    +0.000 C 
ATOM     11  N   UNL     1       0.261  10.396  20.551  0.00  0.00    +0.000 N 
ENDROOT
BRANCH   1  12
ATOM     12  O   UNL     1      -0.509  10.130  18.390  0.00  0.00    +0.000 OA
ATOM     13  H   UNL     1      -0.332  10.401  17.469  0.00  0.00    +0.000 HD
ENDBRANCH   1  12
BRANCH   7  14
ATOM     14  C   UNL     1      -1.778  13.417  20.664  0.00  0.00    +0.000 C 
BRANCH  14  15
ATOM     15  C   UNL     1      -3.101  12.767  20.188  0.00  0.00    +0.000 C 
ATOM     16  O   UNL     1      -4.011  12.550  20.969  0.00  0.00    +0.000 OA
ATOM     17  N   UNL     1      -3.184  12.394  18.859  0.00  0.00    +0.000 N 
ATOM     18  H   UNL     1      -2.386  12.439  18.224  0.00  0.00    +0.000 HD
BRANCH  17  19
ATOM     19  C   UNL     1      -4.334  11.639  18.385  0.00  0.00    +0.000 C 
BRANCH  19  20
ATOM     20  C   UNL     1      -3.927  10.444  17.532  0.00  0.00    +0.000 C 
BRANCH  20  21
ATOM     21  C   UNL     1      -4.107  10.758  16.046  0.00  0.00    +0.000 C 
ATOM     22  C   UNL     1      -2.760  10.777  15.351  0.00  0.00    +0.000 C 
ENDBRANCH  20  21
ENDBRANCH  19  20
ENDBRANCH  17  19
ENDBRANCH  14  15
ENDBRANCH   7  14
BRANCH   1  23
ATOM     23  C   UNL     1       1.421   8.716  18.408  0.00  0.00    +0.000 C 
BRANCH  23  24
ATOM     24  C   UNL     1       2.130   7.590  19.348  0.00  0.00    +0.000 C 
BRANCH  24  25
ATOM     25  C   UNL     1       1.389   6.926  20.597  0.00  0.00    +0.000 C 
BRANCH  25  26
ATOM     26  C   UNL     1       1.781   5.436  20.955  0.00  0.00    +0.000 C 
BRANCH  26  27
ATOM     27  C   UNL     1       2.907   4.836  20.050  0.00  0.00    +0.000 C 
BRANCH  27  28
ATOM     28  C   UNL     1       2.528   3.628  19.164  0.00  0.00    +0.000 C 
BRANCH  28  29
ATOM     29  C   UNL     1       2.068   4.052  17.762  0.00  0.00    +0.000 C 
BRANCH  29  30
ATOM     30  C   UNL     1       2.958   3.516  16.632  0.00  0.00    +0.000 C 
BRANCH  30  31
ATOM     31  C   UNL     1       4.442   3.815  16.889  0.00  0.00    +0.000 C 
BRANCH  31  32
ATOM     32  C   UNL     1       4.789   5.273  16.574  0.00  0.00    +0.000 C 
BRANCH  32  33
ATOM     33  C   UNL     1       5.595   5.394  15.276  0.00  0.00    +0.000 C 
BRANCH  33  34
ATOM     34  C   UNL     1       5.758   4.037  14.590  0.00  0.00    +0.000 C 
BRANCH  34  36
ATOM     35  C   UNL     1       6.013   3.299  12.191  0.00  0.00    +0.000 C 
ATOM     36  C   UNL     1       6.588   4.154  13.311  0.00  0.00    +0.000 C 
ENDBRANCH  34  36
ENDBRANCH  33  34
ENDBRANCH  32  33
ENDBRANCH  31  32
ENDBRANCH  30  31
ENDBRANCH  29  30
ENDBRANCH  28  29
ENDBRANCH  27  28
ENDBRANCH  26  27
ENDBRANCH  25  26
ENDBRANCH  24  25
ENDBRANCH  23  24
ENDBRANCH   1  23
TORSDOF 19
ENDMDL
MODEL 7
REMARK VINA RESULT:      -6.3      3.718     10.700
REMARK  Name = 
REMARK  23 active torsions:
REMARK  status: ('A' for Active; 'I' for Inactive)
REMARK    1  A    between atoms: C_1  and  C_2
REMARK    2  A    between atoms: C_2  and  C_3
REMARK    3  A    between atoms: C_3  and  C_4
REMARK    4  A    between atoms: C_4  and  C_5
REMARK    5  A    between atoms: C_5  and  C_6
REMARK    6  A    between atoms: C_6  and  C_7
REMARK    7  A    between atoms: C_7  and  C_8
REMARK    8  A    between atoms: C_8  and  C_9
REMARK    9  A    between atoms: C_9  and  C_10
REMARK   10  A    between atoms: C_10  and  C_11
REMARK   11  A    between atoms: C_11  and  C_12
REMARK   12  A    between atoms: C_12  and  C_13
REMARK   13  A    between atoms: C_13  and  C_14
REMARK   14  A    between atoms: C_14  and  C_15
REMARK   15  A    between atoms: C_15  and  O_16
REMARK   16  A    between atoms: C_17  and  C_18
REMARK   17  A    between atoms: C_19  and  C_20
REMARK   18  A    between atoms: N_22  and  C_23
REMARK   19  A    between atoms: C_23  and  C_24
REMARK   20  A    between atoms: N_26  and  C_27
REMARK   21  A    between atoms: C_27  and  C_28
REMARK   22  A    between atoms: C_28  and  C_29
REMARK   23  A    between atoms: C_29  and  C_30
REMARK                            x       y       z     vdW  Elec       q    Type
REMARK                         _______ _______ _______ _____ _____    ______ ____
ROOT
ATOM      1  C   UNL     1       1.165  10.034  18.770  0.00  0.00    +0.000 C 
ATOM      2  C   UNL     1       1.598  11.495  18.639  0.00  0.00    +0.000 C 
ATOM      3  C   UNL     1       2.716  12.066  17.856  0.00  0.00    +0.000 C 
ATOM      4  C   UNL     1       0.812  12.268  19.444  0.00  0.00    +0.000 C 
ATOM      5  C   UNL     1       1.001  13.701  19.740  0.00  0.00    +0.000 C 
ATOM      6  C   UNL     1      -0.032  11.348  20.262  0.00  0.00    +0.000 C 
ATOM      7  N   UNL     1      -0.895  11.816  21.098  0.00  0.00    +0.000 N 
ATOM      8  C   UNL     1      -1.133  11.194  22.412  0.00  0.00    +0.000 C 
ATOM      9  C   UNL     1      -0.325   9.899  22.550  0.00  0.00    +0.000 C 
ATOM     10  C   UNL     1       0.922   9.746  21.610  0.00  0.00    +0.000 C 
ATOM     11  N   UNL     1       0.590  10.128  20.216  0.00  0.00    +0.000 N 
ENDROOT
BRANCH   1  12
ATOM     12  O   UNL     1      -0.074   9.948  18.012  0.00  0.00    +0.000 OA
ATOM     13  H   UNL     1      -0.611  10.744  18.191  0.00  0.00    +0.000 HD
ENDBRANCH   1  12
BRANCH   7  14
ATOM     14  C   UNL     1      -1.978  12.697  20.542  0.00  0.00    +0.000 C 
BRANCH  14  15
ATOM     15  C   UNL     1      -2.250  13.918  21.455  0.00  0.00    +0.000 C 
ATOM     16  O   UNL     1      -1.335  14.511  22.000  0.00  0.00    +0.000 OA
ATOM     17  N   UNL     1      -3.570  14.271  21.668  0.00  0.00    +0.000 N 
ATOM     18  H   UNL     1      -4.352  13.705  21.334  0.00  0.00    +0.000 HD
BRANCH  17  19
ATOM     19  C   UNL     1      -3.899  15.307  22.635  0.00  0.00    +0.000 C 
BRANCH  19  20
ATOM     20  C   UNL     1      -4.265  14.728  23.996  0.00  0.00    +0.000 C 
BRANCH  20  21
ATOM     21  C   UNL     1      -5.029  13.413  23.834  0.00  0.00    +0.000 C 
ATOM     22  C   UNL     1      -4.395  12.333  24.689  0.00  0.00    +0.000 C 
ENDBRANCH  20  21
ENDBRANCH  19  20
ENDBRANCH  17  19
ENDBRANCH  14  15
ENDBRANCH   7  14
BRANCH   1  23
ATOM     23  C   UNL     1       2.085   8.917  17.967  0.00  0.00    +0.000 C 
BRANCH  23  24
ATOM     24  C   UNL     1       2.521   7.545  18.728  0.00  0.00    +0.000 C 
BRANCH  24  25
ATOM     25  C   UNL     1       2.245   6.099  18.112  0.00  0.00    +0.000 C 
BRANCH  25  26
ATOM     26  C   UNL     1       1.740   4.978  19.109  0.00  0.00    +0.000 C 
BRANCH  26  27
ATOM     27  C   UNL     1       2.734   3.785  19.285  0.00  0.00    +0.000 C 
BRANCH  27  28
ATOM     28  C   UNL     1       3.923   3.709  18.301  0.00  0.00    +0.000 C 
BRANCH  28  29
ATOM     29  C   UNL     1       5.277   3.866  19.005  0.00  0.00    +0.000 C 
BRANCH  29  30
ATOM     30  C   UNL     1       5.667   5.325  19.278  0.00  0.00    +0.000 C 
BRANCH  30  31
ATOM     31  C   UNL     1       7.127   5.603  18.891  0.00  0.00    +0.000 C 
BRANCH  31  32
ATOM     32  C   UNL     1       7.616   4.645  17.799  0.00  0.00    +0.000 C 
BRANCH  32  33
ATOM     33  C   UNL     1       7.432   5.243  16.401  0.00  0.00    +0.000 C 
BRANCH  33  34
ATOM     34  C   UNL     1       6.508   4.379  15.539  0.00  0.00    +0.000 C 
BRANCH  34  36
ATOM     35  C   UNL     1       5.142   6.480  15.827  0.00  0.00    +0.000 C 
ATOM     36  C   UNL     1       5.281   5.164  15.076  0.00  0.00    +0.000 C 
ENDBRANCH  34  36
ENDBRANCH  33  34
ENDBRANCH  32  33
ENDBRANCH  31  32
ENDBRANCH  30  31
ENDBRANCH  29  30
ENDBRANCH  28  29
ENDBRANCH  27  28
ENDBRANCH  26  27
ENDBRANCH  25  26
ENDBRANCH  24  25
ENDBRANCH  23  24
ENDBRANCH   1  23
TORSDOF 19
ENDMDL
MODEL 8
REMARK VINA RESULT:      -6.2      6.981     10.953
REMARK  Name = 
REMARK  23 active torsions:
REMARK  status: ('A' for Active; 'I' for Inactive)
REMARK    1  A    between atoms: C_1  and  C_2
REMARK    2  A    between atoms: C_2  and  C_3
REMARK    3  A    between atoms: C_3  and  C_4
REMARK    4  A    between atoms: C_4  and  C_5
REMARK    5  A    between atoms: C_5  and  C_6
REMARK    6  A    between atoms: C_6  and  C_7
REMARK    7  A    between atoms: C_7  and  C_8
REMARK    8  A    between atoms: C_8  and  C_9
REMARK    9  A    between atoms: C_9  and  C_10
REMARK   10  A    between atoms: C_10  and  C_11
REMARK   11  A    between atoms: C_11  and  C_12
REMARK   12  A    between atoms: C_12  and  C_13
REMARK   13  A    between atoms: C_13  and  C_14
REMARK   14  A    between atoms: C_14  and  C_15
REMARK   15  A    between atoms: C_15  and  O_16
REMARK   16  A    between atoms: C_17  and  C_18
REMARK   17  A    between atoms: C_19  and  C_20
REMARK   18  A    between atoms: N_22  and  C_23
REMARK   19  A    between atoms: C_23  and  C_24
REMARK   20  A    between atoms: N_26  and  C_27
REMARK   21  A    between atoms: C_27  and  C_28
REMARK   22  A    between atoms: C_28  and  C_29
REMARK   23  A    between atoms: C_29  and  C_30
REMARK                            x       y       z     vdW  Elec       q    Type
REMARK                         _______ _______ _______ _____ _____    ______ ____
ROOT
ATOM      1  C   UNL     1       9.259  12.394  18.295  0.00  0.00    +0.000 C 
ATOM      2  C   UNL     1      10.322  13.351  17.754  0.00  0.00    +0.000 C 
ATOM      3  C   UNL     1      11.570  13.037  17.024  0.00  0.00    +0.000 C 
ATOM      4  C   UNL     1       9.995  14.629  18.107  0.00  0.00    +0.000 C 
ATOM      5  C   UNL     1      10.834  15.830  17.929  0.00  0.00    +0.000 C 
ATOM      6  C   UNL     1       8.827  14.552  19.033  0.00  0.00    +0.000 C 
ATOM      7  N   UNL     1       8.291  15.625  19.505  0.00  0.00    +0.000 N 
ATOM      8  C   UNL     1       7.803  15.715  20.892  0.00  0.00    +0.000 C 
ATOM      9  C   UNL     1       7.914  14.356  21.592  0.00  0.00    +0.000 C 
ATOM     10  C   UNL     1       8.937  13.334  20.982  0.00  0.00    +0.000 C 
ATOM     11  N   UNL     1       8.807  13.266  19.507  0.00  0.00    +0.000 N 
ENDROOT
BRANCH   1  12
ATOM     12  O   UNL     1       8.116  12.578  17.414  0.00  0.00    +0.000 OA
ATOM     13  H   UNL     1       7.996  11.770  16.879  0.00  0.00    +0.000 HD
ENDBRANCH   1  12
BRANCH   7  14
ATOM     14  C   UNL     1       7.738  16.607  18.511  0.00  0.00    +0.000 C 
BRANCH  14  15
ATOM     15  C   UNL     1       6.196  16.709  18.601  0.00  0.00    +0.000 C 
ATOM     16  O   UNL     1       5.657  17.703  19.058  0.00  0.00    +0.000 OA
ATOM     17  N   UNL     1       5.462  15.609  18.196  0.00  0.00    +0.000 N 
ATOM     18  H   UNL     1       5.895  14.720  17.943  0.00  0.00    +0.000 HD
BRANCH  17  19
ATOM     19  C   UNL     1       4.021  15.580  18.402  0.00  0.00    +0.000 C 
BRANCH  19  20
ATOM     20  C   UNL     1       3.449  14.174  18.271  0.00  0.00    +0.000 C 
BRANCH  20  21
ATOM     21  C   UNL     1       2.508  13.866  19.437  0.00  0.00    +0.000 C 
ATOM     22  C   UNL     1       1.580  12.723  19.068  0.00  0.00    +0.000 C 
ENDBRANCH  20  21
ENDBRANCH  19  20
ENDBRANCH  17  19
ENDBRANCH  14  15
ENDBRANCH   7  14
BRANCH   1  23
ATOM     23  C   UNL     1       9.544  10.778  18.082  0.00  0.00    +0.000 C 
BRANCH  23  24
ATOM     24  C   UNL     1       8.287   9.769  17.851  0.00  0.00    +0.000 C 
BRANCH  24  25
ATOM     25  C   UNL     1       8.269   8.278  18.422  0.00  0.00    +0.000 C 
BRANCH  25  26
ATOM     26  C   UNL     1       7.705   7.150  17.467  0.00  0.00    +0.000 C 
BRANCH  26  27
ATOM     27  C   UNL     1       6.849   6.064  18.196  0.00  0.00    +0.000 C 
BRANCH  27  28
ATOM     28  C   UNL     1       5.442   5.778  17.626  0.00  0.00    +0.000 C 
BRANCH  28  29
ATOM     29  C   UNL     1       5.294   4.334  17.128  0.00  0.00    +0.000 C 
BRANCH  29  30
ATOM     30  C   UNL     1       3.884   3.994  16.628  0.00  0.00    +0.000 C 
BRANCH  30  31
ATOM     31  C   UNL     1       3.118   3.128  17.640  0.00  0.00    +0.000 C 
BRANCH  31  32
ATOM     32  C   UNL     1       1.796   3.781  18.056  0.00  0.00    +0.000 C 
BRANCH  32  33
ATOM     33  C   UNL     1       1.939   4.558  19.370  0.00  0.00    +0.000 C 
BRANCH  33  34
ATOM     34  C   UNL     1       0.874   4.141  20.386  0.00  0.00    +0.000 C 
BRANCH  34  36
ATOM     35  C   UNL     1       2.525   2.627  21.547  0.00  0.00    +0.000 C 
ATOM     36  C   UNL     1       1.139   2.736  20.928  0.00  0.00    +0.000 C 
ENDBRANCH  34  36
ENDBRANCH  33  34
ENDBRANCH  32  33
ENDBRANCH  31  32
ENDBRANCH  30  31
ENDBRANCH  29  30
ENDBRANCH  28  29
ENDBRANCH  27  28
ENDBRANCH  26  27
ENDBRANCH  25  26
ENDBRANCH  24  25
ENDBRANCH  23  24
ENDBRANCH   1  23
TORSDOF 19
ENDMDL
MODEL 9
REMARK VINA RESULT:      -6.1      3.319      9.400
REMARK  Name = 
REMARK  23 active torsions:
REMARK  status: ('A' for Active; 'I' for Inactive)
REMARK    1  A    between atoms: C_1  and  C_2
REMARK    2  A    between atoms: C_2  and  C_3
REMARK    3  A    between atoms: C_3  and  C_4
REMARK    4  A    between atoms: C_4  and  C_5
REMARK    5  A    between atoms: C_5  and  C_6
REMARK    6  A    between atoms: C_6  and  C_7
REMARK    7  A    between atoms: C_7  and  C_8
REMARK    8  A    between atoms: C_8  and  C_9
REMARK    9  A    between atoms: C_9  and  C_10
REMARK   10  A    between atoms: C_10  and  C_11
REMARK   11  A    between atoms: C_11  and  C_12
REMARK   12  A    between atoms: C_12  and  C_13
REMARK   13  A    between atoms: C_13  and  C_14
REMARK   14  A    between atoms: C_14  and  C_15
REMARK   15  A    between atoms: C_15  and  O_16
REMARK   16  A    between atoms: C_17  and  C_18
REMARK   17  A    between atoms: C_19  and  C_20
REMARK   18  A    between atoms: N_22  and  C_23
REMARK   19  A    between atoms: C_23  and  C_24
REMARK   20  A    between atoms: N_26  and  C_27
REMARK   21  A    between atoms: C_27  and  C_28
REMARK   22  A    between atoms: C_28  and  C_29
REMARK   23  A    between atoms: C_29  and  C_30
REMARK                            x       y       z     vdW  Elec       q    Type
REMARK                         _______ _______ _______ _____ _____    ______ ____
ROOT
ATOM      1  C   UNL     1       1.077   9.864  18.609  0.00  0.00    +0.000 C 
ATOM      2  C   UNL     1       1.697  11.261  18.656  0.00  0.00    +0.000 C 
ATOM      3  C   UNL     1       2.857  11.788  17.903  0.00  0.00    +0.000 C 
ATOM      4  C   UNL     1       1.046  12.008  19.595  0.00  0.00    +0.000 C 
ATOM      5  C   UNL     1       1.435  13.349  20.071  0.00  0.00    +0.000 C 
ATOM      6  C   UNL     1       0.113  11.098  20.322  0.00  0.00    +0.000 C 
ATOM      7  N   UNL     1      -0.653  11.552  21.254  0.00  0.00    +0.000 N 
ATOM      8  C   UNL     1      -0.933  10.788  22.482  0.00  0.00    +0.000 C 
ATOM      9  C   UNL     1      -0.302   9.393  22.405  0.00  0.00    +0.000 C 
ATOM     10  C   UNL     1       0.884   9.215  21.393  0.00  0.00    +0.000 C 
ATOM     11  N   UNL     1       0.563   9.827  20.081  0.00  0.00    +0.000 N 
ENDROOT
BRANCH   1  12
ATOM     12  O   UNL     1      -0.185  10.045  17.908  0.00  0.00    +0.000 OA
ATOM     13  H   UNL     1      -0.777  10.594  18.456  0.00  0.00    +0.000 HD
ENDBRANCH   1  12
BRANCH   7  14
ATOM     14  C   UNL     1      -1.625  12.634  20.875  0.00  0.00    +0.000 C 
BRANCH  14  15
ATOM     15  C   UNL     1      -2.201  12.416  19.454  0.00  0.00    +0.000 C 
ATOM     16  O   UNL     1      -1.636  12.866  18.472  0.00  0.00    +0.000 OA
ATOM     17  N   UNL     1      -3.404  11.742  19.352  0.00  0.00    +0.000 N 
ATOM     18  H   UNL     1      -3.959  11.480  20.167  0.00  0.00    +0.000 HD
BRANCH  17  19
ATOM     19  C   UNL     1      -4.074  11.641  18.064  0.00  0.00    +0.000 C 
BRANCH  19  20
ATOM     20  C   UNL     1      -3.592  10.444  17.256  0.00  0.00    +0.000 C 
BRANCH  20  21
ATOM     21  C   UNL     1      -2.968  10.901  15.936  0.00  0.00    +0.000 C 
ATOM     22  C   UNL     1      -3.574  10.129  14.779  0.00  0.00    +0.000 C 
ENDBRANCH  20  21
ENDBRANCH  19  20
ENDBRANCH  17  19
ENDBRANCH  14  15
ENDBRANCH   7  14
BRANCH   1  23
ATOM     23  C   UNL     1       1.814   8.762  17.619  0.00  0.00    +0.000 C 
BRANCH  23  24
ATOM     24  C   UNL     1       2.921   7.742  18.242  0.00  0.00    +0.000 C 
BRANCH  24  25
ATOM     25  C   UNL     1       2.600   6.775  19.471  0.00  0.00    +0.000 C 
BRANCH  25  26
ATOM     26  C   UNL     1       1.809   5.444  19.149  0.00  0.00    +0.000 C 
BRANCH  26  27
ATOM     27  C   UNL     1       2.288   4.202  19.970  0.00  0.00    +0.000 C 
BRANCH  27  28
ATOM     28  C   UNL     1       3.591   3.514  19.507  0.00  0.00    +0.000 C 
BRANCH  28  29
ATOM     29  C   UNL     1       3.559   3.140  18.019  0.00  0.00    +0.000 C 
BRANCH  29  30
ATOM     30  C   UNL     1       4.060   4.255  17.091  0.00  0.00    +0.000 C 
BRANCH  30  31
ATOM     31  C   UNL     1       5.045   3.719  16.042  0.00  0.00    +0.000 C 
BRANCH  31  32
ATOM     32  C   UNL     1       5.670   4.851  15.221  0.00  0.00    +0.000 C 
BRANCH  32  33
ATOM     33  C   UNL     1       7.140   5.073  15.592  0.00  0.00    +0.000 C 
BRANCH  33  34
ATOM     34  C   UNL     1       7.425   4.646  17.034  0.00  0.00    +0.000 C 
BRANCH  34  36
ATOM     35  C   UNL     1       6.815   5.511  19.323  0.00  0.00    +0.000 C 
ATOM     36  C   UNL     1       7.443   5.847  17.979  0.00  0.00    +0.000 C 
ENDBRANCH  34  36
ENDBRANCH  33  34
ENDBRANCH  32  33
ENDBRANCH  31  32
ENDBRANCH  30  31
ENDBRANCH  29  30
ENDBRANCH  28  29
ENDBRANCH  27  28
ENDBRANCH  26  27
ENDBRANCH  25  26
ENDBRANCH  24  25
ENDBRANCH  23  24
ENDBRANCH   1  23
TORSDOF 19
ENDMDL
