MODEL 1
REMARK VINA RESULT:      -9.2      0.000      0.000
REMARK  Name = 
REMARK  5 active torsions:
REMARK  status: ('A' for Active; 'I' for Inactive)
REMARK    1  A    between atoms: C_2  and  C_10
REMARK    2  A    between atoms: N_3  and  C_4
REMARK    3  A    between atoms: C_13  and  O_14
REMARK    4  A    between atoms: O_14  and  C_15
REMARK    5  A    between atoms: C_19  and  C_20
REMARK                            x       y       z     vdW  Elec       q    Type
REMARK                         _______ _______ _______ _____ _____    ______ ____
ROOT
ATOM      1  C   UNL     1       1.790   7.690  19.972  0.00  0.00    +0.000 A 
ATOM      2  C   UNL     1       1.864   6.470  20.656  0.00  0.00    +0.000 A 
ATOM      3  C   UNL     1       2.476   5.360  20.064  0.00  0.00    +0.000 A 
ATOM      4  C   UNL     1       3.026   5.468  18.785  0.00  0.00    +0.000 A 
ATOM      5  C   UNL     1       3.000   6.701  18.124  0.00  0.00    +0.000 A 
ATOM      6  C   UNL     1       2.370   7.805  18.705  0.00  0.00    +0.000 A 
ENDROOT
BRANCH   1   8
ATOM      7  O   UNL     1       0.942   8.810  21.855  0.00  0.00    +0.000 OA
ATOM      8  C   UNL     1       1.163   8.857  20.650  0.00  0.00    +0.000 C 
ATOM      9  N   UNL     1       0.846   9.946  19.855  0.00  0.00    +0.000 N 
ATOM     10  H   UNL     1       0.816   9.815  18.852  0.00  0.00    +0.000 HD
BRANCH   9  11
ATOM     11  C   UNL     1       0.169  11.110  20.421  0.00  0.00    +0.000 C 
ATOM     12  C   UNL     1       1.026  12.379  20.295  0.00  0.00    +0.000 C 
ATOM     13  C   UNL     1       1.052  12.961  18.882  0.00  0.00    +0.000 C 
ATOM     14  C   UNL     1      -0.353  13.161  18.327  0.00  0.00    +0.000 C 
ATOM     15  C   UNL     1      -1.161  11.869  18.381  0.00  0.00    +0.000 C 
ATOM     16  C   UNL     1      -1.221  11.308  19.801  0.00  0.00    +0.000 C 
ENDBRANCH   9  11
ENDBRANCH   1   8
BRANCH   4  17
ATOM     17  O   UNL     1       3.651   4.345  18.284  0.00  0.00    +0.000 OA
BRANCH  17  18
ATOM     18  C   UNL     1       4.940   4.487  17.783  0.00  0.00    +0.000 A 
ATOM     19  C   UNL     1       5.930   4.788  18.685  0.00  0.00    +0.000 A 
ATOM     20  C   UNL     1       7.179   4.963  18.143  0.00  0.00    +0.000 A 
ATOM     21  N   UNL     1       7.444   4.843  16.828  0.00  0.00    +0.000 NA
ATOM     22  C   UNL     1       6.409   4.513  16.030  0.00  0.00    +0.000 A 
ATOM     23  N   UNL     1       5.157   4.314  16.468  0.00  0.00    +0.000 NA
BRANCH  22  24
ATOM     24  C   UNL     1       6.638   4.419  14.577  0.00  0.00    +0.000 A 
ATOM     25  C   UNL     1       7.575   5.240  13.919  0.00  0.00    +0.000 A 
ATOM     26  C   UNL     1       7.774   5.162  12.535  0.00  0.00    +0.000 A 
ATOM     27  C   UNL     1       7.035   4.258  11.778  0.00  0.00    +0.000 A 
ATOM     28  C   UNL     1       6.112   3.439  12.410  0.00  0.00    +0.000 A 
ATOM     29  F   UNL     1       5.396   2.570  11.683  0.00  0.00    +0.000 F 
ATOM     30  C   UNL     1       5.911   3.509  13.784  0.00  0.00    +0.000 A 
ENDBRANCH  22  24
ENDBRANCH  17  18
ENDBRANCH   4  17
TORSDOF 5
ENDMDL
MODEL 2
REMARK VINA RESULT:      -9.0      0.925      1.284
REMARK  Name = 
REMARK  5 active torsions:
REMARK  status: ('A' for Active; 'I' for Inactive)
REMARK    1  A    between atoms: C_2  and  C_10
REMARK    2  A    between atoms: N_3  and  C_4
REMARK    3  A    between atoms: C_13  and  O_14
REMARK    4  A    between atoms: O_14  and  C_15
REMARK    5  A    between atoms: C_19  and  C_20
REMARK                            x       y       z     vdW  Elec       q    Type
REMARK                         _______ _______ _______ _____ _____    ______ ____
ROOT
ATOM      1  C   UNL     1       1.791   7.664  19.947  0.00  0.00    +0.000 A 
ATOM      2  C   UNL     1       1.853   6.440  20.624  0.00  0.00    +0.000 A 
ATOM      3  C   UNL     1       2.456   5.327  20.026  0.00  0.00    +0.000 A 
ATOM      4  C   UNL     1       3.006   5.437  18.748  0.00  0.00    +0.000 A 
ATOM      5  C   UNL     1       2.992   6.674  18.094  0.00  0.00    +0.000 A 
ATOM      6  C   UNL     1       2.372   7.781  18.680  0.00  0.00    +0.000 A 
ENDROOT
BRANCH   1   8
ATOM      7  O   UNL     1       0.751   8.711  21.775  0.00  0.00    +0.000 OA
ATOM      8  C   UNL     1       1.174   8.833  20.631  0.00  0.00    +0.000 C 
ATOM      9  N   UNL     1       1.100  10.013  19.908  0.00  0.00    +0.000 N 
ATOM     10  H   UNL     1       1.226   9.969  18.906  0.00  0.00    +0.000 HD
BRANCH   9  11
ATOM     11  C   UNL     1       0.453  11.194  20.475  0.00  0.00    +0.000 C 
ATOM     12  C   UNL     1       1.203  12.482  20.103  0.00  0.00    +0.000 C 
ATOM     13  C   UNL     1       0.972  12.929  18.660  0.00  0.00    +0.000 C 
ATOM     14  C   UNL     1      -0.512  13.012  18.324  0.00  0.00    +0.000 C 
ATOM     15  C   UNL     1      -1.223  11.697  18.620  0.00  0.00    +0.000 C 
ATOM     16  C   UNL     1      -1.026  11.269  20.074  0.00  0.00    +0.000 C 
ENDBRANCH   9  11
ENDBRANCH   1   8
BRANCH   4  17
ATOM     17  O   UNL     1       3.622   4.311  18.241  0.00  0.00    +0.000 OA
BRANCH  17  18
ATOM     18  C   UNL     1       4.919   4.439  17.762  0.00  0.00    +0.000 A 
ATOM     19  C   UNL     1       5.907   4.666  18.689  0.00  0.00    +0.000 A 
ATOM     20  C   UNL     1       7.167   4.830  18.170  0.00  0.00    +0.000 A 
ATOM     21  N   UNL     1       7.445   4.767  16.853  0.00  0.00    +0.000 NA
ATOM     22  C   UNL     1       6.411   4.507  16.029  0.00  0.00    +0.000 A 
ATOM     23  N   UNL     1       5.148   4.324  16.442  0.00  0.00    +0.000 NA
BRANCH  22  24
ATOM     24  C   UNL     1       6.655   4.477  14.576  0.00  0.00    +0.000 A 
ATOM     25  C   UNL     1       6.035   3.529  13.739  0.00  0.00    +0.000 A 
ATOM     26  C   UNL     1       6.286   3.491  12.361  0.00  0.00    +0.000 A 
ATOM     27  C   UNL     1       7.168   4.404  11.792  0.00  0.00    +0.000 A 
ATOM     28  C   UNL     1       7.784   5.348  12.600  0.00  0.00    +0.000 A 
ATOM     29  F   UNL     1       8.637   6.225  12.055  0.00  0.00    +0.000 F 
ATOM     30  C   UNL     1       7.537   5.393  13.968  0.00  0.00    +0.000 A 
ENDBRANCH  22  24
ENDBRANCH  17  18
ENDBRANCH   4  17
TORSDOF 5
ENDMDL
MODEL 3
REMARK VINA RESULT:      -8.7      0.455      1.005
REMARK  Name = 
REMARK  5 active torsions:
REMARK  status: ('A' for Active; 'I' for Inactive)
REMARK    1  A    between atoms: C_2  and  C_10
REMARK    2  A    between atoms: N_3  and  C_4
REMARK    3  A    between atoms: C_13  and  O_14
REMARK    4  A    between atoms: O_14  and  C_15
REMARK    5  A    between atoms: C_19  and  C_20
REMARK                            x       y       z     vdW  Elec       q    Type
REMARK                         _______ _______ _______ _____ _____    ______ ____
ROOT
ATOM      1  C   UNL     1       1.614   8.061  20.119  0.00  0.00    +0.000 A 
ATOM      2  C   UNL     1       2.019   8.162  18.783  0.00  0.00    +0.000 A 
ATOM      3  C   UNL     1       2.514   7.042  18.104  0.00  0.00    +0.000 A 
ATOM      4  C   UNL     1       2.599   5.813  18.759  0.00  0.00    +0.000 A 
ATOM      5  C   UNL     1       2.144   5.700  20.078  0.00  0.00    +0.000 A 
ATOM      6  C   UNL     1       1.669   6.821  20.764  0.00  0.00    +0.000 A 
ENDROOT
BRANCH   1   8
ATOM      7  O   UNL     1       0.789   9.217  21.990  0.00  0.00    +0.000 OA
ATOM      8  C   UNL     1       1.060   9.265  20.796  0.00  0.00    +0.000 C 
ATOM      9  N   UNL     1       0.865  10.390  20.011  0.00  0.00    +0.000 N 
ATOM     10  H   UNL     1       0.864  10.278  19.006  0.00  0.00    +0.000 HD
BRANCH   9  11
ATOM     11  C   UNL     1       0.266  11.597  20.574  0.00  0.00    +0.000 C 
ATOM     12  C   UNL     1       1.148  12.832  20.333  0.00  0.00    +0.000 C 
ATOM     13  C   UNL     1       1.087  13.355  18.898  0.00  0.00    +0.000 C 
ATOM     14  C   UNL     1      -0.349  13.577  18.438  0.00  0.00    +0.000 C 
ATOM     15  C   UNL     1      -1.187  12.315  18.606  0.00  0.00    +0.000 C 
ATOM     16  C   UNL     1      -1.160  11.814  20.049  0.00  0.00    +0.000 C 
ENDBRANCH   9  11
ENDBRANCH   1   8
BRANCH   4  17
ATOM     17  O   UNL     1       3.055   4.745  18.015  0.00  0.00    +0.000 OA
BRANCH  17  18
ATOM     18  C   UNL     1       4.399   4.722  17.663  0.00  0.00    +0.000 A 
ATOM     19  C   UNL     1       5.311   4.898  18.674  0.00  0.00    +0.000 A 
ATOM     20  C   UNL     1       6.625   4.914  18.278  0.00  0.00    +0.000 A 
ATOM     21  N   UNL     1       7.020   4.759  16.999  0.00  0.00    +0.000 NA
ATOM     22  C   UNL     1       6.049   4.561  16.087  0.00  0.00    +0.000 A 
ATOM     23  N   UNL     1       4.739   4.522  16.378  0.00  0.00    +0.000 NA
BRANCH  22  24
ATOM     24  C   UNL     1       6.427   4.437  14.667  0.00  0.00    +0.000 A 
ATOM     25  C   UNL     1       7.434   5.239  14.095  0.00  0.00    +0.000 A 
ATOM     26  C   UNL     1       7.775   5.133  12.741  0.00  0.00    +0.000 A 
ATOM     27  C   UNL     1       7.111   4.219  11.928  0.00  0.00    +0.000 A 
ATOM     28  C   UNL     1       6.120   3.418  12.476  0.00  0.00    +0.000 A 
ATOM     29  F   UNL     1       5.476   2.540  11.695  0.00  0.00    +0.000 F 
ATOM     30  C   UNL     1       5.778   3.517  13.820  0.00  0.00    +0.000 A 
ENDBRANCH  22  24
ENDBRANCH  17  18
ENDBRANCH   4  17
TORSDOF 5
ENDMDL
MODEL 4
REMARK VINA RESULT:      -8.6      1.030      1.630
REMARK  Name = 
REMARK  5 active torsions:
REMARK  status: ('A' for Active; 'I' for Inactive)
REMARK    1  A    between atoms: C_2  and  C_10
REMARK    2  A    between atoms: N_3  and  C_4
REMARK    3  A    between atoms: C_13  and  O_14
REMARK    4  A    between atoms: O_14  and  C_15
REMARK    5  A    between atoms: C_19  and  C_20
REMARK                            x       y       z     vdW  Elec       q    Type
REMARK                         _______ _______ _______ _____ _____    ______ ____
ROOT
ATOM      1  C   UNL     1       1.642   8.093  20.194  0.00  0.00    +0.000 A 
ATOM      2  C   UNL     1       2.101   8.145  18.872  0.00  0.00    +0.000 A 
ATOM      3  C   UNL     1       2.566   6.988  18.236  0.00  0.00    +0.000 A 
ATOM      4  C   UNL     1       2.566   5.771  18.919  0.00  0.00    +0.000 A 
ATOM      5  C   UNL     1       2.057   5.709  20.222  0.00  0.00    +0.000 A 
ATOM      6  C   UNL     1       1.612   6.867  20.866  0.00  0.00    +0.000 A 
ENDROOT
BRANCH   1   8
ATOM      7  O   UNL     1       1.355   9.559  22.007  0.00  0.00    +0.000 OA
ATOM      8  C   UNL     1       1.122   9.337  20.824  0.00  0.00    +0.000 C 
ATOM      9  N   UNL     1       0.376  10.182  20.019  0.00  0.00    +0.000 N 
ATOM     10  H   UNL     1       0.012   9.816  19.148  0.00  0.00    +0.000 HD
BRANCH   9  11
ATOM     11  C   UNL     1      -0.228  11.393  20.567  0.00  0.00    +0.000 C 
ATOM     12  C   UNL     1       0.768  12.563  20.588  0.00  0.00    +0.000 C 
ATOM     13  C   UNL     1       1.004  13.188  19.213  0.00  0.00    +0.000 C 
ATOM     14  C   UNL     1      -0.305  13.562  18.529  0.00  0.00    +0.000 C 
ATOM     15  C   UNL     1      -1.247  12.367  18.442  0.00  0.00    +0.000 C 
ATOM     16  C   UNL     1      -1.517  11.766  19.821  0.00  0.00    +0.000 C 
ENDBRANCH   9  11
ENDBRANCH   1   8
BRANCH   4  17
ATOM     17  O   UNL     1       2.996   4.666  18.214  0.00  0.00    +0.000 OA
BRANCH  17  18
ATOM     18  C   UNL     1       4.335   4.609  17.846  0.00  0.00    +0.000 A 
ATOM     19  C   UNL     1       5.263   4.687  18.856  0.00  0.00    +0.000 A 
ATOM     20  C   UNL     1       6.573   4.673  18.446  0.00  0.00    +0.000 A 
ATOM     21  N   UNL     1       6.949   4.577  17.156  0.00  0.00    +0.000 NA
ATOM     22  C   UNL     1       5.963   4.473  16.245  0.00  0.00    +0.000 A 
ATOM     23  N   UNL     1       4.656   4.470  16.548  0.00  0.00    +0.000 NA
BRANCH  22  24
ATOM     24  C   UNL     1       6.322   4.417  14.816  0.00  0.00    +0.000 A 
ATOM     25  C   UNL     1       5.684   3.532  13.925  0.00  0.00    +0.000 A 
ATOM     26  C   UNL     1       6.044   3.467  12.573  0.00  0.00    +0.000 A 
ATOM     27  C   UNL     1       7.053   4.290  12.083  0.00  0.00    +0.000 A 
ATOM     28  C   UNL     1       7.689   5.171  12.945  0.00  0.00    +0.000 A 
ATOM     29  F   UNL     1       8.664   5.961  12.478  0.00  0.00    +0.000 F 
ATOM     30  C   UNL     1       7.335   5.242  14.288  0.00  0.00    +0.000 A 
ENDBRANCH  22  24
ENDBRANCH  17  18
ENDBRANCH   4  17
TORSDOF 5
ENDMDL
MODEL 5
REMARK VINA RESULT:      -8.4      3.852      6.316
REMARK  Name = 
REMARK  5 active torsions:
REMARK  status: ('A' for Active; 'I' for Inactive)
REMARK    1  A    between atoms: C_2  and  C_10
REMARK    2  A    between atoms: N_3  and  C_4
REMARK    3  A    between atoms: C_13  and  O_14
REMARK    4  A    between atoms: O_14  and  C_15
REMARK    5  A    between atoms: C_19  and  C_20
REMARK                            x       y       z     vdW  Elec       q    Type
REMARK                         _______ _______ _______ _____ _____    ______ ____
ROOT
ATOM      1  C   UNL     1      -2.680  11.261  18.067  0.00  0.00    +0.000 A 
ATOM      2  C   UNL     1      -2.040  10.182  17.445  0.00  0.00    +0.000 A 
ATOM      3  C   UNL     1      -0.684   9.928  17.683  0.00  0.00    +0.000 A 
ATOM      4  C   UNL     1       0.036  10.749  18.552  0.00  0.00    +0.000 A 
ATOM      5  C   UNL     1      -0.618  11.795  19.215  0.00  0.00    +0.000 A 
ATOM      6  C   UNL     1      -1.966  12.063  18.962  0.00  0.00    +0.000 A 
ENDROOT
BRANCH   1   8
ATOM      7  O   UNL     1      -4.530  11.628  16.667  0.00  0.00    +0.000 OA
ATOM      8  C   UNL     1      -4.131  11.477  17.816  0.00  0.00    +0.000 C 
ATOM      9  N   UNL     1      -4.960  11.509  18.925  0.00  0.00    +0.000 N 
ATOM     10  H   UNL     1      -4.537  11.637  19.835  0.00  0.00    +0.000 HD
BRANCH   9  11
ATOM     11  C   UNL     1      -6.388  11.780  18.781  0.00  0.00    +0.000 C 
ATOM     12  C   UNL     1      -7.216  10.486  18.815  0.00  0.00    +0.000 C 
ATOM     13  C   UNL     1      -7.371   9.898  20.217  0.00  0.00    +0.000 C 
ATOM     14  C   UNL     1      -7.883  10.933  21.211  0.00  0.00    +0.000 C 
ATOM     15  C   UNL     1      -7.001  12.176  21.224  0.00  0.00    +0.000 C 
ATOM     16  C   UNL     1      -6.877  12.788  19.830  0.00  0.00    +0.000 C 
ENDBRANCH   9  11
ENDBRANCH   1   8
BRANCH   4  17
ATOM     17  O   UNL     1       1.355  10.412  18.773  0.00  0.00    +0.000 OA
BRANCH  17  18
ATOM     18  C   UNL     1       1.637   9.111  19.173  0.00  0.00    +0.000 A 
ATOM     19  C   UNL     1       1.178   8.726  20.408  0.00  0.00    +0.000 A 
ATOM     20  C   UNL     1       1.516   7.450  20.784  0.00  0.00    +0.000 A 
ATOM     21  N   UNL     1       2.234   6.611  20.012  0.00  0.00    +0.000 NA
ATOM     22  C   UNL     1       2.610   7.074  18.804  0.00  0.00    +0.000 A 
ATOM     23  N   UNL     1       2.321   8.302  18.346  0.00  0.00    +0.000 NA
BRANCH  22  24
ATOM     24  C   UNL     1       3.440   6.213  17.943  0.00  0.00    +0.000 A 
ATOM     25  C   UNL     1       4.372   6.751  17.034  0.00  0.00    +0.000 A 
ATOM     26  C   UNL     1       5.144   5.929  16.203  0.00  0.00    +0.000 A 
ATOM     27  C   UNL     1       4.998   4.547  16.264  0.00  0.00    +0.000 A 
ATOM     28  C   UNL     1       4.088   4.000  17.156  0.00  0.00    +0.000 A 
ATOM     29  F   UNL     1       3.942   2.669  17.214  0.00  0.00    +0.000 F 
ATOM     30  C   UNL     1       3.320   4.810  17.986  0.00  0.00    +0.000 A 
ENDBRANCH  22  24
ENDBRANCH  17  18
ENDBRANCH   4  17
TORSDOF 5
ENDMDL
MODEL 6
REMARK VINA RESULT:      -8.4      1.309      2.090
REMARK  Name = 
REMARK  5 active torsions:
REMARK  status: ('A' for Active; 'I' for Inactive)
REMARK    1  A    between atoms: C_2  and  C_10
REMARK    2  A    between atoms: N_3  and  C_4
REMARK    3  A    between atoms: C_13  and  O_14
REMARK    4  A    between atoms: O_14  and  C_15
REMARK    5  A    between atoms: C_19  and  C_20
REMARK                            x       y       z     vdW  Elec       q    Type
REMARK                         _______ _______ _______ _____ _____    ______ ____
ROOT
ATOM      1  C   UNL     1       1.902   8.636  18.623  0.00  0.00    +0.000 A 
ATOM      2  C   UNL     1       2.649   8.220  17.514  0.00  0.00    +0.000 A 
ATOM      3  C   UNL     1       3.344   7.006  17.542  0.00  0.00    +0.000 A 
ATOM      4  C   UNL     1       3.289   6.198  18.679  0.00  0.00    +0.000 A 
ATOM      5  C   UNL     1       2.499   6.589  19.766  0.00  0.00    +0.000 A 
ATOM      6  C   UNL     1       1.821   7.811  19.749  0.00  0.00    +0.000 A 
ENDROOT
BRANCH   1   8
ATOM      7  O   UNL     1      -0.040   9.900  18.239  0.00  0.00    +0.000 OA
ATOM      8  C   UNL     1       1.147   9.917  18.542  0.00  0.00    +0.000 C 
ATOM      9  N   UNL     1       1.855  11.078  18.807  0.00  0.00    +0.000 N 
ATOM     10  H   UNL     1       2.866  11.037  18.792  0.00  0.00    +0.000 HD
BRANCH   9  11
ATOM     11  C   UNL     1       1.213  12.385  18.688  0.00  0.00    +0.000 C 
ATOM     12  C   UNL     1       0.749  12.913  20.054  0.00  0.00    +0.000 C 
ATOM     13  C   UNL     1       1.889  13.444  20.923  0.00  0.00    +0.000 C 
ATOM     14  C   UNL     1       2.743  14.461  20.175  0.00  0.00    +0.000 C 
ATOM     15  C   UNL     1       3.265  13.889  18.862  0.00  0.00    +0.000 C 
ATOM     16  C   UNL     1       2.123  13.394  17.975  0.00  0.00    +0.000 C 
ENDBRANCH   9  11
ENDBRANCH   1   8
BRANCH   4  17
ATOM     17  O   UNL     1       3.963   4.996  18.617  0.00  0.00    +0.000 OA
BRANCH  17  18
ATOM     18  C   UNL     1       5.230   4.988  18.047  0.00  0.00    +0.000 A 
ATOM     19  C   UNL     1       6.291   5.242  18.881  0.00  0.00    +0.000 A 
ATOM     20  C   UNL     1       7.519   5.270  18.270  0.00  0.00    +0.000 A 
ATOM     21  N   UNL     1       7.702   5.055  16.952  0.00  0.00    +0.000 NA
ATOM     22  C   UNL     1       6.600   4.782  16.226  0.00  0.00    +0.000 A 
ATOM     23  N   UNL     1       5.359   4.726  16.734  0.00  0.00    +0.000 NA
BRANCH  22  24
ATOM     24  C   UNL     1       6.741   4.590  14.772  0.00  0.00    +0.000 A 
ATOM     25  C   UNL     1       7.666   5.333  14.012  0.00  0.00    +0.000 A 
ATOM     26  C   UNL     1       7.782   5.162  12.626  0.00  0.00    +0.000 A 
ATOM     27  C   UNL     1       6.970   4.241  11.971  0.00  0.00    +0.000 A 
ATOM     28  C   UNL     1       6.057   3.498  12.704  0.00  0.00    +0.000 A 
ATOM     29  F   UNL     1       5.272   2.614  12.075  0.00  0.00    +0.000 F 
ATOM     30  C   UNL     1       5.939   3.661  14.080  0.00  0.00    +0.000 A 
ENDBRANCH  22  24
ENDBRANCH  17  18
ENDBRANCH   4  17
TORSDOF 5
ENDMDL
MODEL 7
REMARK VINA RESULT:      -8.3      3.880      6.307
REMARK  Name = 
REMARK  5 active torsions:
REMARK  status: ('A' for Active; 'I' for Inactive)
REMARK    1  A    between atoms: C_2  and  C_10
REMARK    2  A    between atoms: N_3  and  C_4
REMARK    3  A    between atoms: C_13  and  O_14
REMARK    4  A    between atoms: O_14  and  C_15
REMARK    5  A    between atoms: C_19  and  C_20
REMARK                            x       y       z     vdW  Elec       q    Type
REMARK                         _______ _______ _______ _____ _____    ______ ____
ROOT
ATOM      1  C   UNL     1      -2.854  11.322  18.040  0.00  0.00    +0.000 A 
ATOM      2  C   UNL     1      -1.969  12.130  18.765  0.00  0.00    +0.000 A 
ATOM      3  C   UNL     1      -0.625  11.765  18.903  0.00  0.00    +0.000 A 
ATOM      4  C   UNL     1      -0.158  10.591  18.309  0.00  0.00    +0.000 A 
ATOM      5  C   UNL     1      -1.030   9.812  17.540  0.00  0.00    +0.000 A 
ATOM      6  C   UNL     1      -2.377  10.163  17.418  0.00  0.00    +0.000 A 
ENDROOT
BRANCH   1   8
ATOM      7  O   UNL     1      -4.818  11.654  16.796  0.00  0.00    +0.000 OA
ATOM      8  C   UNL     1      -4.267  11.762  17.885  0.00  0.00    +0.000 C 
ATOM      9  N   UNL     1      -4.883  12.294  19.006  0.00  0.00    +0.000 N 
ATOM     10  H   UNL     1      -4.300  12.587  19.779  0.00  0.00    +0.000 HD
BRANCH   9  11
ATOM     11  C   UNL     1      -6.248  12.811  18.932  0.00  0.00    +0.000 C 
ATOM     12  C   UNL     1      -7.287  11.693  19.104  0.00  0.00    +0.000 C 
ATOM     13  C   UNL     1      -7.442  11.220  20.549  0.00  0.00    +0.000 C 
ATOM     14  C   UNL     1      -7.689  12.384  21.501  0.00  0.00    +0.000 C 
ATOM     15  C   UNL     1      -6.601  13.444  21.377  0.00  0.00    +0.000 C 
ATOM     16  C   UNL     1      -6.472  13.947  19.940  0.00  0.00    +0.000 C 
ENDBRANCH   9  11
ENDBRANCH   1   8
BRANCH   4  17
ATOM     17  O   UNL     1       1.187  10.319  18.450  0.00  0.00    +0.000 OA
BRANCH  17  18
ATOM     18  C   UNL     1       1.550   9.075  18.951  0.00  0.00    +0.000 A 
ATOM     19  C   UNL     1       1.165   8.784  20.236  0.00  0.00    +0.000 A 
ATOM     20  C   UNL     1       1.583   7.564  20.708  0.00  0.00    +0.000 A 
ATOM     21  N   UNL     1       2.309   6.693  19.980  0.00  0.00    +0.000 NA
ATOM     22  C   UNL     1       2.608   7.060  18.720  0.00  0.00    +0.000 A 
ATOM     23  N   UNL     1       2.238   8.226  18.168  0.00  0.00    +0.000 NA
BRANCH  22  24
ATOM     24  C   UNL     1       3.443   6.163  17.901  0.00  0.00    +0.000 A 
ATOM     25  C   UNL     1       4.424   6.661  17.021  0.00  0.00    +0.000 A 
ATOM     26  C   UNL     1       5.201   5.806  16.229  0.00  0.00    +0.000 A 
ATOM     27  C   UNL     1       5.010   4.430  16.301  0.00  0.00    +0.000 A 
ATOM     28  C   UNL     1       4.052   3.921  17.166  0.00  0.00    +0.000 A 
ATOM     29  F   UNL     1       3.863   2.597  17.234  0.00  0.00    +0.000 F 
ATOM     30  C   UNL     1       3.279   4.765  17.957  0.00  0.00    +0.000 A 
ENDBRANCH  22  24
ENDBRANCH  17  18
ENDBRANCH   4  17
TORSDOF 5
ENDMDL
MODEL 8
REMARK VINA RESULT:      -8.3      4.606     11.122
REMARK  Name = 
REMARK  5 active torsions:
REMARK  status: ('A' for Active; 'I' for Inactive)
REMARK    1  A    between atoms: C_2  and  C_10
REMARK    2  A    between atoms: N_3  and  C_4
REMARK    3  A    between atoms: C_13  and  O_14
REMARK    4  A    between atoms: O_14  and  C_15
REMARK    5  A    between atoms: C_19  and  C_20
REMARK                            x       y       z     vdW  Elec       q    Type
REMARK                         _______ _______ _______ _____ _____    ______ ____
ROOT
ATOM      1  C   UNL     1       2.458   7.306  19.072  0.00  0.00    +0.000 A 
ATOM      2  C   UNL     1       2.367   8.039  17.882  0.00  0.00    +0.000 A 
ATOM      3  C   UNL     1       1.603   9.210  17.827  0.00  0.00    +0.000 A 
ATOM      4  C   UNL     1       0.931   9.657  18.966  0.00  0.00    +0.000 A 
ATOM      5  C   UNL     1       1.066   8.953  20.169  0.00  0.00    +0.000 A 
ATOM      6  C   UNL     1       1.811   7.772  20.221  0.00  0.00    +0.000 A 
ENDROOT
BRANCH   1   8
ATOM      7  O   UNL     1       3.214   5.303  20.039  0.00  0.00    +0.000 OA
ATOM      8  C   UNL     1       3.310   6.085  19.100  0.00  0.00    +0.000 C 
ATOM      9  N   UNL     1       4.191   5.912  18.046  0.00  0.00    +0.000 N 
ATOM     10  H   UNL     1       4.397   6.709  17.458  0.00  0.00    +0.000 HD
BRANCH   9  11
ATOM     11  C   UNL     1       5.111   4.777  18.022  0.00  0.00    +0.000 C 
ATOM     12  C   UNL     1       4.887   3.894  16.785  0.00  0.00    +0.000 C 
ATOM     13  C   UNL     1       5.444   4.495  15.496  0.00  0.00    +0.000 C 
ATOM     14  C   UNL     1       6.903   4.910  15.648  0.00  0.00    +0.000 C 
ATOM     15  C   UNL     1       7.091   5.854  16.829  0.00  0.00    +0.000 C 
ATOM     16  C   UNL     1       6.572   5.237  18.127  0.00  0.00    +0.000 C 
ENDBRANCH   9  11
ENDBRANCH   1   8
BRANCH   4  17
ATOM     17  O   UNL     1       0.234  10.842  18.848  0.00  0.00    +0.000 OA
BRANCH  17  18
ATOM     18  C   UNL     1       0.413  11.804  19.834  0.00  0.00    +0.000 A 
ATOM     19  C   UNL     1       1.622  12.455  19.858  0.00  0.00    +0.000 A 
ATOM     20  C   UNL     1       1.775  13.365  20.874  0.00  0.00    +0.000 A 
ATOM     21  N   UNL     1       0.821  13.628  21.789  0.00  0.00    +0.000 NA
ATOM     22  C   UNL     1      -0.341  12.958  21.659  0.00  0.00    +0.000 A 
ATOM     23  N   UNL     1      -0.587  12.057  20.696  0.00  0.00    +0.000 NA
BRANCH  22  24
ATOM     24  C   UNL     1      -1.397  13.174  22.665  0.00  0.00    +0.000 A 
ATOM     25  C   UNL     1      -2.495  12.299  22.786  0.00  0.00    +0.000 A 
ATOM     26  C   UNL     1      -3.507  12.520  23.729  0.00  0.00    +0.000 A 
ATOM     27  C   UNL     1      -3.442  13.625  24.572  0.00  0.00    +0.000 A 
ATOM     28  C   UNL     1      -2.365  14.494  24.470  0.00  0.00    +0.000 A 
ATOM     29  F   UNL     1      -2.302  15.561  25.277  0.00  0.00    +0.000 F 
ATOM     30  C   UNL     1      -1.356  14.279  23.538  0.00  0.00    +0.000 A 
ENDBRANCH  22  24
ENDBRANCH  17  18
ENDBRANCH   4  17
TORSDOF 5
ENDMDL
MODEL 9
REMARK VINA RESULT:      -8.2      4.028      6.660
REMARK  Name = 
REMARK  5 active torsions:
REMARK  status: ('A' for Active; 'I' for Inactive)
REMARK    1  A    between atoms: C_2  and  C_10
REMARK    2  A    between atoms: N_3  and  C_4
REMARK    3  A    between atoms: C_13  and  O_14
REMARK    4  A    between atoms: O_14  and  C_15
REMARK    5  A    between atoms: C_19  and  C_20
REMARK                            x       y       z     vdW  Elec       q    Type
REMARK                         _______ _______ _______ _____ _____    ______ ____
ROOT
ATOM      1  C   UNL     1      -3.327  11.409  18.509  0.00  0.00    +0.000 A 
ATOM      2  C   UNL     1      -2.778  10.381  17.732  0.00  0.00    +0.000 A 
ATOM      3  C   UNL     1      -1.396  10.159  17.723  0.00  0.00    +0.000 A 
ATOM      4  C   UNL     1      -0.557  10.961  18.499  0.00  0.00    +0.000 A 
ATOM      5  C   UNL     1      -1.111  11.953  19.316  0.00  0.00    +0.000 A 
ATOM      6  C   UNL     1      -2.488  12.191  19.310  0.00  0.00    +0.000 A 
ENDROOT
BRANCH   1   8
ATOM      7  O   UNL     1      -5.535  10.612  18.426  0.00  0.00    +0.000 OA
ATOM      8  C   UNL     1      -4.804  11.591  18.520  0.00  0.00    +0.000 C 
ATOM      9  N   UNL     1      -5.274  12.891  18.622  0.00  0.00    +0.000 N 
ATOM     10  H   UNL     1      -4.630  13.648  18.435  0.00  0.00    +0.000 HD
BRANCH   9  11
ATOM     11  C   UNL     1      -6.707  13.171  18.576  0.00  0.00    +0.000 C 
ATOM     12  C   UNL     1      -7.069  14.404  19.419  0.00  0.00    +0.000 C 
ATOM     13  C   UNL     1      -6.691  15.728  18.757  0.00  0.00    +0.000 C 
ATOM     14  C   UNL     1      -7.232  15.825  17.335  0.00  0.00    +0.000 C 
ATOM     15  C   UNL     1      -6.791  14.636  16.491  0.00  0.00    +0.000 C 
ATOM     16  C   UNL     1      -7.205  13.312  17.131  0.00  0.00    +0.000 C 
ENDBRANCH   9  11
ENDBRANCH   1   8
BRANCH   4  17
ATOM     17  O   UNL     1       0.788  10.654  18.474  0.00  0.00    +0.000 OA
BRANCH  17  18
ATOM     18  C   UNL     1       1.195   9.461  19.057  0.00  0.00    +0.000 A 
ATOM     19  C   UNL     1       0.899   9.284  20.386  0.00  0.00    +0.000 A 
ATOM     20  C   UNL     1       1.358   8.112  20.935  0.00  0.00    +0.000 A 
ATOM     21  N   UNL     1       2.041   7.182  20.240  0.00  0.00    +0.000 NA
ATOM     22  C   UNL     1       2.252   7.436  18.934  0.00  0.00    +0.000 A 
ATOM     23  N   UNL     1       1.836   8.547  18.308  0.00  0.00    +0.000 NA
BRANCH  22  24
ATOM     24  C   UNL     1       3.038   6.472  18.143  0.00  0.00    +0.000 A 
ATOM     25  C   UNL     1       2.701   5.105  18.093  0.00  0.00    +0.000 A 
ATOM     26  C   UNL     1       3.464   4.189  17.357  0.00  0.00    +0.000 A 
ATOM     27  C   UNL     1       4.583   4.623  16.655  0.00  0.00    +0.000 A 
ATOM     28  C   UNL     1       4.927   5.967  16.689  0.00  0.00    +0.000 A 
ATOM     29  F   UNL     1       6.007   6.388  16.017  0.00  0.00    +0.000 F 
ATOM     30  C   UNL     1       4.173   6.882  17.415  0.00  0.00    +0.000 A 
ENDBRANCH  22  24
ENDBRANCH  17  18
ENDBRANCH   4  17
TORSDOF 5
ENDMDL
