MODEL 1
REMARK VINA RESULT:      -8.1      0.000      0.000
REMARK  Name = 
REMARK  5 active torsions:
REMARK  status: ('A' for Active; 'I' for Inactive)
REMARK    1  A    between atoms: N_1  and  S_2
REMARK    2  A    between atoms: S_2  and  C_5
REMARK    3  A    between atoms: C_8  and  N_9
REMARK    4  A    between atoms: N_11  and  C_12
REMARK    5  A    between atoms: C_12  and  C_13
REMARK                            x       y       z     vdW  Elec       q    Type
REMARK                         _______ _______ _______ _____ _____    ______ ____
ROOT
ATOM      1  N   UNL     1       3.165   5.843  18.716  0.00  0.00    +0.000 N 
ATOM      2  C   UNL     1       4.443   5.796  18.033  0.00  0.00    +0.000 C 
ATOM      3  N   UNL     1       5.419   4.967  18.763  0.00  0.00    +0.000 NA
ATOM      4  C   UNL     1       4.918   3.593  18.981  0.00  0.00    +0.000 C 
ATOM      5  C   UNL     1       3.600   3.519  19.743  0.00  0.00    +0.000 C 
ATOM      6  S   UNL     1       2.353   4.389  18.848  0.00  0.00    +0.000 S 
ATOM      7  O   UNL     1       1.196   4.532  19.704  0.00  0.00    +0.000 OA
ATOM      8  O   UNL     1       2.238   3.804  17.525  0.00  0.00    +0.000 OA
ENDROOT
BRANCH   1  12
ATOM      9  C   UNL     1       1.138   9.469  19.302  0.00  0.00    +0.000 A 
ATOM     10  C   UNL     1       1.602   9.124  18.029  0.00  0.00    +0.000 A 
ATOM     11  C   UNL     1       2.269   7.913  17.849  0.00  0.00    +0.000 A 
ATOM     12  C   UNL     1       2.477   7.060  18.936  0.00  0.00    +0.000 A 
ATOM     13  C   UNL     1       2.031   7.413  20.211  0.00  0.00    +0.000 A 
ATOM     14  C   UNL     1       1.359   8.622  20.395  0.00  0.00    +0.000 A 
BRANCH   9  15
ATOM     15  S   UNL     1       0.266  10.988  19.527  0.00  0.00    +0.000 S 
ATOM     16  O   UNL     1       0.681  11.591  20.771  0.00  0.00    +0.000 OA
ATOM     17  O   UNL     1      -1.122  10.801  19.170  0.00  0.00    +0.000 OA
BRANCH  15  18
ATOM     18  N   UNL     1       0.909  11.944  18.303  0.00  0.00    +0.000 NA
ATOM     19  H   UNL     1       0.344  12.788  18.201  0.00  0.00    +0.000 HD
ATOM     20  H   UNL     1       0.987  11.399  17.443  0.00  0.00    +0.000 HD
ENDBRANCH  15  18
ENDBRANCH   9  15
ENDBRANCH   1  12
BRANCH   3  21
ATOM     21  C   UNL     1       6.675   4.961  17.983  0.00  0.00    +0.000 C 
BRANCH  21  22
ATOM     22  C   UNL     1       6.521   4.629  16.515  0.00  0.00    +0.000 A 
ATOM     23  C   UNL     1       5.484   3.784  16.088  0.00  0.00    +0.000 A 
ATOM     24  C   UNL     1       5.294   3.518  14.731  0.00  0.00    +0.000 A 
ATOM     25  C   UNL     1       6.136   4.098  13.784  0.00  0.00    +0.000 A 
ATOM     26  C   UNL     1       7.176   4.929  14.200  0.00  0.00    +0.000 A 
ATOM     27 CL   UNL     1       8.209   5.650  13.028  0.00  0.00    +0.000 Cl
ATOM     28  C   UNL     1       7.376   5.192  15.556  0.00  0.00    +0.000 A 
ENDBRANCH  21  22
ENDBRANCH   3  21
TORSDOF 5
ENDMDL
MODEL 2
REMARK VINA RESULT:      -7.8      0.725      1.376
REMARK  Name = 
REMARK  5 active torsions:
REMARK  status: ('A' for Active; 'I' for Inactive)
REMARK    1  A    between atoms: N_1  and  S_2
REMARK    2  A    between atoms: S_2  and  C_5
REMARK    3  A    between atoms: C_8  and  N_9
REMARK    4  A    between atoms: N_11  and  C_12
REMARK    5  A    between atoms: C_12  and  C_13
REMARK                            x       y       z     vdW  Elec       q    Type
REMARK                         _______ _______ _______ _____ _____    ______ ____
ROOT
ATOM      1  N   UNL     1       3.147   5.908  18.711  0.00  0.00    +0.000 N 
ATOM      2  C   UNL     1       4.427   5.862  18.031  0.00  0.00    +0.000 C 
ATOM      3  N   UNL     1       5.402   5.037  18.765  0.00  0.00    +0.000 NA
ATOM      4  C   UNL     1       4.903   3.661  18.983  0.00  0.00    +0.000 C 
ATOM      5  C   UNL     1       3.584   3.585  19.742  0.00  0.00    +0.000 C 
ATOM      6  S   UNL     1       2.337   4.453  18.843  0.00  0.00    +0.000 S 
ATOM      7  O   UNL     1       1.178   4.594  19.697  0.00  0.00    +0.000 OA
ATOM      8  O   UNL     1       2.227   3.865  17.521  0.00  0.00    +0.000 OA
ENDROOT
BRANCH   1  12
ATOM      9  C   UNL     1       1.087   9.492  19.423  0.00  0.00    +0.000 A 
ATOM     10  C   UNL     1       1.324   8.600  20.474  0.00  0.00    +0.000 A 
ATOM     11  C   UNL     1       2.015   7.416  20.222  0.00  0.00    +0.000 A 
ATOM     12  C   UNL     1       2.456   7.124  18.929  0.00  0.00    +0.000 A 
ATOM     13  C   UNL     1       2.203   8.005  17.876  0.00  0.00    +0.000 A 
ATOM     14  C   UNL     1       1.516   9.194  18.124  0.00  0.00    +0.000 A 
BRANCH   9  15
ATOM     15  S   UNL     1       0.239  11.007  19.744  0.00  0.00    +0.000 S 
ATOM     16  O   UNL     1      -0.984  11.036  18.978  0.00  0.00    +0.000 OA
ATOM     17  O   UNL     1       1.188  12.097  19.748  0.00  0.00    +0.000 OA
BRANCH  15  18
ATOM     18  N   UNL     1      -0.217  10.819  21.351  0.00  0.00    +0.000 NA
ATOM     19  H   UNL     1       0.067  11.643  21.882  0.00  0.00    +0.000 HD
ATOM     20  H   UNL     1       0.165   9.946  21.718  0.00  0.00    +0.000 HD
ENDBRANCH  15  18
ENDBRANCH   9  15
ENDBRANCH   1  12
BRANCH   3  21
ATOM     21  C   UNL     1       6.661   5.032  17.988  0.00  0.00    +0.000 C 
BRANCH  21  22
ATOM     22  C   UNL     1       6.514   4.670  16.526  0.00  0.00    +0.000 A 
ATOM     23  C   UNL     1       5.484   3.809  16.112  0.00  0.00    +0.000 A 
ATOM     24  C   UNL     1       5.301   3.515  14.760  0.00  0.00    +0.000 A 
ATOM     25  C   UNL     1       6.143   4.081  13.805  0.00  0.00    +0.000 A 
ATOM     26  C   UNL     1       7.176   4.927  14.208  0.00  0.00    +0.000 A 
ATOM     27 CL   UNL     1       8.209   5.631  13.025  0.00  0.00    +0.000 Cl
ATOM     28  C   UNL     1       7.369   5.219  15.559  0.00  0.00    +0.000 A 
ENDBRANCH  21  22
ENDBRANCH   3  21
TORSDOF 5
ENDMDL
MODEL 3
REMARK VINA RESULT:      -7.7      5.292      9.466
REMARK  Name = 
REMARK  5 active torsions:
REMARK  status: ('A' for Active; 'I' for Inactive)
REMARK    1  A    between atoms: N_1  and  S_2
REMARK    2  A    between atoms: S_2  and  C_5
REMARK    3  A    between atoms: C_8  and  N_9
REMARK    4  A    between atoms: N_11  and  C_12
REMARK    5  A    between atoms: C_12  and  C_13
REMARK                            x       y       z     vdW  Elec       q    Type
REMARK                         _______ _______ _______ _____ _____    ______ ____
ROOT
ATOM      1  N   UNL     1       0.501  10.984  19.382  0.00  0.00    +0.000 N 
ATOM      2  C   UNL     1       1.203  12.164  19.846  0.00  0.00    +0.000 C 
ATOM      3  N   UNL     1       1.107  13.269  18.874  0.00  0.00    +0.000 NA
ATOM      4  C   UNL     1      -0.299  13.611  18.568  0.00  0.00    +0.000 C 
ATOM      5  C   UNL     1      -1.121  12.452  18.019  0.00  0.00    +0.000 C 
ATOM      6  S   UNL     1      -1.152  11.140  19.199  0.00  0.00    +0.000 S 
ATOM      7  O   UNL     1      -1.705   9.966  18.558  0.00  0.00    +0.000 OA
ATOM      8  O   UNL     1      -1.708  11.647  20.440  0.00  0.00    +0.000 OA
ENDROOT
BRANCH   1  12
ATOM      9  C   UNL     1       2.257   7.174  19.439  0.00  0.00    +0.000 A 
ATOM     10  C   UNL     1       2.297   7.946  18.274  0.00  0.00    +0.000 A 
ATOM     11  C   UNL     1       1.714   9.213  18.273  0.00  0.00    +0.000 A 
ATOM     12  C   UNL     1       1.089   9.696  19.425  0.00  0.00    +0.000 A 
ATOM     13  C   UNL     1       1.031   8.918  20.582  0.00  0.00    +0.000 A 
ATOM     14  C   UNL     1       1.617   7.652  20.590  0.00  0.00    +0.000 A 
BRANCH   9  15
ATOM     15  S   UNL     1       3.021   5.582  19.453  0.00  0.00    +0.000 S 
ATOM     16  O   UNL     1       4.454   5.746  19.515  0.00  0.00    +0.000 OA
ATOM     17  O   UNL     1       2.371   4.729  18.484  0.00  0.00    +0.000 OA
BRANCH  15  18
ATOM     18  N   UNL     1       2.550   4.982  20.951  0.00  0.00    +0.000 NA
ATOM     19  H   UNL     1       1.934   5.656  21.406  0.00  0.00    +0.000 HD
ATOM     20  H   UNL     1       3.375   4.745  21.503  0.00  0.00    +0.000 HD
ENDBRANCH  15  18
ENDBRANCH   9  15
ENDBRANCH   1  12
BRANCH   3  21
ATOM     21  C   UNL     1       1.829  14.428  19.441  0.00  0.00    +0.000 C 
BRANCH  21  22
ATOM     22  C   UNL     1       1.769  15.692  18.611  0.00  0.00    +0.000 A 
ATOM     23  C   UNL     1       2.838  16.032  17.765  0.00  0.00    +0.000 A 
ATOM     24  C   UNL     1       2.769  17.163  16.950  0.00  0.00    +0.000 A 
ATOM     25  C   UNL     1       1.629  17.966  16.968  0.00  0.00    +0.000 A 
ATOM     26  C   UNL     1       0.569  17.642  17.814  0.00  0.00    +0.000 A 
ATOM     27 CL   UNL     1      -0.840  18.630  17.827  0.00  0.00    +0.000 Cl
ATOM     28  C   UNL     1       0.635  16.517  18.637  0.00  0.00    +0.000 A 
ENDBRANCH  21  22
ENDBRANCH   3  21
TORSDOF 5
ENDMDL
MODEL 4
REMARK VINA RESULT:      -7.7      4.527      8.588
REMARK  Name = 
REMARK  5 active torsions:
REMARK  status: ('A' for Active; 'I' for Inactive)
REMARK    1  A    between atoms: N_1  and  S_2
REMARK    2  A    between atoms: S_2  and  C_5
REMARK    3  A    between atoms: C_8  and  N_9
REMARK    4  A    between atoms: N_11  and  C_12
REMARK    5  A    between atoms: C_12  and  C_13
REMARK                            x       y       z     vdW  Elec       q    Type
REMARK                         _______ _______ _______ _____ _____    ______ ____
ROOT
ATOM      1  N   UNL     1       0.545  11.053  19.393  0.00  0.00    +0.000 N 
ATOM      2  C   UNL     1       1.215  12.190  19.995  0.00  0.00    +0.000 C 
ATOM      3  N   UNL     1       1.211  13.359  19.098  0.00  0.00    +0.000 NA
ATOM      4  C   UNL     1      -0.161  13.741  18.699  0.00  0.00    +0.000 C 
ATOM      5  C   UNL     1      -0.944  12.635  18.003  0.00  0.00    +0.000 C 
ATOM      6  S   UNL     1      -1.085  11.245  19.083  0.00  0.00    +0.000 S 
ATOM      7  O   UNL     1      -1.591  10.126  18.318  0.00  0.00    +0.000 OA
ATOM      8  O   UNL     1      -1.739  11.673  20.305  0.00  0.00    +0.000 OA
ENDROOT
BRANCH   1  12
ATOM      9  C   UNL     1       2.224   7.209  19.469  0.00  0.00    +0.000 A 
ATOM     10  C   UNL     1       1.595   7.722  20.608  0.00  0.00    +0.000 A 
ATOM     11  C   UNL     1       1.037   8.999  20.565  0.00  0.00    +0.000 A 
ATOM     12  C   UNL     1       1.117   9.758  19.395  0.00  0.00    +0.000 A 
ATOM     13  C   UNL     1       1.761   9.255  18.263  0.00  0.00    +0.000 A 
ATOM     14  C   UNL     1       2.317   7.976  18.300  0.00  0.00    +0.000 A 
BRANCH   9  15
ATOM     15  S   UNL     1       2.905   5.581  19.510  0.00  0.00    +0.000 S 
ATOM     16  O   UNL     1       4.345   5.672  19.549  0.00  0.00    +0.000 OA
ATOM     17  O   UNL     1       2.198   4.742  18.570  0.00  0.00    +0.000 OA
BRANCH  15  18
ATOM     18  N   UNL     1       2.425   5.040  21.028  0.00  0.00    +0.000 NA
ATOM     19  H   UNL     1       1.530   5.466  21.271  0.00  0.00    +0.000 HD
ATOM     20  H   UNL     1       3.163   5.223  21.709  0.00  0.00    +0.000 HD
ENDBRANCH  15  18
ENDBRANCH   9  15
ENDBRANCH   1  12
BRANCH   3  21
ATOM     21  C   UNL     1       1.892  14.467  19.803  0.00  0.00    +0.000 C 
BRANCH  21  22
ATOM     22  C   UNL     1       3.354  14.647  19.459  0.00  0.00    +0.000 A 
ATOM     23  C   UNL     1       3.772  14.620  18.118  0.00  0.00    +0.000 A 
ATOM     24  C   UNL     1       5.109  14.846  17.783  0.00  0.00    +0.000 A 
ATOM     25  C   UNL     1       6.043  15.103  18.786  0.00  0.00    +0.000 A 
ATOM     26  C   UNL     1       5.639  15.120  20.120  0.00  0.00    +0.000 A 
ATOM     27 CL   UNL     1       6.792  15.447  21.354  0.00  0.00    +0.000 Cl
ATOM     28  C   UNL     1       4.305  14.888  20.461  0.00  0.00    +0.000 A 
ENDBRANCH  21  22
ENDBRANCH   3  21
TORSDOF 5
ENDMDL
MODEL 5
REMARK VINA RESULT:      -7.7      1.468      1.928
REMARK  Name = 
REMARK  5 active torsions:
REMARK  status: ('A' for Active; 'I' for Inactive)
REMARK    1  A    between atoms: N_1  and  S_2
REMARK    2  A    between atoms: S_2  and  C_5
REMARK    3  A    between atoms: C_8  and  N_9
REMARK    4  A    between atoms: N_11  and  C_12
REMARK    5  A    between atoms: C_12  and  C_13
REMARK                            x       y       z     vdW  Elec       q    Type
REMARK                         _______ _______ _______ _____ _____    ______ ____
ROOT
ATOM      1  N   UNL     1       2.483   4.980  19.223  0.00  0.00    +0.000 N 
ATOM      2  C   UNL     1       2.763   4.505  17.882  0.00  0.00    +0.000 C 
ATOM      3  N   UNL     1       4.020   3.737  17.830  0.00  0.00    +0.000 NA
ATOM      4  C   UNL     1       4.007   2.597  18.772  0.00  0.00    +0.000 C 
ATOM      5  C   UNL     1       3.775   2.987  20.226  0.00  0.00    +0.000 C 
ATOM      6  S   UNL     1       2.216   3.801  20.376  0.00  0.00    +0.000 S 
ATOM      7  O   UNL     1       2.137   4.391  21.695  0.00  0.00    +0.000 OA
ATOM      8  O   UNL     1       1.179   2.909  19.892  0.00  0.00    +0.000 OA
ENDROOT
BRANCH   1  12
ATOM      9  C   UNL     1       1.385   8.969  19.922  0.00  0.00    +0.000 A 
ATOM     10  C   UNL     1       1.931   8.598  18.689  0.00  0.00    +0.000 A 
ATOM     11  C   UNL     1       2.286   7.268  18.470  0.00  0.00    +0.000 A 
ATOM     12  C   UNL     1       2.103   6.320  19.480  0.00  0.00    +0.000 A 
ATOM     13  C   UNL     1       1.575   6.692  20.718  0.00  0.00    +0.000 A 
ATOM     14  C   UNL     1       1.214   8.022  20.940  0.00  0.00    +0.000 A 
BRANCH   9  15
ATOM     15  S   UNL     1       0.906  10.647  20.191  0.00  0.00    +0.000 S 
ATOM     16  O   UNL     1       1.400  11.459  19.106  0.00  0.00    +0.000 OA
ATOM     17  O   UNL     1       1.110  10.986  21.581  0.00  0.00    +0.000 OA
BRANCH  15  18
ATOM     18  N   UNL     1      -0.763  10.569  20.000  0.00  0.00    +0.000 NA
ATOM     19  H   UNL     1      -0.981  10.357  19.026  0.00  0.00    +0.000 HD
ATOM     20  H   UNL     1      -1.190  11.433  20.336  0.00  0.00    +0.000 HD
ENDBRANCH  15  18
ENDBRANCH   9  15
ENDBRANCH   1  12
BRANCH   3  21
ATOM     21  C   UNL     1       4.207   3.278  16.437  0.00  0.00    +0.000 C 
BRANCH  21  22
ATOM     22  C   UNL     1       5.323   3.962  15.678  0.00  0.00    +0.000 A 
ATOM     23  C   UNL     1       6.186   4.851  16.341  0.00  0.00    +0.000 A 
ATOM     24  C   UNL     1       7.256   5.442  15.666  0.00  0.00    +0.000 A 
ATOM     25  C   UNL     1       7.478   5.148  14.322  0.00  0.00    +0.000 A 
ATOM     26  C   UNL     1       6.620   4.277  13.653  0.00  0.00    +0.000 A 
ATOM     27 CL   UNL     1       6.902   3.910  11.995  0.00  0.00    +0.000 Cl
ATOM     28  C   UNL     1       5.544   3.689  14.320  0.00  0.00    +0.000 A 
ENDBRANCH  21  22
ENDBRANCH   3  21
TORSDOF 5
ENDMDL
MODEL 6
REMARK VINA RESULT:      -7.7      5.576     10.233
REMARK  Name = 
REMARK  5 active torsions:
REMARK  status: ('A' for Active; 'I' for Inactive)
REMARK    1  A    between atoms: N_1  and  S_2
REMARK    2  A    between atoms: S_2  and  C_5
REMARK    3  A    between atoms: C_8  and  N_9
REMARK    4  A    between atoms: N_11  and  C_12
REMARK    5  A    between atoms: C_12  and  C_13
REMARK                            x       y       z     vdW  Elec       q    Type
REMARK                         _______ _______ _______ _____ _____    ______ ____
ROOT
ATOM      1  N   UNL     1       0.126  10.885  19.490  0.00  0.00    +0.000 N 
ATOM      2  C   UNL     1      -0.994  11.122  18.600  0.00  0.00    +0.000 C 
ATOM      3  N   UNL     1      -2.135  11.725  19.311  0.00  0.00    +0.000 NA
ATOM      4  C   UNL     1      -1.757  12.986  19.986  0.00  0.00    +0.000 C 
ATOM      5  C   UNL     1      -0.620  12.845  20.990  0.00  0.00    +0.000 C 
ATOM      6  S   UNL     1       0.822  12.244  20.168  0.00  0.00    +0.000 S 
ATOM      7  O   UNL     1       1.794  11.870  21.172  0.00  0.00    +0.000 OA
ATOM      8  O   UNL     1       1.164  13.167  19.102  0.00  0.00    +0.000 OA
ENDROOT
BRANCH   1  12
ATOM      9  C   UNL     1       2.162   7.219  19.625  0.00  0.00    +0.000 A 
ATOM     10  C   UNL     1       1.429   7.655  20.734  0.00  0.00    +0.000 A 
ATOM     11  C   UNL     1       0.753   8.873  20.672  0.00  0.00    +0.000 A 
ATOM     12  C   UNL     1       0.819   9.651  19.513  0.00  0.00    +0.000 A 
ATOM     13  C   UNL     1       1.565   9.225  18.412  0.00  0.00    +0.000 A 
ATOM     14  C   UNL     1       2.239   8.005  18.468  0.00  0.00    +0.000 A 
BRANCH   9  15
ATOM     15  S   UNL     1       2.993   5.663  19.690  0.00  0.00    +0.000 S 
ATOM     16  O   UNL     1       2.516   4.919  20.832  0.00  0.00    +0.000 OA
ATOM     17  O   UNL     1       4.398   5.858  19.413  0.00  0.00    +0.000 OA
BRANCH  15  18
ATOM     18  N   UNL     1       2.383   4.884  18.331  0.00  0.00    +0.000 NA
ATOM     19  H   UNL     1       2.635   5.413  17.496  0.00  0.00    +0.000 HD
ATOM     20  H   UNL     1       1.377   4.743  18.437  0.00  0.00    +0.000 HD
ENDBRANCH  15  18
ENDBRANCH   9  15
ENDBRANCH   1  12
BRANCH   3  21
ATOM     21  C   UNL     1      -3.212  11.948  18.324  0.00  0.00    +0.000 C 
BRANCH  21  22
ATOM     22  C   UNL     1      -4.617  11.724  18.841  0.00  0.00    +0.000 A 
ATOM     23  C   UNL     1      -5.491  10.861  18.159  0.00  0.00    +0.000 A 
ATOM     24  C   UNL     1      -6.767  10.600  18.659  0.00  0.00    +0.000 A 
ATOM     25  C   UNL     1      -7.184  11.195  19.848  0.00  0.00    +0.000 A 
ATOM     26  C   UNL     1      -6.328  12.062  20.525  0.00  0.00    +0.000 A 
ATOM     27 CL   UNL     1      -6.842  12.789  21.998  0.00  0.00    +0.000 Cl
ATOM     28  C   UNL     1      -5.053  12.334  20.026  0.00  0.00    +0.000 A 
ENDBRANCH  21  22
ENDBRANCH   3  21
TORSDOF 5
ENDMDL
MODEL 7
REMARK VINA RESULT:      -7.6      5.591     10.204
REMARK  Name = 
REMARK  5 active torsions:
REMARK  status: ('A' for Active; 'I' for Inactive)
REMARK    1  A    between atoms: N_1  and  S_2
REMARK    2  A    between atoms: S_2  and  C_5
REMARK    3  A    between atoms: C_8  and  N_9
REMARK    4  A    between atoms: N_11  and  C_12
REMARK    5  A    between atoms: C_12  and  C_13
REMARK                            x       y       z     vdW  Elec       q    Type
REMARK                         _______ _______ _______ _____ _____    ______ ____
ROOT
ATOM      1  N   UNL     1       0.132  10.961  19.400  0.00  0.00    +0.000 N 
ATOM      2  C   UNL     1      -1.004  11.274  18.556  0.00  0.00    +0.000 C 
ATOM      3  N   UNL     1      -2.175  11.682  19.352  0.00  0.00    +0.000 NA
ATOM      4  C   UNL     1      -1.870  12.834  20.228  0.00  0.00    +0.000 C 
ATOM      5  C   UNL     1      -0.722  12.596  21.201  0.00  0.00    +0.000 C 
ATOM      6  S   UNL     1       0.749  12.228  20.296  0.00  0.00    +0.000 S 
ATOM      7  O   UNL     1       1.747  11.751  21.229  0.00  0.00    +0.000 OA
ATOM      8  O   UNL     1       1.030  13.334  19.399  0.00  0.00    +0.000 OA
ENDROOT
BRANCH   1  12
ATOM      9  C   UNL     1       2.408   7.488  18.799  0.00  0.00    +0.000 A 
ATOM     10  C   UNL     1       2.250   8.410  17.760  0.00  0.00    +0.000 A 
ATOM     11  C   UNL     1       1.495   9.563  17.977  0.00  0.00    +0.000 A 
ATOM     12  C   UNL     1       0.898   9.784  19.220  0.00  0.00    +0.000 A 
ATOM     13  C   UNL     1       1.039   8.854  20.252  0.00  0.00    +0.000 A 
ATOM     14  C   UNL     1       1.798   7.702  20.041  0.00  0.00    +0.000 A 
BRANCH   9  15
ATOM     15  S   UNL     1       3.389   6.043  18.537  0.00  0.00    +0.000 S 
ATOM     16  O   UNL     1       2.641   5.104  17.736  0.00  0.00    +0.000 OA
ATOM     17  O   UNL     1       4.041   5.676  19.773  0.00  0.00    +0.000 OA
BRANCH  15  18
ATOM     18  N   UNL     1       4.618   6.630  17.551  0.00  0.00    +0.000 NA
ATOM     19  H   UNL     1       4.241   6.831  16.625  0.00  0.00    +0.000 HD
ATOM     20  H   UNL     1       5.397   5.970  17.541  0.00  0.00    +0.000 HD
ENDBRANCH  15  18
ENDBRANCH   9  15
ENDBRANCH   1  12
BRANCH   3  21
ATOM     21  C   UNL     1      -3.270  12.001  18.410  0.00  0.00    +0.000 C 
BRANCH  21  22
ATOM     22  C   UNL     1      -4.665  11.724  18.926  0.00  0.00    +0.000 A 
ATOM     23  C   UNL     1      -5.499  10.816  18.253  0.00  0.00    +0.000 A 
ATOM     24  C   UNL     1      -6.765  10.506  18.752  0.00  0.00    +0.000 A 
ATOM     25  C   UNL     1      -7.211  11.098  19.933  0.00  0.00    +0.000 A 
ATOM     26  C   UNL     1      -6.395  12.009  20.602  0.00  0.00    +0.000 A 
ATOM     27 CL   UNL     1      -6.945  12.731  22.064  0.00  0.00    +0.000 Cl
ATOM     28  C   UNL     1      -5.131  12.328  20.103  0.00  0.00    +0.000 A 
ENDBRANCH  21  22
ENDBRANCH   3  21
TORSDOF 5
ENDMDL
MODEL 8
REMARK VINA RESULT:      -7.6      1.169      1.345
REMARK  Name = 
REMARK  5 active torsions:
REMARK  status: ('A' for Active; 'I' for Inactive)
REMARK    1  A    between atoms: N_1  and  S_2
REMARK    2  A    between atoms: S_2  and  C_5
REMARK    3  A    between atoms: C_8  and  N_9
REMARK    4  A    between atoms: N_11  and  C_12
REMARK    5  A    between atoms: C_12  and  C_13
REMARK                            x       y       z     vdW  Elec       q    Type
REMARK                         _______ _______ _______ _____ _____    ______ ____
ROOT
ATOM      1  N   UNL     1       2.700   5.478  19.296  0.00  0.00    +0.000 N 
ATOM      2  C   UNL     1       3.887   5.245  18.496  0.00  0.00    +0.000 C 
ATOM      3  N   UNL     1       4.838   4.354  19.184  0.00  0.00    +0.000 NA
ATOM      4  C   UNL     1       4.217   3.061  19.545  0.00  0.00    +0.000 C 
ATOM      5  C   UNL     1       2.987   3.183  20.436  0.00  0.00    +0.000 C 
ATOM      6  S   UNL     1       1.753   4.138  19.608  0.00  0.00    +0.000 S 
ATOM      7  O   UNL     1       0.715   4.461  20.562  0.00  0.00    +0.000 OA
ATOM      8  O   UNL     1       1.438   3.492  18.347  0.00  0.00    +0.000 OA
ENDROOT
BRANCH   1  12
ATOM      9  C   UNL     1       1.161   9.345  19.826  0.00  0.00    +0.000 A 
ATOM     10  C   UNL     1       1.641   8.948  18.575  0.00  0.00    +0.000 A 
ATOM     11  C   UNL     1       2.144   7.657  18.413  0.00  0.00    +0.000 A 
ATOM     12  C   UNL     1       2.174   6.777  19.497  0.00  0.00    +0.000 A 
ATOM     13  C   UNL     1       1.713   7.179  20.752  0.00  0.00    +0.000 A 
ATOM     14  C   UNL     1       1.204   8.468  20.917  0.00  0.00    +0.000 A 
BRANCH   9  15
ATOM     15  S   UNL     1       0.495  10.968  20.027  0.00  0.00    +0.000 S 
ATOM     16  O   UNL     1       1.207  11.644  21.085  0.00  0.00    +0.000 OA
ATOM     17  O   UNL     1      -0.948  10.904  19.968  0.00  0.00    +0.000 OA
BRANCH  15  18
ATOM     18  N   UNL     1       0.959  11.715  18.594  0.00  0.00    +0.000 NA
ATOM     19  H   UNL     1       1.917  11.446  18.368  0.00  0.00    +0.000 HD
ATOM     20  H   UNL     1       0.826  12.724  18.672  0.00  0.00    +0.000 HD
ENDBRANCH  15  18
ENDBRANCH   9  15
ENDBRANCH   1  12
BRANCH   3  21
ATOM     21  C   UNL     1       5.998   4.159  18.287  0.00  0.00    +0.000 C 
BRANCH  21  22
ATOM     22  C   UNL     1       5.816   4.676  16.877  0.00  0.00    +0.000 A 
ATOM     23  C   UNL     1       5.512   6.030  16.655  0.00  0.00    +0.000 A 
ATOM     24  C   UNL     1       5.402   6.532  15.358  0.00  0.00    +0.000 A 
ATOM     25  C   UNL     1       5.598   5.688  14.266  0.00  0.00    +0.000 A 
ATOM     26  C   UNL     1       5.888   4.341  14.476  0.00  0.00    +0.000 A 
ATOM     27 CL   UNL     1       6.137   3.303  13.126  0.00  0.00    +0.000 Cl
ATOM     28  C   UNL     1       5.992   3.831  15.771  0.00  0.00    +0.000 A 
ENDBRANCH  21  22
ENDBRANCH   3  21
TORSDOF 5
ENDMDL
MODEL 9
REMARK VINA RESULT:      -7.6      5.284      9.771
REMARK  Name = 
REMARK  5 active torsions:
REMARK  status: ('A' for Active; 'I' for Inactive)
REMARK    1  A    between atoms: N_1  and  S_2
REMARK    2  A    between atoms: S_2  and  C_5
REMARK    3  A    between atoms: C_8  and  N_9
REMARK    4  A    between atoms: N_11  and  C_12
REMARK    5  A    between atoms: C_12  and  C_13
REMARK                            x       y       z     vdW  Elec       q    Type
REMARK                         _______ _______ _______ _____ _____    ______ ____
ROOT
ATOM      1  N   UNL     1       0.252  10.220  19.217  0.00  0.00    +0.000 N 
ATOM      2  C   UNL     1      -0.667  10.447  18.119  0.00  0.00    +0.000 C 
ATOM      3  N   UNL     1      -1.991  10.879  18.599  0.00  0.00    +0.000 NA
ATOM      4  C   UNL     1      -1.901  12.096  19.436  0.00  0.00    +0.000 C 
ATOM      5  C   UNL     1      -1.000  11.954  20.656  0.00  0.00    +0.000 C 
ATOM      6  S   UNL     1       0.640  11.560  20.135  0.00  0.00    +0.000 S 
ATOM      7  O   UNL     1       1.406  11.173  21.300  0.00  0.00    +0.000 OA
ATOM      8  O   UNL     1       1.107  12.608  19.247  0.00  0.00    +0.000 OA
ENDROOT
BRANCH   1  12
ATOM      9  C   UNL     1       2.624   6.764  19.394  0.00  0.00    +0.000 A 
ATOM     10  C   UNL     1       2.543   7.498  18.206  0.00  0.00    +0.000 A 
ATOM     11  C   UNL     1       1.755   8.648  18.165  0.00  0.00    +0.000 A 
ATOM     12  C   UNL     1       1.048   9.052  19.300  0.00  0.00    +0.000 A 
ATOM     13  C   UNL     1       1.113   8.309  20.481  0.00  0.00    +0.000 A 
ATOM     14  C   UNL     1       1.905   7.161  20.528  0.00  0.00    +0.000 A 
BRANCH   9  15
ATOM     15  S   UNL     1       3.646   5.325  19.458  0.00  0.00    +0.000 S 
ATOM     16  O   UNL     1       3.003   4.326  20.279  0.00  0.00    +0.000 OA
ATOM     17  O   UNL     1       5.023   5.723  19.641  0.00  0.00    +0.000 OA
BRANCH  15  18
ATOM     18  N   UNL     1       3.558   4.763  17.876  0.00  0.00    +0.000 NA
ATOM     19  H   UNL     1       3.961   3.827  17.827  0.00  0.00    +0.000 HD
ATOM     20  H   UNL     1       4.002   5.433  17.247  0.00  0.00    +0.000 HD
ENDBRANCH  15  18
ENDBRANCH   9  15
ENDBRANCH   1  12
BRANCH   3  21
ATOM     21  C   UNL     1      -2.846  11.106  17.415  0.00  0.00    +0.000 C 
BRANCH  21  22
ATOM     22  C   UNL     1      -4.321  11.279  17.709  0.00  0.00    +0.000 A 
ATOM     23  C   UNL     1      -5.052  12.297  17.074  0.00  0.00    +0.000 A 
ATOM     24  C   UNL     1      -6.425  12.429  17.290  0.00  0.00    +0.000 A 
ATOM     25  C   UNL     1      -7.083  11.543  18.142  0.00  0.00    +0.000 A 
ATOM     26  C   UNL     1      -6.363  10.537  18.785  0.00  0.00    +0.000 A 
ATOM     27 CL   UNL     1      -7.180   9.440  19.829  0.00  0.00    +0.000 Cl
ATOM     28  C   UNL     1      -4.989  10.405  18.579  0.00  0.00    +0.000 A 
ENDBRANCH  21  22
ENDBRANCH   3  21
TORSDOF 5
ENDMDL
