MODEL 1
REMARK VINA RESULT:      -7.1      0.000      0.000
REMARK  Name = 
REMARK  10 active torsions:
REMARK  status: ('A' for Active; 'I' for Inactive)
REMARK    1  A    between atoms: C_1  and  O_2
REMARK    2  A    between atoms: O_2  and  C_3
REMARK    3  A    between atoms: C_6  and  C_7
REMARK    4  A    between atoms: C_7  and  C_8
REMARK    5  A    between atoms: C_13  and  C_14
REMARK    6  A    between atoms: C_14  and  C_15
REMARK    7  A    between atoms: C_18  and  O_19
REMARK    8  A    between atoms: O_19  and  C_20
REMARK    9  A    between atoms: C_21  and  O_22
REMARK   10  A    between atoms: O_22  and  C_23
REMARK                            x       y       z     vdW  Elec       q    Type
REMARK                         _______ _______ _______ _____ _____    ______ ____
ROOT
ATOM      1  C   UNL     1       5.701   4.661  16.924  0.00  0.00    +0.000 C 
ATOM      2  C   UNL     1       7.036   4.662  16.230  0.00  0.00    +0.000 C 
ATOM      3  O   UNL     1       8.070   4.184  16.667  0.00  0.00    +0.000 OA
ATOM      4  O   UNL     1       6.955   5.298  15.031  0.00  0.00    +0.000 OA
ATOM      5  C   UNL     1       5.607   5.663  14.762  0.00  0.00    +0.000 C 
ATOM      6  C   UNL     1       4.890   5.668  16.098  0.00  0.00    +0.000 C 
ENDROOT
BRANCH   1   7
ATOM      7  C   UNL     1       5.028   3.281  16.932  0.00  0.00    +0.000 C 
BRANCH   7  11
ATOM      8  C   UNL     1       1.944   2.737  19.924  0.00  0.00    +0.000 A 
ATOM      9  C   UNL     1       1.599   2.925  18.585  0.00  0.00    +0.000 A 
ATOM     10  C   UNL     1       2.587   3.082  17.607  0.00  0.00    +0.000 A 
ATOM     11  C   UNL     1       3.941   3.087  17.962  0.00  0.00    +0.000 A 
ATOM     12  C   UNL     1       4.280   2.890  19.308  0.00  0.00    +0.000 A 
ATOM     13  C   UNL     1       3.290   2.719  20.283  0.00  0.00    +0.000 A 
BRANCH   8  15
ATOM     14  C   UNL     1       1.219   2.509  22.167  0.00  0.00    +0.000 C 
ATOM     15  O   UNL     1       0.889   2.627  20.787  0.00  0.00    +0.000 OA
ENDBRANCH   8  15
ENDBRANCH   7  11
ENDBRANCH   1   7
BRANCH   6  16
ATOM     16  C   UNL     1       4.877   7.086  16.704  0.00  0.00    +0.000 C 
BRANCH  16  17
ATOM     17  C   UNL     1       3.768   7.278  17.713  0.00  0.00    +0.000 A 
ATOM     18  C   UNL     1       3.646   6.452  18.831  0.00  0.00    +0.000 A 
ATOM     19  C   UNL     1       2.655   6.704  19.781  0.00  0.00    +0.000 A 
ATOM     20  C   UNL     1       1.771   7.785  19.646  0.00  0.00    +0.000 A 
ATOM     21  C   UNL     1       1.874   8.609  18.516  0.00  0.00    +0.000 A 
ATOM     22  C   UNL     1       2.852   8.326  17.548  0.00  0.00    +0.000 A 
BRANCH  20  23
ATOM     23  O   UNL     1       0.905   7.881  20.704  0.00  0.00    +0.000 OA
ATOM     24  C   UNL     1       1.246   8.731  21.789  0.00  0.00    +0.000 C 
ENDBRANCH  20  23
BRANCH  21  25
ATOM     25  O   UNL     1       0.994   9.647  18.349  0.00  0.00    +0.000 OA
ATOM     26  C   UNL     1       1.480  10.935  18.721  0.00  0.00    +0.000 C 
ENDBRANCH  21  25
ENDBRANCH  16  17
ENDBRANCH   6  16
TORSDOF 7
ENDMDL
MODEL 2
REMARK VINA RESULT:      -7.0      0.469      1.053
REMARK  Name = 
REMARK  10 active torsions:
REMARK  status: ('A' for Active; 'I' for Inactive)
REMARK    1  A    between atoms: C_1  and  O_2
REMARK    2  A    between atoms: O_2  and  C_3
REMARK    3  A    between atoms: C_6  and  C_7
REMARK    4  A    between atoms: C_7  and  C_8
REMARK    5  A    between atoms: C_13  and  C_14
REMARK    6  A    between atoms: C_14  and  C_15
REMARK    7  A    between atoms: C_18  and  O_19
REMARK    8  A    between atoms: O_19  and  C_20
REMARK    9  A    between atoms: C_21  and  O_22
REMARK   10  A    between atoms: O_22  and  C_23
REMARK                            x       y       z     vdW  Elec       q    Type
REMARK                         _______ _______ _______ _____ _____    ______ ____
ROOT
ATOM      1  C   UNL     1       5.688   4.738  16.832  0.00  0.00    +0.000 C 
ATOM      2  C   UNL     1       6.968   4.779  16.042  0.00  0.00    +0.000 C 
ATOM      3  O   UNL     1       8.032   4.282  16.377  0.00  0.00    +0.000 OA
ATOM      4  O   UNL     1       6.800   5.476  14.888  0.00  0.00    +0.000 OA
ATOM      5  C   UNL     1       5.436   5.850  14.738  0.00  0.00    +0.000 C 
ATOM      6  C   UNL     1       4.819   5.784  16.122  0.00  0.00    +0.000 C 
ENDROOT
BRANCH   1   7
ATOM      7  C   UNL     1       5.016   3.357  16.818  0.00  0.00    +0.000 C 
BRANCH   7  11
ATOM      8  C   UNL     1       1.832   2.754  19.691  0.00  0.00    +0.000 A 
ATOM      9  C   UNL     1       3.166   2.688  20.096  0.00  0.00    +0.000 A 
ATOM     10  C   UNL     1       4.203   2.901  19.181  0.00  0.00    +0.000 A 
ATOM     11  C   UNL     1       3.918   3.150  17.833  0.00  0.00    +0.000 A 
ATOM     12  C   UNL     1       2.575   3.221  17.435  0.00  0.00    +0.000 A 
ATOM     13  C   UNL     1       1.539   3.023  18.356  0.00  0.00    +0.000 A 
BRANCH   8  15
ATOM     14  C   UNL     1       1.323   2.778  22.004  0.00  0.00    +0.000 C 
ATOM     15  O   UNL     1       0.913   2.497  20.670  0.00  0.00    +0.000 OA
ENDBRANCH   8  15
ENDBRANCH   7  11
ENDBRANCH   1   7
BRANCH   6  16
ATOM     16  C   UNL     1       4.851   7.168  16.800  0.00  0.00    +0.000 C 
BRANCH  16  17
ATOM     17  C   UNL     1       3.730   7.355  17.796  0.00  0.00    +0.000 A 
ATOM     18  C   UNL     1       3.500   6.434  18.819  0.00  0.00    +0.000 A 
ATOM     19  C   UNL     1       2.503   6.677  19.765  0.00  0.00    +0.000 A 
ATOM     20  C   UNL     1       1.721   7.840  19.722  0.00  0.00    +0.000 A 
ATOM     21  C   UNL     1       1.933   8.762  18.686  0.00  0.00    +0.000 A 
ATOM     22  C   UNL     1       2.915   8.493  17.719  0.00  0.00    +0.000 A 
BRANCH  20  23
ATOM     23  O   UNL     1       0.831   7.906  20.762  0.00  0.00    +0.000 OA
ATOM     24  C   UNL     1       1.170   8.684  21.901  0.00  0.00    +0.000 C 
ENDBRANCH  20  23
BRANCH  21  25
ATOM     25  O   UNL     1       1.152   9.887  18.607  0.00  0.00    +0.000 OA
ATOM     26  C   UNL     1      -0.107   9.721  17.959  0.00  0.00    +0.000 C 
ENDBRANCH  21  25
ENDBRANCH  16  17
ENDBRANCH   6  16
TORSDOF 7
ENDMDL
MODEL 3
REMARK VINA RESULT:      -6.9      1.507      6.256
REMARK  Name = 
REMARK  10 active torsions:
REMARK  status: ('A' for Active; 'I' for Inactive)
REMARK    1  A    between atoms: C_1  and  O_2
REMARK    2  A    between atoms: O_2  and  C_3
REMARK    3  A    between atoms: C_6  and  C_7
REMARK    4  A    between atoms: C_7  and  C_8
REMARK    5  A    between atoms: C_13  and  C_14
REMARK    6  A    between atoms: C_14  and  C_15
REMARK    7  A    between atoms: C_18  and  O_19
REMARK    8  A    between atoms: O_19  and  C_20
REMARK    9  A    between atoms: C_21  and  O_22
REMARK   10  A    between atoms: O_22  and  C_23
REMARK                            x       y       z     vdW  Elec       q    Type
REMARK                         _______ _______ _______ _____ _____    ______ ____
ROOT
ATOM      1  C   UNL     1       2.615   3.862  20.478  0.00  0.00    +0.000 C 
ATOM      2  C   UNL     1       1.929   2.608  20.951  0.00  0.00    +0.000 C 
ATOM      3  O   UNL     1       1.945   2.170  22.090  0.00  0.00    +0.000 OA
ATOM      4  O   UNL     1       1.291   1.991  19.922  0.00  0.00    +0.000 OA
ATOM      5  C   UNL     1       1.379   2.787  18.746  0.00  0.00    +0.000 C 
ATOM      6  C   UNL     1       2.550   3.727  18.952  0.00  0.00    +0.000 C 
ENDROOT
BRANCH   1   7
ATOM      7  C   UNL     1       1.917   5.145  20.952  0.00  0.00    +0.000 C 
BRANCH   7  11
ATOM      8  C   UNL     1       2.144   8.554  18.291  0.00  0.00    +0.000 A 
ATOM      9  C   UNL     1       2.461   7.277  17.826  0.00  0.00    +0.000 A 
ATOM     10  C   UNL     1       2.371   6.165  18.671  0.00  0.00    +0.000 A 
ATOM     11  C   UNL     1       1.995   6.322  20.010  0.00  0.00    +0.000 A 
ATOM     12  C   UNL     1       1.673   7.607  20.469  0.00  0.00    +0.000 A 
ATOM     13  C   UNL     1       1.748   8.716  19.617  0.00  0.00    +0.000 A 
BRANCH   8  15
ATOM     14  C   UNL     1       2.133  10.885  17.874  0.00  0.00    +0.000 C 
ATOM     15  O   UNL     1       2.301   9.561  17.379  0.00  0.00    +0.000 OA
ENDBRANCH   8  15
ENDBRANCH   7  11
ENDBRANCH   1   7
BRANCH   6  16
ATOM     16  C   UNL     1       3.835   3.141  18.334  0.00  0.00    +0.000 C 
BRANCH  16  17
ATOM     17  C   UNL     1       4.827   4.207  17.931  0.00  0.00    +0.000 A 
ATOM     18  C   UNL     1       5.574   4.907  18.880  0.00  0.00    +0.000 A 
ATOM     19  C   UNL     1       6.535   5.832  18.469  0.00  0.00    +0.000 A 
ATOM     20  C   UNL     1       6.781   6.075  17.109  0.00  0.00    +0.000 A 
ATOM     21  C   UNL     1       6.022   5.389  16.149  0.00  0.00    +0.000 A 
ATOM     22  C   UNL     1       5.034   4.486  16.573  0.00  0.00    +0.000 A 
BRANCH  20  23
ATOM     23  O   UNL     1       7.789   6.984  16.919  0.00  0.00    +0.000 OA
ATOM     24  C   UNL     1       7.693   8.251  17.552  0.00  0.00    +0.000 C 
ENDBRANCH  20  23
BRANCH  21  25
ATOM     25  O   UNL     1       6.224   5.642  14.816  0.00  0.00    +0.000 OA
ATOM     26  C   UNL     1       6.608   4.520  14.026  0.00  0.00    +0.000 C 
ENDBRANCH  21  25
ENDBRANCH  16  17
ENDBRANCH   6  16
TORSDOF 7
ENDMDL
MODEL 4
REMARK VINA RESULT:      -6.8      1.630      6.588
REMARK  Name = 
REMARK  10 active torsions:
REMARK  status: ('A' for Active; 'I' for Inactive)
REMARK    1  A    between atoms: C_1  and  O_2
REMARK    2  A    between atoms: O_2  and  C_3
REMARK    3  A    between atoms: C_6  and  C_7
REMARK    4  A    between atoms: C_7  and  C_8
REMARK    5  A    between atoms: C_13  and  C_14
REMARK    6  A    between atoms: C_14  and  C_15
REMARK    7  A    between atoms: C_18  and  O_19
REMARK    8  A    between atoms: O_19  and  C_20
REMARK    9  A    between atoms: C_21  and  O_22
REMARK   10  A    between atoms: O_22  and  C_23
REMARK                            x       y       z     vdW  Elec       q    Type
REMARK                         _______ _______ _______ _____ _____    ______ ____
ROOT
ATOM      1  C   UNL     1       2.683   4.574  20.708  0.00  0.00    +0.000 C 
ATOM      2  C   UNL     1       2.312   3.218  21.246  0.00  0.00    +0.000 C 
ATOM      3  O   UNL     1       2.003   2.966  22.400  0.00  0.00    +0.000 OA
ATOM      4  O   UNL     1       2.387   2.276  20.270  0.00  0.00    +0.000 OA
ATOM      5  C   UNL     1       2.683   2.889  19.021  0.00  0.00    +0.000 C 
ATOM      6  C   UNL     1       3.294   4.240  19.341  0.00  0.00    +0.000 C 
ENDROOT
BRANCH   1   7
ATOM      7  C   UNL     1       1.478   5.514  20.562  0.00  0.00    +0.000 C 
BRANCH   7  11
ATOM      8  C   UNL     1       2.172   9.162  18.334  0.00  0.00    +0.000 A 
ATOM      9  C   UNL     1       2.547   7.930  17.798  0.00  0.00    +0.000 A 
ATOM     10  C   UNL     1       2.309   6.743  18.500  0.00  0.00    +0.000 A 
ATOM     11  C   UNL     1       1.721   6.776  19.770  0.00  0.00    +0.000 A 
ATOM     12  C   UNL     1       1.341   8.018  20.299  0.00  0.00    +0.000 A 
ATOM     13  C   UNL     1       1.566   9.203  19.588  0.00  0.00    +0.000 A 
BRANCH   8  15
ATOM     14  C   UNL     1       2.243  11.523  18.156  0.00  0.00    +0.000 C 
ATOM     15  O   UNL     1       2.485  10.250  17.567  0.00  0.00    +0.000 OA
ENDBRANCH   8  15
ENDBRANCH   7  11
ENDBRANCH   1   7
BRANCH   6  16
ATOM     16  C   UNL     1       4.833   4.150  19.364  0.00  0.00    +0.000 C 
BRANCH  16  17
ATOM     17  C   UNL     1       5.455   4.461  18.023  0.00  0.00    +0.000 A 
ATOM     18  C   UNL     1       5.110   3.747  16.874  0.00  0.00    +0.000 A 
ATOM     19  C   UNL     1       5.647   4.110  15.638  0.00  0.00    +0.000 A 
ATOM     20  C   UNL     1       6.530   5.192  15.515  0.00  0.00    +0.000 A 
ATOM     21  C   UNL     1       6.897   5.904  16.667  0.00  0.00    +0.000 A 
ATOM     22  C   UNL     1       6.378   5.510  17.910  0.00  0.00    +0.000 A 
BRANCH  20  23
ATOM     23  O   UNL     1       6.908   5.408  14.215  0.00  0.00    +0.000 OA
ATOM     24  C   UNL     1       6.794   4.340  13.286  0.00  0.00    +0.000 C 
ENDBRANCH  20  23
BRANCH  21  25
ATOM     25  O   UNL     1       7.788   6.942  16.569  0.00  0.00    +0.000 OA
ATOM     26  C   UNL     1       7.782   7.866  17.654  0.00  0.00    +0.000 C 
ENDBRANCH  21  25
ENDBRANCH  16  17
ENDBRANCH   6  16
TORSDOF 7
ENDMDL
MODEL 5
REMARK VINA RESULT:      -6.8      1.649      5.169
REMARK  Name = 
REMARK  10 active torsions:
REMARK  status: ('A' for Active; 'I' for Inactive)
REMARK    1  A    between atoms: C_1  and  O_2
REMARK    2  A    between atoms: O_2  and  C_3
REMARK    3  A    between atoms: C_6  and  C_7
REMARK    4  A    between atoms: C_7  and  C_8
REMARK    5  A    between atoms: C_13  and  C_14
REMARK    6  A    between atoms: C_14  and  C_15
REMARK    7  A    between atoms: C_18  and  O_19
REMARK    8  A    between atoms: O_19  and  C_20
REMARK    9  A    between atoms: C_21  and  O_22
REMARK   10  A    between atoms: O_22  and  C_23
REMARK                            x       y       z     vdW  Elec       q    Type
REMARK                         _______ _______ _______ _____ _____    ______ ____
ROOT
ATOM      1  C   UNL     1       1.560   4.260  18.755  0.00  0.00    +0.000 C 
ATOM      2  C   UNL     1       1.219   2.876  19.238  0.00  0.00    +0.000 C 
ATOM      3  O   UNL     1       0.354   2.150  18.776  0.00  0.00    +0.000 OA
ATOM      4  O   UNL     1       1.997   2.530  20.297  0.00  0.00    +0.000 OA
ATOM      5  C   UNL     1       2.965   3.543  20.542  0.00  0.00    +0.000 C 
ATOM      6  C   UNL     1       2.441   4.805  19.885  0.00  0.00    +0.000 C 
ENDROOT
BRANCH   1   7
ATOM      7  C   UNL     1       2.312   4.261  17.415  0.00  0.00    +0.000 C 
BRANCH   7  11
ATOM      8  C   UNL     1       6.286   5.980  17.509  0.00  0.00    +0.000 A 
ATOM      9  C   UNL     1       6.109   4.608  17.697  0.00  0.00    +0.000 A 
ATOM     10  C   UNL     1       4.832   4.039  17.649  0.00  0.00    +0.000 A 
ATOM     11  C   UNL     1       3.705   4.843  17.445  0.00  0.00    +0.000 A 
ATOM     12  C   UNL     1       3.891   6.219  17.250  0.00  0.00    +0.000 A 
ATOM     13  C   UNL     1       5.172   6.785  17.284  0.00  0.00    +0.000 A 
BRANCH   8  15
ATOM     14  C   UNL     1       7.757   7.831  17.645  0.00  0.00    +0.000 C 
ATOM     15  O   UNL     1       7.577   6.419  17.610  0.00  0.00    +0.000 OA
ENDBRANCH   8  15
ENDBRANCH   7  11
ENDBRANCH   1   7
BRANCH   6  16
ATOM     16  C   UNL     1       1.667   5.667  20.902  0.00  0.00    +0.000 C 
BRANCH  16  17
ATOM     17  C   UNL     1       1.584   7.119  20.491  0.00  0.00    +0.000 A 
ATOM     18  C   UNL     1       1.873   7.527  19.188  0.00  0.00    +0.000 A 
ATOM     19  C   UNL     1       1.713   8.865  18.823  0.00  0.00    +0.000 A 
ATOM     20  C   UNL     1       1.256   9.823  19.740  0.00  0.00    +0.000 A 
ATOM     21  C   UNL     1       0.980   9.425  21.057  0.00  0.00    +0.000 A 
ATOM     22  C   UNL     1       1.177   8.084  21.423  0.00  0.00    +0.000 A 
BRANCH  20  23
ATOM     23  O   UNL     1       1.128  11.064  19.173  0.00  0.00    +0.000 OA
ATOM     24  C   UNL     1      -0.161  11.501  18.769  0.00  0.00    +0.000 C 
ENDBRANCH  20  23
BRANCH  21  25
ATOM     25  O   UNL     1       0.568  10.356  21.975  0.00  0.00    +0.000 OA
ATOM     26  C   UNL     1      -0.275   9.867  23.015  0.00  0.00    +0.000 C 
ENDBRANCH  21  25
ENDBRANCH  16  17
ENDBRANCH   6  16
TORSDOF 7
ENDMDL
MODEL 6
REMARK VINA RESULT:      -6.6      2.097      5.768
REMARK  Name = 
REMARK  10 active torsions:
REMARK  status: ('A' for Active; 'I' for Inactive)
REMARK    1  A    between atoms: C_1  and  O_2
REMARK    2  A    between atoms: O_2  and  C_3
REMARK    3  A    between atoms: C_6  and  C_7
REMARK    4  A    between atoms: C_7  and  C_8
REMARK    5  A    between atoms: C_13  and  C_14
REMARK    6  A    between atoms: C_14  and  C_15
REMARK    7  A    between atoms: C_18  and  O_19
REMARK    8  A    between atoms: O_19  and  C_20
REMARK    9  A    between atoms: C_21  and  O_22
REMARK   10  A    between atoms: O_22  and  C_23
REMARK                            x       y       z     vdW  Elec       q    Type
REMARK                         _______ _______ _______ _____ _____    ______ ____
ROOT
ATOM      1  C   UNL     1       3.726   3.887  19.021  0.00  0.00    +0.000 C 
ATOM      2  C   UNL     1       4.148   2.510  19.459  0.00  0.00    +0.000 C 
ATOM      3  O   UNL     1       4.855   2.249  20.419  0.00  0.00    +0.000 OA
ATOM      4  O   UNL     1       3.651   1.564  18.618  0.00  0.00    +0.000 OA
ATOM      5  C   UNL     1       2.797   2.168  17.654  0.00  0.00    +0.000 C 
ATOM      6  C   UNL     1       3.167   3.638  17.614  0.00  0.00    +0.000 C 
ENDROOT
BRANCH   1   7
ATOM      7  C   UNL     1       2.664   4.511  19.938  0.00  0.00    +0.000 C 
BRANCH   7  11
ATOM      8  C   UNL     1       1.730   8.662  19.131  0.00  0.00    +0.000 A 
ATOM      9  C   UNL     1       1.586   8.147  20.420  0.00  0.00    +0.000 A 
ATOM     10  C   UNL     1       1.904   6.812  20.697  0.00  0.00    +0.000 A 
ATOM     11  C   UNL     1       2.340   5.961  19.675  0.00  0.00    +0.000 A 
ATOM     12  C   UNL     1       2.488   6.488  18.384  0.00  0.00    +0.000 A 
ATOM     13  C   UNL     1       2.184   7.828  18.112  0.00  0.00    +0.000 A 
BRANCH   8  15
ATOM     14  C   UNL     1       0.131  10.197  18.296  0.00  0.00    +0.000 C 
ATOM     15  O   UNL     1       1.358   9.969  18.982  0.00  0.00    +0.000 OA
ENDBRANCH   8  15
ENDBRANCH   7  11
ENDBRANCH   1   7
BRANCH   6  16
ATOM     16  C   UNL     1       4.189   3.912  16.493  0.00  0.00    +0.000 C 
BRANCH  16  17
ATOM     17  C   UNL     1       5.275   4.873  16.917  0.00  0.00    +0.000 A 
ATOM     18  C   UNL     1       5.228   6.226  16.575  0.00  0.00    +0.000 A 
ATOM     19  C   UNL     1       6.209   7.100  17.047  0.00  0.00    +0.000 A 
ATOM     20  C   UNL     1       7.250   6.653  17.873  0.00  0.00    +0.000 A 
ATOM     21  C   UNL     1       7.316   5.291  18.207  0.00  0.00    +0.000 A 
ATOM     22  C   UNL     1       6.343   4.414  17.699  0.00  0.00    +0.000 A 
BRANCH  20  23
ATOM     23  O   UNL     1       8.080   7.673  18.259  0.00  0.00    +0.000 OA
ATOM     24  C   UNL     1       7.860   8.970  17.726  0.00  0.00    +0.000 C 
ENDBRANCH  20  23
BRANCH  21  25
ATOM     25  O   UNL     1       8.347   4.831  18.983  0.00  0.00    +0.000 OA
ATOM     26  C   UNL     1       8.365   5.301  20.329  0.00  0.00    +0.000 C 
ENDBRANCH  21  25
ENDBRANCH  16  17
ENDBRANCH   6  16
TORSDOF 7
ENDMDL
MODEL 7
REMARK VINA RESULT:      -6.6      2.091      5.020
REMARK  Name = 
REMARK  10 active torsions:
REMARK  status: ('A' for Active; 'I' for Inactive)
REMARK    1  A    between atoms: C_1  and  O_2
REMARK    2  A    between atoms: O_2  and  C_3
REMARK    3  A    between atoms: C_6  and  C_7
REMARK    4  A    between atoms: C_7  and  C_8
REMARK    5  A    between atoms: C_13  and  C_14
REMARK    6  A    between atoms: C_14  and  C_15
REMARK    7  A    between atoms: C_18  and  O_19
REMARK    8  A    between atoms: O_19  and  C_20
REMARK    9  A    between atoms: C_21  and  O_22
REMARK   10  A    between atoms: O_22  and  C_23
REMARK                            x       y       z     vdW  Elec       q    Type
REMARK                         _______ _______ _______ _____ _____    ______ ____
ROOT
ATOM      1  C   UNL     1       3.523   4.026  17.562  0.00  0.00    +0.000 C 
ATOM      2  C   UNL     1       3.529   2.691  18.256  0.00  0.00    +0.000 C 
ATOM      3  O   UNL     1       3.305   1.611  17.733  0.00  0.00    +0.000 OA
ATOM      4  O   UNL     1       3.799   2.838  19.580  0.00  0.00    +0.000 OA
ATOM      5  C   UNL     1       4.102   4.198  19.868  0.00  0.00    +0.000 C 
ATOM      6  C   UNL     1       3.519   5.016  18.733  0.00  0.00    +0.000 C 
ENDROOT
BRANCH   1   7
ATOM      7  C   UNL     1       4.747   4.240  16.658  0.00  0.00    +0.000 C 
BRANCH   7  11
ATOM      8  C   UNL     1       7.635   7.137  18.080  0.00  0.00    +0.000 A 
ATOM      9  C   UNL     1       7.735   5.799  18.463  0.00  0.00    +0.000 A 
ATOM     10  C   UNL     1       6.819   4.851  17.994  0.00  0.00    +0.000 A 
ATOM     11  C   UNL     1       5.765   5.236  17.158  0.00  0.00    +0.000 A 
ATOM     12  C   UNL     1       5.675   6.581  16.772  0.00  0.00    +0.000 A 
ATOM     13  C   UNL     1       6.601   7.526  17.231  0.00  0.00    +0.000 A 
BRANCH   8  15
ATOM     14  C   UNL     1       8.469   9.346  18.270  0.00  0.00    +0.000 C 
ATOM     15  O   UNL     1       8.569   7.972  18.629  0.00  0.00    +0.000 OA
ENDBRANCH   8  15
ENDBRANCH   7  11
ENDBRANCH   1   7
BRANCH   6  16
ATOM     16  C   UNL     1       2.110   5.527  19.096  0.00  0.00    +0.000 C 
BRANCH  16  17
ATOM     17  C   UNL     1       1.999   7.032  19.022  0.00  0.00    +0.000 A 
ATOM     18  C   UNL     1       2.309   7.731  17.854  0.00  0.00    +0.000 A 
ATOM     19  C   UNL     1       2.123   9.113  17.797  0.00  0.00    +0.000 A 
ATOM     20  C   UNL     1       1.618   9.829  18.893  0.00  0.00    +0.000 A 
ATOM     21  C   UNL     1       1.321   9.137  20.077  0.00  0.00    +0.000 A 
ATOM     22  C   UNL     1       1.544   7.752  20.135  0.00  0.00    +0.000 A 
BRANCH  20  23
ATOM     23  O   UNL     1       1.472  11.163  18.617  0.00  0.00    +0.000 OA
ATOM     24  C   UNL     1       2.518  11.837  17.934  0.00  0.00    +0.000 C 
ENDBRANCH  20  23
BRANCH  21  25
ATOM     25  O   UNL     1       0.862   9.827  21.169  0.00  0.00    +0.000 OA
ATOM     26  C   UNL     1       0.959   9.144  22.417  0.00  0.00    +0.000 C 
ENDBRANCH  21  25
ENDBRANCH  16  17
ENDBRANCH   6  16
TORSDOF 7
ENDMDL
MODEL 8
REMARK VINA RESULT:      -6.6      2.167      4.913
REMARK  Name = 
REMARK  10 active torsions:
REMARK  status: ('A' for Active; 'I' for Inactive)
REMARK    1  A    between atoms: C_1  and  O_2
REMARK    2  A    between atoms: O_2  and  C_3
REMARK    3  A    between atoms: C_6  and  C_7
REMARK    4  A    between atoms: C_7  and  C_8
REMARK    5  A    between atoms: C_13  and  C_14
REMARK    6  A    between atoms: C_14  and  C_15
REMARK    7  A    between atoms: C_18  and  O_19
REMARK    8  A    between atoms: O_19  and  C_20
REMARK    9  A    between atoms: C_21  and  O_22
REMARK   10  A    between atoms: O_22  and  C_23
REMARK                            x       y       z     vdW  Elec       q    Type
REMARK                         _______ _______ _______ _____ _____    ______ ____
ROOT
ATOM      1  C   UNL     1       3.723   4.016  17.374  0.00  0.00    +0.000 C 
ATOM      2  C   UNL     1       3.696   2.782  18.235  0.00  0.00    +0.000 C 
ATOM      3  O   UNL     1       3.594   1.633  17.837  0.00  0.00    +0.000 OA
ATOM      4  O   UNL     1       3.779   3.112  19.551  0.00  0.00    +0.000 OA
ATOM      5  C   UNL     1       3.978   4.514  19.692  0.00  0.00    +0.000 C 
ATOM      6  C   UNL     1       3.516   5.144  18.392  0.00  0.00    +0.000 C 
ENDROOT
BRANCH   1   7
ATOM      7  C   UNL     1       5.046   4.191  16.614  0.00  0.00    +0.000 C 
BRANCH   7  11
ATOM      8  C   UNL     1       7.800   7.112  18.238  0.00  0.00    +0.000 A 
ATOM      9  C   UNL     1       6.818   7.503  17.327  0.00  0.00    +0.000 A 
ATOM     10  C   UNL     1       5.910   6.571  16.811  0.00  0.00    +0.000 A 
ATOM     11  C   UNL     1       5.995   5.223  17.175  0.00  0.00    +0.000 A 
ATOM     12  C   UNL     1       6.980   4.839  18.096  0.00  0.00    +0.000 A 
ATOM     13  C   UNL     1       7.878   5.775  18.623  0.00  0.00    +0.000 A 
BRANCH   8  15
ATOM     14  C   UNL     1       8.381   9.405  18.125  0.00  0.00    +0.000 C 
ATOM     15  O   UNL     1       8.645   8.107  18.645  0.00  0.00    +0.000 OA
ENDBRANCH   8  15
ENDBRANCH   7  11
ENDBRANCH   1   7
BRANCH   6  16
ATOM     16  C   UNL     1       2.049   5.607  18.502  0.00  0.00    +0.000 C 
BRANCH  16  17
ATOM     17  C   UNL     1       1.924   7.095  18.730  0.00  0.00    +0.000 A 
ATOM     18  C   UNL     1       2.070   8.010  17.685  0.00  0.00    +0.000 A 
ATOM     19  C   UNL     1       1.873   9.372  17.916  0.00  0.00    +0.000 A 
ATOM     20  C   UNL     1       1.520   9.854  19.185  0.00  0.00    +0.000 A 
ATOM     21  C   UNL     1       1.388   8.945  20.245  0.00  0.00    +0.000 A 
ATOM     22  C   UNL     1       1.622   7.580  20.010  0.00  0.00    +0.000 A 
BRANCH  20  23
ATOM     23  O   UNL     1       1.333  11.212  19.190  0.00  0.00    +0.000 OA
ATOM     24  C   UNL     1       0.011  11.719  19.087  0.00  0.00    +0.000 C 
ENDBRANCH  20  23
BRANCH  21  25
ATOM     25  O   UNL     1       1.079   9.403  21.499  0.00  0.00    +0.000 OA
ATOM     26  C   UNL     1      -0.223   9.072  21.975  0.00  0.00    +0.000 C 
ENDBRANCH  21  25
ENDBRANCH  16  17
ENDBRANCH   6  16
TORSDOF 7
ENDMDL
MODEL 9
REMARK VINA RESULT:      -6.6      1.567      5.079
REMARK  Name = 
REMARK  10 active torsions:
REMARK  status: ('A' for Active; 'I' for Inactive)
REMARK    1  A    between atoms: C_1  and  O_2
REMARK    2  A    between atoms: O_2  and  C_3
REMARK    3  A    between atoms: C_6  and  C_7
REMARK    4  A    between atoms: C_7  and  C_8
REMARK    5  A    between atoms: C_13  and  C_14
REMARK    6  A    between atoms: C_14  and  C_15
REMARK    7  A    between atoms: C_18  and  O_19
REMARK    8  A    between atoms: O_19  and  C_20
REMARK    9  A    between atoms: C_21  and  O_22
REMARK   10  A    between atoms: O_22  and  C_23
REMARK                            x       y       z     vdW  Elec       q    Type
REMARK                         _______ _______ _______ _____ _____    ______ ____
ROOT
ATOM      1  C   UNL     1       1.690   4.130  18.680  0.00  0.00    +0.000 C 
ATOM      2  C   UNL     1       1.213   2.747  19.032  0.00  0.00    +0.000 C 
ATOM      3  O   UNL     1       0.214   2.201  18.592  0.00  0.00    +0.000 OA
ATOM      4  O   UNL     1       2.040   2.170  19.943  0.00  0.00    +0.000 OA
ATOM      5  C   UNL     1       3.158   3.014  20.191  0.00  0.00    +0.000 C 
ATOM      6  C   UNL     1       2.748   4.407  19.756  0.00  0.00    +0.000 C 
ENDROOT
BRANCH   1   7
ATOM      7  C   UNL     1       2.295   4.218  17.271  0.00  0.00    +0.000 C 
BRANCH   7  11
ATOM      8  C   UNL     1       6.311   5.822  17.020  0.00  0.00    +0.000 A 
ATOM      9  C   UNL     1       5.212   6.681  17.059  0.00  0.00    +0.000 A 
ATOM     10  C   UNL     1       3.911   6.175  17.160  0.00  0.00    +0.000 A 
ATOM     11  C   UNL     1       3.689   4.793  17.190  0.00  0.00    +0.000 A 
ATOM     12  C   UNL     1       4.798   3.936  17.157  0.00  0.00    +0.000 A 
ATOM     13  C   UNL     1       6.100   4.445  17.071  0.00  0.00    +0.000 A 
BRANCH   8  15
ATOM     14  C   UNL     1       7.663   7.696  17.536  0.00  0.00    +0.000 C 
ATOM     15  O   UNL     1       7.525   6.436  16.889  0.00  0.00    +0.000 OA
ENDBRANCH   8  15
ENDBRANCH   7  11
ENDBRANCH   1   7
BRANCH   6  16
ATOM     16  C   UNL     1       2.206   5.214  20.952  0.00  0.00    +0.000 C 
BRANCH  16  17
ATOM     17  C   UNL     1       1.830   6.629  20.578  0.00  0.00    +0.000 A 
ATOM     18  C   UNL     1       2.386   7.264  19.466  0.00  0.00    +0.000 A 
ATOM     19  C   UNL     1       1.960   8.543  19.107  0.00  0.00    +0.000 A 
ATOM     20  C   UNL     1       0.969   9.215  19.836  0.00  0.00    +0.000 A 
ATOM     21  C   UNL     1       0.417   8.593  20.966  0.00  0.00    +0.000 A 
ATOM     22  C   UNL     1       0.877   7.320  21.340  0.00  0.00    +0.000 A 
BRANCH  20  23
ATOM     23  O   UNL     1       0.666  10.438  19.294  0.00  0.00    +0.000 OA
ATOM     24  C   UNL     1      -0.454  10.541  18.428  0.00  0.00    +0.000 C 
ENDBRANCH  20  23
BRANCH  21  25
ATOM     25  O   UNL     1      -0.526   9.252  21.711  0.00  0.00    +0.000 OA
ATOM     26  C   UNL     1      -0.029  10.268  22.579  0.00  0.00    +0.000 C 
ENDBRANCH  21  25
ENDBRANCH  16  17
ENDBRANCH   6  16
TORSDOF 7
ENDMDL
