MODEL 1
REMARK VINA RESULT:      -8.1      0.000      0.000
REMARK  Name = 
REMARK  4 active torsions:
REMARK  status: ('A' for Active; 'I' for Inactive)
REMARK    1  A    between atoms: N_2  and  C_4
REMARK    2  A    between atoms: C_8  and  N_9
REMARK    3  A    between atoms: N_10  and  C_11
REMARK    4  A    between atoms: C_12  and  O_13
REMARK                            x       y       z     vdW  Elec       q    Type
REMARK                         _______ _______ _______ _____ _____    ______ ____
ROOT
ATOM      1  C   UNL     1       2.913   5.834  18.260  0.00  0.00    +0.000 A 
ATOM      2  C   UNL     1       4.057   6.050  17.464  0.00  0.00    +0.000 A 
ATOM      3  C   UNL     1       4.737   5.007  16.853  0.00  0.00    +0.000 A 
ATOM      4  C   UNL     1       4.260   3.712  16.997  0.00  0.00    +0.000 A 
ATOM      5  C   UNL     1       3.131   3.440  17.786  0.00  0.00    +0.000 A 
ATOM      6  C   UNL     1       2.649   2.126  17.878  0.00  0.00    +0.000 A 
ATOM      7  C   UNL     1       1.547   1.819  18.671  0.00  0.00    +0.000 A 
ATOM      8  C   UNL     1       0.916   2.824  19.393  0.00  0.00    +0.000 A 
ATOM      9  C   UNL     1       1.359   4.144  19.279  0.00  0.00    +0.000 A 
ATOM     10  C   UNL     1       2.462   4.495  18.463  0.00  0.00    +0.000 A 
ENDROOT
BRANCH   1  12
ATOM     11  N   UNL     1       2.394   7.414  19.759  0.00  0.00    +0.000 NA
ATOM     12  N   UNL     1       2.164   6.978  18.614  0.00  0.00    +0.000 NA
BRANCH  11  17
ATOM     13  C   UNL     1       0.215   9.863  21.616  0.00  0.00    +0.000 A 
ATOM     14  C   UNL     1      -0.185  10.694  20.566  0.00  0.00    +0.000 A 
ATOM     15  C   UNL     1       0.293  10.445  19.280  0.00  0.00    +0.000 A 
ATOM     16  C   UNL     1       1.150   9.363  19.048  0.00  0.00    +0.000 A 
ATOM     17  C   UNL     1       1.547   8.506  20.086  0.00  0.00    +0.000 A 
ATOM     18  C   UNL     1       1.080   8.784  21.388  0.00  0.00    +0.000 A 
BRANCH  13  20
ATOM     19  O   UNL     1       0.342   9.612  23.919  0.00  0.00    +0.000 OA
ATOM     20  N   UNL     1      -0.287  10.117  22.980  0.00  0.00    +0.000 N 
ATOM     21  O   UNL     1      -1.296  10.821  23.094  0.00  0.00    +0.000 OA
ENDBRANCH  13  20
ENDBRANCH  11  17
ENDBRANCH   1  12
BRANCH   2  22
ATOM     22  O   UNL     1       4.522   7.319  17.226  0.00  0.00    +0.000 OA
ATOM     23  H   UNL     1       4.771   7.683  18.095  0.00  0.00    +0.000 HD
ENDBRANCH   2  22
TORSDOF 4
ENDMDL
MODEL 2
REMARK VINA RESULT:      -8.0      4.642      8.583
REMARK  Name = 
REMARK  4 active torsions:
REMARK  status: ('A' for Active; 'I' for Inactive)
REMARK    1  A    between atoms: N_2  and  C_4
REMARK    2  A    between atoms: C_8  and  N_9
REMARK    3  A    between atoms: N_10  and  C_11
REMARK    4  A    between atoms: C_12  and  O_13
REMARK                            x       y       z     vdW  Elec       q    Type
REMARK                         _______ _______ _______ _____ _____    ______ ____
ROOT
ATOM      1  C   UNL     1       4.031   4.646  17.713  0.00  0.00    +0.000 A 
ATOM      2  C   UNL     1       3.969   3.502  18.533  0.00  0.00    +0.000 A 
ATOM      3  C   UNL     1       3.325   3.510  19.761  0.00  0.00    +0.000 A 
ATOM      4  C   UNL     1       2.688   4.669  20.184  0.00  0.00    +0.000 A 
ATOM      5  C   UNL     1       2.727   5.839  19.410  0.00  0.00    +0.000 A 
ATOM      6  C   UNL     1       2.040   6.982  19.845  0.00  0.00    +0.000 A 
ATOM      7  C   UNL     1       2.079   8.166  19.113  0.00  0.00    +0.000 A 
ATOM      8  C   UNL     1       2.818   8.225  17.938  0.00  0.00    +0.000 A 
ATOM      9  C   UNL     1       3.474   7.084  17.472  0.00  0.00    +0.000 A 
ATOM     10  C   UNL     1       3.436   5.857  18.178  0.00  0.00    +0.000 A 
ENDROOT
BRANCH   1  12
ATOM     11  N   UNL     1       5.723   4.484  16.255  0.00  0.00    +0.000 NA
ATOM     12  N   UNL     1       4.484   4.452  16.389  0.00  0.00    +0.000 NA
BRANCH  11  17
ATOM     13  C   UNL     1       5.895   3.508  12.620  0.00  0.00    +0.000 A 
ATOM     14  C   UNL     1       7.037   4.210  12.222  0.00  0.00    +0.000 A 
ATOM     15  C   UNL     1       7.704   5.007  13.151  0.00  0.00    +0.000 A 
ATOM     16  C   UNL     1       7.240   5.086  14.470  0.00  0.00    +0.000 A 
ATOM     17  C   UNL     1       6.108   4.373  14.892  0.00  0.00    +0.000 A 
ATOM     18  C   UNL     1       5.424   3.592  13.937  0.00  0.00    +0.000 A 
BRANCH  13  20
ATOM     19  O   UNL     1       5.718   1.591  11.326  0.00  0.00    +0.000 OA
ATOM     20  N   UNL     1       5.183   2.660  11.645  0.00  0.00    +0.000 N 
ATOM     21  O   UNL     1       4.100   3.072  11.216  0.00  0.00    +0.000 OA
ENDBRANCH  13  20
ENDBRANCH  11  17
ENDBRANCH   1  12
BRANCH   2  22
ATOM     22  O   UNL     1       4.514   2.310  18.125  0.00  0.00    +0.000 OA
ATOM     23  H   UNL     1       5.441   2.320  18.424  0.00  0.00    +0.000 HD
ENDBRANCH   2  22
TORSDOF 4
ENDMDL
MODEL 3
REMARK VINA RESULT:      -8.0      4.807      8.454
REMARK  Name = 
REMARK  4 active torsions:
REMARK  status: ('A' for Active; 'I' for Inactive)
REMARK    1  A    between atoms: N_2  and  C_4
REMARK    2  A    between atoms: C_8  and  N_9
REMARK    3  A    between atoms: N_10  and  C_11
REMARK    4  A    between atoms: C_12  and  O_13
REMARK                            x       y       z     vdW  Elec       q    Type
REMARK                         _______ _______ _______ _____ _____    ______ ____
ROOT
ATOM      1  C   UNL     1       3.803   3.926  17.980  0.00  0.00    +0.000 A 
ATOM      2  C   UNL     1       3.669   2.666  18.598  0.00  0.00    +0.000 A 
ATOM      3  C   UNL     1       2.985   2.502  19.794  0.00  0.00    +0.000 A 
ATOM      4  C   UNL     1       2.381   3.603  20.386  0.00  0.00    +0.000 A 
ATOM      5  C   UNL     1       2.493   4.881  19.817  0.00  0.00    +0.000 A 
ATOM      6  C   UNL     1       1.837   5.967  20.416  0.00  0.00    +0.000 A 
ATOM      7  C   UNL     1       1.947   7.252  19.891  0.00  0.00    +0.000 A 
ATOM      8  C   UNL     1       2.726   7.470  18.762  0.00  0.00    +0.000 A 
ATOM      9  C   UNL     1       3.351   6.392  18.130  0.00  0.00    +0.000 A 
ATOM     10  C   UNL     1       3.241   5.069  18.623  0.00  0.00    +0.000 A 
ENDROOT
BRANCH   1  12
ATOM     11  N   UNL     1       5.530   4.022  16.559  0.00  0.00    +0.000 NA
ATOM     12  N   UNL     1       4.291   3.931  16.655  0.00  0.00    +0.000 NA
BRANCH  11  17
ATOM     13  C   UNL     1       5.815   3.564  12.830  0.00  0.00    +0.000 A 
ATOM     14  C   UNL     1       6.940   4.349  12.563  0.00  0.00    +0.000 A 
ATOM     15  C   UNL     1       7.559   5.031  13.610  0.00  0.00    +0.000 A 
ATOM     16  C   UNL     1       7.065   4.912  14.914  0.00  0.00    +0.000 A 
ATOM     17  C   UNL     1       5.948   4.112  15.204  0.00  0.00    +0.000 A 
ATOM     18  C   UNL     1       5.312   3.451  14.134  0.00  0.00    +0.000 A 
BRANCH  13  20
ATOM     19  O   UNL     1       4.146   3.358  11.232  0.00  0.00    +0.000 OA
ATOM     20  N   UNL     1       5.153   2.838  11.729  0.00  0.00    +0.000 N 
ATOM     21  O   UNL     1       5.651   1.765  11.374  0.00  0.00    +0.000 OA
ENDBRANCH  13  20
ENDBRANCH  11  17
ENDBRANCH   1  12
BRANCH   2  22
ATOM     22  O   UNL     1       4.179   1.534  18.014  0.00  0.00    +0.000 OA
ATOM     23  H   UNL     1       5.003   1.806  17.572  0.00  0.00    +0.000 HD
ENDBRANCH   2  22
TORSDOF 4
ENDMDL
MODEL 4
REMARK VINA RESULT:      -7.9      0.706      1.029
REMARK  Name = 
REMARK  4 active torsions:
REMARK  status: ('A' for Active; 'I' for Inactive)
REMARK    1  A    between atoms: N_2  and  C_4
REMARK    2  A    between atoms: C_8  and  N_9
REMARK    3  A    between atoms: N_10  and  C_11
REMARK    4  A    between atoms: C_12  and  O_13
REMARK                            x       y       z     vdW  Elec       q    Type
REMARK                         _______ _______ _______ _____ _____    ______ ____
ROOT
ATOM      1  C   UNL     1       2.990   5.905  18.677  0.00  0.00    +0.000 A 
ATOM      2  C   UNL     1       4.011   6.096  17.724  0.00  0.00    +0.000 A 
ATOM      3  C   UNL     1       4.458   5.068  16.907  0.00  0.00    +0.000 A 
ATOM      4  C   UNL     1       3.859   3.819  17.001  0.00  0.00    +0.000 A 
ATOM      5  C   UNL     1       2.845   3.572  17.940  0.00  0.00    +0.000 A 
ATOM      6  C   UNL     1       2.231   2.312  17.983  0.00  0.00    +0.000 A 
ATOM      7  C   UNL     1       1.239   2.027  18.917  0.00  0.00    +0.000 A 
ATOM      8  C   UNL     1       0.854   3.001  19.831  0.00  0.00    +0.000 A 
ATOM      9  C   UNL     1       1.427   4.273  19.774  0.00  0.00    +0.000 A 
ATOM     10  C   UNL     1       2.421   4.604  18.821  0.00  0.00    +0.000 A 
ENDROOT
BRANCH   1  12
ATOM     11  N   UNL     1       1.941   7.870  18.455  0.00  0.00    +0.000 NA
ATOM     12  N   UNL     1       2.447   7.069  19.264  0.00  0.00    +0.000 NA
BRANCH  11  17
ATOM     13  C   UNL     1       0.546  10.314  20.960  0.00  0.00    +0.000 A 
ATOM     14  C   UNL     1       0.593  11.496  20.215  0.00  0.00    +0.000 A 
ATOM     15  C   UNL     1       1.107  11.465  18.920  0.00  0.00    +0.000 A 
ATOM     16  C   UNL     1       1.554  10.256  18.371  0.00  0.00    +0.000 A 
ATOM     17  C   UNL     1       1.496   9.056  19.097  0.00  0.00    +0.000 A 
ATOM     18  C   UNL     1       1.001   9.105  20.416  0.00  0.00    +0.000 A 
BRANCH  13  20
ATOM     19  O   UNL     1      -1.104  10.867  22.494  0.00  0.00    +0.000 OA
ATOM     20  N   UNL     1       0.002  10.337  22.331  0.00  0.00    +0.000 N 
ATOM     21  O   UNL     1       0.685   9.822  23.223  0.00  0.00    +0.000 OA
ENDBRANCH  13  20
ENDBRANCH  11  17
ENDBRANCH   1  12
BRANCH   2  22
ATOM     22  O   UNL     1       4.580   7.330  17.536  0.00  0.00    +0.000 OA
ATOM     23  H   UNL     1       5.246   7.218  16.834  0.00  0.00    +0.000 HD
ENDBRANCH   2  22
TORSDOF 4
ENDMDL
MODEL 5
REMARK VINA RESULT:      -7.7      2.699      7.163
REMARK  Name = 
REMARK  4 active torsions:
REMARK  status: ('A' for Active; 'I' for Inactive)
REMARK    1  A    between atoms: N_2  and  C_4
REMARK    2  A    between atoms: C_8  and  N_9
REMARK    3  A    between atoms: N_10  and  C_11
REMARK    4  A    between atoms: C_12  and  O_13
REMARK                            x       y       z     vdW  Elec       q    Type
REMARK                         _______ _______ _______ _____ _____    ______ ____
ROOT
ATOM      1  C   UNL     1       1.311   9.228  19.435  0.00  0.00    +0.000 A 
ATOM      2  C   UNL     1       1.444  10.224  18.447  0.00  0.00    +0.000 A 
ATOM      3  C   UNL     1       0.909  11.494  18.604  0.00  0.00    +0.000 A 
ATOM      4  C   UNL     1       0.252  11.810  19.785  0.00  0.00    +0.000 A 
ATOM      5  C   UNL     1       0.082  10.853  20.797  0.00  0.00    +0.000 A 
ATOM      6  C   UNL     1      -0.550  11.215  21.996  0.00  0.00    +0.000 A 
ATOM      7  C   UNL     1      -0.755  10.283  23.010  0.00  0.00    +0.000 A 
ATOM      8  C   UNL     1      -0.338   8.970  22.833  0.00  0.00    +0.000 A 
ATOM      9  C   UNL     1       0.329   8.604  21.662  0.00  0.00    +0.000 A 
ATOM     10  C   UNL     1       0.576   9.532  20.621  0.00  0.00    +0.000 A 
ENDROOT
BRANCH   1  12
ATOM     11  N   UNL     1       1.834   7.386  18.275  0.00  0.00    +0.000 NA
ATOM     12  N   UNL     1       2.107   8.072  19.279  0.00  0.00    +0.000 NA
BRANCH  11  17
ATOM     13  C   UNL     1       4.683   4.923  18.380  0.00  0.00    +0.000 A 
ATOM     14  C   UNL     1       4.015   3.747  18.027  0.00  0.00    +0.000 A 
ATOM     15  C   UNL     1       2.642   3.789  17.789  0.00  0.00    +0.000 A 
ATOM     16  C   UNL     1       1.949   5.001  17.890  0.00  0.00    +0.000 A 
ATOM     17  C   UNL     1       2.606   6.195  18.224  0.00  0.00    +0.000 A 
ATOM     18  C   UNL     1       3.990   6.136  18.490  0.00  0.00    +0.000 A 
BRANCH  13  20
ATOM     19  O   UNL     1       6.526   5.245  19.752  0.00  0.00    +0.000 OA
ATOM     20  N   UNL     1       6.136   4.889  18.632  0.00  0.00    +0.000 N 
ATOM     21  O   UNL     1       6.865   4.505  17.712  0.00  0.00    +0.000 OA
ENDBRANCH  13  20
ENDBRANCH  11  17
ENDBRANCH   1  12
BRANCH   2  22
ATOM     22  O   UNL     1       2.153   9.987  17.296  0.00  0.00    +0.000 OA
ATOM     23  H   UNL     1       2.839   9.336  17.529  0.00  0.00    +0.000 HD
ENDBRANCH   2  22
TORSDOF 4
ENDMDL
MODEL 6
REMARK VINA RESULT:      -7.7      1.363      2.875
REMARK  Name = 
REMARK  4 active torsions:
REMARK  status: ('A' for Active; 'I' for Inactive)
REMARK    1  A    between atoms: N_2  and  C_4
REMARK    2  A    between atoms: C_8  and  N_9
REMARK    3  A    between atoms: N_10  and  C_11
REMARK    4  A    between atoms: C_12  and  O_13
REMARK                            x       y       z     vdW  Elec       q    Type
REMARK                         _______ _______ _______ _____ _____    ______ ____
ROOT
ATOM      1  C   UNL     1       2.766   5.529  18.196  0.00  0.00    +0.000 A 
ATOM      2  C   UNL     1       2.286   4.356  18.811  0.00  0.00    +0.000 A 
ATOM      3  C   UNL     1       2.946   3.141  18.697  0.00  0.00    +0.000 A 
ATOM      4  C   UNL     1       4.136   3.081  17.985  0.00  0.00    +0.000 A 
ATOM      5  C   UNL     1       4.654   4.219  17.345  0.00  0.00    +0.000 A 
ATOM      6  C   UNL     1       5.880   4.136  16.669  0.00  0.00    +0.000 A 
ATOM      7  C   UNL     1       6.408   5.239  16.003  0.00  0.00    +0.000 A 
ATOM      8  C   UNL     1       5.710   6.440  15.997  0.00  0.00    +0.000 A 
ATOM      9  C   UNL     1       4.508   6.548  16.700  0.00  0.00    +0.000 A 
ATOM     10  C   UNL     1       3.953   5.454  17.408  0.00  0.00    +0.000 A 
ENDROOT
BRANCH   1  12
ATOM     11  N   UNL     1       2.316   7.035  19.790  0.00  0.00    +0.000 NA
ATOM     12  N   UNL     1       2.160   6.743  18.589  0.00  0.00    +0.000 NA
BRANCH  11  17
ATOM     13  C   UNL     1       0.402   9.668  21.687  0.00  0.00    +0.000 A 
ATOM     14  C   UNL     1       0.166  10.594  20.667  0.00  0.00    +0.000 A 
ATOM     15  C   UNL     1       0.664  10.343  19.390  0.00  0.00    +0.000 A 
ATOM     16  C   UNL     1       1.379   9.166  19.135  0.00  0.00    +0.000 A 
ATOM     17  C   UNL     1       1.609   8.216  20.141  0.00  0.00    +0.000 A 
ATOM     18  C   UNL     1       1.125   8.494  21.436  0.00  0.00    +0.000 A 
BRANCH  13  20
ATOM     19  O   UNL     1       0.566   9.545  23.998  0.00  0.00    +0.000 OA
ATOM     20  N   UNL     1      -0.122   9.925  23.042  0.00  0.00    +0.000 N 
ATOM     21  O   UNL     1      -1.210  10.504  23.132  0.00  0.00    +0.000 OA
ENDBRANCH  13  20
ENDBRANCH  11  17
ENDBRANCH   1  12
BRANCH   2  22
ATOM     22  O   UNL     1       1.157   4.377  19.590  0.00  0.00    +0.000 OA
ATOM     23  H   UNL     1       0.446   4.734  19.028  0.00  0.00    +0.000 HD
ENDBRANCH   2  22
TORSDOF 4
ENDMDL
MODEL 7
REMARK VINA RESULT:      -7.6      4.646      8.167
REMARK  Name = 
REMARK  4 active torsions:
REMARK  status: ('A' for Active; 'I' for Inactive)
REMARK    1  A    between atoms: N_2  and  C_4
REMARK    2  A    between atoms: C_8  and  N_9
REMARK    3  A    between atoms: N_10  and  C_11
REMARK    4  A    between atoms: C_12  and  O_13
REMARK                            x       y       z     vdW  Elec       q    Type
REMARK                         _______ _______ _______ _____ _____    ______ ____
ROOT
ATOM      1  C   UNL     1       3.116   3.843  18.254  0.00  0.00    +0.000 A 
ATOM      2  C   UNL     1       2.690   2.540  18.582  0.00  0.00    +0.000 A 
ATOM      3  C   UNL     1       1.801   2.294  19.618  0.00  0.00    +0.000 A 
ATOM      4  C   UNL     1       1.284   3.365  20.335  0.00  0.00    +0.000 A 
ATOM      5  C   UNL     1       1.682   4.682  20.056  0.00  0.00    +0.000 A 
ATOM      6  C   UNL     1       1.111   5.745  20.769  0.00  0.00    +0.000 A 
ATOM      7  C   UNL     1       1.502   7.061  20.534  0.00  0.00    +0.000 A 
ATOM      8  C   UNL     1       2.481   7.329  19.585  0.00  0.00    +0.000 A 
ATOM      9  C   UNL     1       3.029   6.284  18.838  0.00  0.00    +0.000 A 
ATOM     10  C   UNL     1       2.638   4.937  19.034  0.00  0.00    +0.000 A 
ENDROOT
BRANCH   1  12
ATOM     11  N   UNL     1       5.049   3.884  17.125  0.00  0.00    +0.000 NA
ATOM     12  N   UNL     1       3.811   3.992  17.034  0.00  0.00    +0.000 NA
BRANCH  11  17
ATOM     13  C   UNL     1       6.014   3.831  13.484  0.00  0.00    +0.000 A 
ATOM     14  C   UNL     1       7.118   4.688  13.501  0.00  0.00    +0.000 A 
ATOM     15  C   UNL     1       7.500   5.283  14.703  0.00  0.00    +0.000 A 
ATOM     16  C   UNL     1       6.791   5.007  15.878  0.00  0.00    +0.000 A 
ATOM     17  C   UNL     1       5.693   4.133  15.884  0.00  0.00    +0.000 A 
ATOM     18  C   UNL     1       5.298   3.559  14.658  0.00  0.00    +0.000 A 
BRANCH  13  20
ATOM     19  O   UNL     1       6.430   2.466  11.654  0.00  0.00    +0.000 OA
ATOM     20  N   UNL     1       5.604   3.195  12.218  0.00  0.00    +0.000 N 
ATOM     21  O   UNL     1       4.462   3.429  11.807  0.00  0.00    +0.000 OA
ENDBRANCH  13  20
ENDBRANCH  11  17
ENDBRANCH   1  12
BRANCH   2  22
ATOM     22  O   UNL     1       3.109   1.455  17.854  0.00  0.00    +0.000 OA
ATOM     23  H   UNL     1       3.375   0.779  18.503  0.00  0.00    +0.000 HD
ENDBRANCH   2  22
TORSDOF 4
ENDMDL
MODEL 8
REMARK VINA RESULT:      -7.6      1.455      3.123
REMARK  Name = 
REMARK  4 active torsions:
REMARK  status: ('A' for Active; 'I' for Inactive)
REMARK    1  A    between atoms: N_2  and  C_4
REMARK    2  A    between atoms: C_8  and  N_9
REMARK    3  A    between atoms: N_10  and  C_11
REMARK    4  A    between atoms: C_12  and  O_13
REMARK                            x       y       z     vdW  Elec       q    Type
REMARK                         _______ _______ _______ _____ _____    ______ ____
ROOT
ATOM      1  C   UNL     1       3.287   5.959  17.837  0.00  0.00    +0.000 A 
ATOM      2  C   UNL     1       2.549   4.759  17.837  0.00  0.00    +0.000 A 
ATOM      3  C   UNL     1       3.147   3.527  17.614  0.00  0.00    +0.000 A 
ATOM      4  C   UNL     1       4.520   3.466  17.420  0.00  0.00    +0.000 A 
ATOM      5  C   UNL     1       5.300   4.633  17.401  0.00  0.00    +0.000 A 
ATOM      6  C   UNL     1       6.690   4.535  17.244  0.00  0.00    +0.000 A 
ATOM      7  C   UNL     1       7.490   5.674  17.196  0.00  0.00    +0.000 A 
ATOM      8  C   UNL     1       6.905   6.931  17.295  0.00  0.00    +0.000 A 
ATOM      9  C   UNL     1       5.527   7.042  17.492  0.00  0.00    +0.000 A 
ATOM     10  C   UNL     1       4.687   5.904  17.570  0.00  0.00    +0.000 A 
ENDROOT
BRANCH   1  12
ATOM     11  N   UNL     1       2.387   7.091  19.546  0.00  0.00    +0.000 NA
ATOM     12  N   UNL     1       2.624   7.108  18.323  0.00  0.00    +0.000 NA
BRANCH  11  17
ATOM     13  C   UNL     1       0.452   9.598  21.588  0.00  0.00    +0.000 A 
ATOM     14  C   UNL     1       0.114  10.524  20.597  0.00  0.00    +0.000 A 
ATOM     15  C   UNL     1       0.552  10.316  19.291  0.00  0.00    +0.000 A 
ATOM     16  C   UNL     1       1.309   9.180  18.978  0.00  0.00    +0.000 A 
ATOM     17  C   UNL     1       1.642   8.229  19.955  0.00  0.00    +0.000 A 
ATOM     18  C   UNL     1       1.218   8.465  21.279  0.00  0.00    +0.000 A 
BRANCH  13  20
ATOM     19  O   UNL     1      -1.148  10.267  23.128  0.00  0.00    +0.000 OA
ATOM     20  N   UNL     1      -0.008   9.809  22.973  0.00  0.00    +0.000 N 
ATOM     21  O   UNL     1       0.771   9.511  23.885  0.00  0.00    +0.000 OA
ENDBRANCH  13  20
ENDBRANCH  11  17
ENDBRANCH   1  12
BRANCH   2  22
ATOM     22  O   UNL     1       1.203   4.756  18.102  0.00  0.00    +0.000 OA
ATOM     23  H   UNL     1       1.063   4.082  18.791  0.00  0.00    +0.000 HD
ENDBRANCH   2  22
TORSDOF 4
ENDMDL
MODEL 9
REMARK VINA RESULT:      -7.5      2.314      2.662
REMARK  Name = 
REMARK  4 active torsions:
REMARK  status: ('A' for Active; 'I' for Inactive)
REMARK    1  A    between atoms: N_2  and  C_4
REMARK    2  A    between atoms: C_8  and  N_9
REMARK    3  A    between atoms: N_10  and  C_11
REMARK    4  A    between atoms: C_12  and  O_13
REMARK                            x       y       z     vdW  Elec       q    Type
REMARK                         _______ _______ _______ _____ _____    ______ ____
ROOT
ATOM      1  C   UNL     1       3.073   5.905  18.584  0.00  0.00    +0.000 A 
ATOM      2  C   UNL     1       4.090   6.059  17.620  0.00  0.00    +0.000 A 
ATOM      3  C   UNL     1       4.502   5.011  16.811  0.00  0.00    +0.000 A 
ATOM      4  C   UNL     1       3.871   3.779  16.924  0.00  0.00    +0.000 A 
ATOM      5  C   UNL     1       2.859   3.570  17.874  0.00  0.00    +0.000 A 
ATOM      6  C   UNL     1       2.212   2.327  17.937  0.00  0.00    +0.000 A 
ATOM      7  C   UNL     1       1.222   2.079  18.883  0.00  0.00    +0.000 A 
ATOM      8  C   UNL     1       0.871   3.072  19.789  0.00  0.00    +0.000 A 
ATOM      9  C   UNL     1       1.477   4.328  19.713  0.00  0.00    +0.000 A 
ATOM     10  C   UNL     1       2.471   4.622  18.748  0.00  0.00    +0.000 A 
ENDROOT
BRANCH   1  12
ATOM     11  N   UNL     1       1.968   7.841  18.368  0.00  0.00    +0.000 NA
ATOM     12  N   UNL     1       2.567   7.090  19.163  0.00  0.00    +0.000 NA
BRANCH  11  17
ATOM     13  C   UNL     1       1.227  11.468  19.070  0.00  0.00    +0.000 A 
ATOM     14  C   UNL     1       0.774  11.383  20.390  0.00  0.00    +0.000 A 
ATOM     15  C   UNL     1       0.697  10.135  21.005  0.00  0.00    +0.000 A 
ATOM     16  C   UNL     1       1.087   8.985  20.309  0.00  0.00    +0.000 A 
ATOM     17  C   UNL     1       1.564   9.052  18.991  0.00  0.00    +0.000 A 
ATOM     18  C   UNL     1       1.610  10.316  18.368  0.00  0.00    +0.000 A 
BRANCH  13  20
ATOM     19  O   UNL     1       0.259  13.418  18.271  0.00  0.00    +0.000 OA
ATOM     20  N   UNL     1       1.313  12.784  18.411  0.00  0.00    +0.000 N 
ATOM     21  O   UNL     1       2.430  13.168  18.046  0.00  0.00    +0.000 OA
ENDBRANCH  13  20
ENDBRANCH  11  17
ENDBRANCH   1  12
BRANCH   2  22
ATOM     22  O   UNL     1       4.690   7.275  17.414  0.00  0.00    +0.000 OA
ATOM     23  H   UNL     1       4.682   7.731  18.274  0.00  0.00    +0.000 HD
ENDBRANCH   2  22
TORSDOF 4
ENDMDL
