MODEL 1
REMARK VINA RESULT:      -7.2      0.000      0.000
REMARK  Name = 
REMARK  8 active torsions:
REMARK  status: ('A' for Active; 'I' for Inactive)
REMARK    1  A    between atoms: C_1  and  C_2
REMARK    2  A    between atoms: C_2  and  C_3
REMARK    3  A    between atoms: C_2  and  C_4
REMARK    4  A    between atoms: C_2  and  C_5
REMARK    5  A    between atoms: N_7  and  C_8
REMARK    6  A    between atoms: N_16  and  C_17
REMARK    7  A    between atoms: C_17  and  C_18
REMARK    8  A    between atoms: C_18  and  N_19
REMARK                            x       y       z     vdW  Elec       q    Type
REMARK                         _______ _______ _______ _____ _____    ______ ____
ROOT
ATOM      1  C   UNL     1       5.249   4.842  18.871  0.00  0.00    +0.000 A 
ATOM      2  N   UNL     1       6.377   5.154  19.534  0.00  0.00    +0.000 NA
ATOM      3  C   UNL     1       7.529   5.240  18.851  0.00  0.00    +0.000 A 
ATOM      4  N   UNL     1       7.725   5.041  17.530  0.00  0.00    +0.000 NA
ATOM      5  C   UNL     1       6.575   4.734  16.904  0.00  0.00    +0.000 A 
ATOM      6  C   UNL     1       5.325   4.612  17.496  0.00  0.00    +0.000 A 
ATOM      7  C   UNL     1       4.455   4.307  16.435  0.00  0.00    +0.000 A 
ATOM      8  N   UNL     1       5.079   4.223  15.261  0.00  0.00    +0.000 NA
ATOM      9  N   UNL     1       6.380   4.473  15.566  0.00  0.00    +0.000 N 
ENDROOT
BRANCH   1  12
ATOM     10  C   UNL     1       3.395   3.567  19.832  0.00  0.00    +0.000 C 
ATOM     11  O   UNL     1       3.864   2.449  19.597  0.00  0.00    +0.000 OA
ATOM     12  N   UNL     1       4.012   4.758  19.518  0.00  0.00    +0.000 N 
ATOM     13  H   UNL     1       3.656   5.605  19.935  0.00  0.00    +0.000 HD
BRANCH  10  15
ATOM     14  C   UNL     1       0.931   3.160  19.660  0.00  0.00    +0.000 C 
ATOM     15  C   UNL     1       2.048   3.714  20.563  0.00  0.00    +0.000 C 
ATOM     16  C   UNL     1       1.771   5.196  20.848  0.00  0.00    +0.000 C 
ATOM     17  C   UNL     1       2.044   2.919  21.879  0.00  0.00    +0.000 C 
ENDBRANCH  10  15
ENDBRANCH   1  12
BRANCH   9  18
ATOM     18  C   UNL     1       7.349   4.488  14.484  0.00  0.00    +0.000 C 
BRANCH  18  19
ATOM     19  C   UNL     1       6.809   5.009  13.144  0.00  0.00    +0.000 C 
BRANCH  19  20
ATOM     20  N   UNL     1       6.492   3.985  12.117  0.00  0.00    +0.000 NA
ATOM     21  C   UNL     1       7.563   2.968  12.110  0.00  0.00    +0.000 C 
ATOM     22  C   UNL     1       7.361   1.930  11.006  0.00  0.00    +0.000 C 
ATOM     23  C   UNL     1       5.989   1.275  11.111  0.00  0.00    +0.000 C 
ATOM     24  C   UNL     1       4.901   2.335  11.176  0.00  0.00    +0.000 C 
ATOM     25  C   UNL     1       5.176   3.351  12.290  0.00  0.00    +0.000 C 
ENDBRANCH  19  20
ENDBRANCH  18  19
ENDBRANCH   9  18
TORSDOF 5
ENDMDL
MODEL 2
REMARK VINA RESULT:      -7.1      4.997      8.872
REMARK  Name = 
REMARK  8 active torsions:
REMARK  status: ('A' for Active; 'I' for Inactive)
REMARK    1  A    between atoms: C_1  and  C_2
REMARK    2  A    between atoms: C_2  and  C_3
REMARK    3  A    between atoms: C_2  and  C_4
REMARK    4  A    between atoms: C_2  and  C_5
REMARK    5  A    between atoms: N_7  and  C_8
REMARK    6  A    between atoms: N_16  and  C_17
REMARK    7  A    between atoms: C_17  and  C_18
REMARK    8  A    between atoms: C_18  and  N_19
REMARK                            x       y       z     vdW  Elec       q    Type
REMARK                         _______ _______ _______ _____ _____    ______ ____
ROOT
ATOM      1  C   UNL     1       3.017   5.937  18.703  0.00  0.00    +0.000 A 
ATOM      2  N   UNL     1       2.700   5.203  19.786  0.00  0.00    +0.000 NA
ATOM      3  C   UNL     1       1.943   5.755  20.746  0.00  0.00    +0.000 A 
ATOM      4  N   UNL     1       1.436   7.006  20.783  0.00  0.00    +0.000 NA
ATOM      5  C   UNL     1       1.771   7.705  19.685  0.00  0.00    +0.000 A 
ATOM      6  C   UNL     1       2.549   7.250  18.628  0.00  0.00    +0.000 A 
ATOM      7  C   UNL     1       2.592   8.328  17.726  0.00  0.00    +0.000 A 
ATOM      8  N   UNL     1       1.919   9.393  18.159  0.00  0.00    +0.000 NA
ATOM      9  N   UNL     1       1.433   9.001  19.367  0.00  0.00    +0.000 N 
ENDROOT
BRANCH   1  12
ATOM     10  C   UNL     1       5.161   5.426  17.641  0.00  0.00    +0.000 C 
ATOM     11  O   UNL     1       5.870   5.877  18.546  0.00  0.00    +0.000 OA
ATOM     12  N   UNL     1       3.783   5.415  17.656  0.00  0.00    +0.000 N 
ATOM     13  H   UNL     1       3.302   4.842  16.980  0.00  0.00    +0.000 HD
BRANCH  10  15
ATOM     14  C   UNL     1       5.582   5.710  15.189  0.00  0.00    +0.000 C 
ATOM     15  C   UNL     1       5.795   4.778  16.396  0.00  0.00    +0.000 C 
ATOM     16  C   UNL     1       5.119   3.430  16.111  0.00  0.00    +0.000 C 
ATOM     17  C   UNL     1       7.306   4.574  16.589  0.00  0.00    +0.000 C 
ENDBRANCH  10  15
ENDBRANCH   1  12
BRANCH   9  18
ATOM     18  C   UNL     1       0.610   9.937  20.113  0.00  0.00    +0.000 C 
BRANCH  18  19
ATOM     19  C   UNL     1      -0.091  11.001  19.256  0.00  0.00    +0.000 C 
BRANCH  19  20
ATOM     20  N   UNL     1      -1.492  10.712  18.858  0.00  0.00    +0.000 NA
ATOM     21  C   UNL     1      -2.275  11.963  18.924  0.00  0.00    +0.000 C 
ATOM     22  C   UNL     1      -3.755  11.731  18.626  0.00  0.00    +0.000 C 
ATOM     23  C   UNL     1      -3.945  11.042  17.281  0.00  0.00    +0.000 C 
ATOM     24  C   UNL     1      -3.089   9.786  17.205  0.00  0.00    +0.000 C 
ATOM     25  C   UNL     1      -1.623  10.089  17.533  0.00  0.00    +0.000 C 
ENDBRANCH  19  20
ENDBRANCH  18  19
ENDBRANCH   9  18
TORSDOF 5
ENDMDL
MODEL 3
REMARK VINA RESULT:      -7.1      4.058      7.045
REMARK  Name = 
REMARK  8 active torsions:
REMARK  status: ('A' for Active; 'I' for Inactive)
REMARK    1  A    between atoms: C_1  and  C_2
REMARK    2  A    between atoms: C_2  and  C_3
REMARK    3  A    between atoms: C_2  and  C_4
REMARK    4  A    between atoms: C_2  and  C_5
REMARK    5  A    between atoms: N_7  and  C_8
REMARK    6  A    between atoms: N_16  and  C_17
REMARK    7  A    between atoms: C_17  and  C_18
REMARK    8  A    between atoms: C_18  and  N_19
REMARK                            x       y       z     vdW  Elec       q    Type
REMARK                         _______ _______ _______ _____ _____    ______ ____
ROOT
ATOM      1  C   UNL     1       5.055   5.068  17.813  0.00  0.00    +0.000 A 
ATOM      2  N   UNL     1       4.454   5.466  16.677  0.00  0.00    +0.000 NA
ATOM      3  C   UNL     1       4.966   6.506  16.001  0.00  0.00    +0.000 A 
ATOM      4  N   UNL     1       6.046   7.250  16.322  0.00  0.00    +0.000 NA
ATOM      5  C   UNL     1       6.619   6.820  17.459  0.00  0.00    +0.000 A 
ATOM      6  C   UNL     1       6.186   5.763  18.248  0.00  0.00    +0.000 A 
ATOM      7  C   UNL     1       7.117   5.696  19.299  0.00  0.00    +0.000 A 
ATOM      8  N   UNL     1       8.061   6.631  19.215  0.00  0.00    +0.000 NA
ATOM      9  N   UNL     1       7.736   7.321  18.090  0.00  0.00    +0.000 N 
ENDROOT
BRANCH   1  12
ATOM     10  C   UNL     1       3.452   4.015  19.332  0.00  0.00    +0.000 C 
ATOM     11  O   UNL     1       2.715   4.998  19.453  0.00  0.00    +0.000 OA
ATOM     12  N   UNL     1       4.588   3.977  18.553  0.00  0.00    +0.000 N 
ATOM     13  H   UNL     1       4.999   3.078  18.351  0.00  0.00    +0.000 HD
BRANCH  10  15
ATOM     14  C   UNL     1       4.406   1.865  20.189  0.00  0.00    +0.000 C 
ATOM     15  C   UNL     1       3.115   2.690  20.041  0.00  0.00    +0.000 C 
ATOM     16  C   UNL     1       2.106   1.894  19.202  0.00  0.00    +0.000 C 
ATOM     17  C   UNL     1       2.541   2.946  21.444  0.00  0.00    +0.000 C 
ENDBRANCH  10  15
ENDBRANCH   1  12
BRANCH   9  18
ATOM     18  C   UNL     1       8.598   8.417  17.682  0.00  0.00    +0.000 C 
BRANCH  18  19
ATOM     19  C   UNL     1       8.401   9.719  18.473  0.00  0.00    +0.000 C 
BRANCH  19  20
ATOM     20  N   UNL     1       9.633  10.394  18.953  0.00  0.00    +0.000 NA
ATOM     21  C   UNL     1      10.170  11.235  17.864  0.00  0.00    +0.000 C 
ATOM     22  C   UNL     1      11.498  11.888  18.245  0.00  0.00    +0.000 C 
ATOM     23  C   UNL     1      11.369  12.687  19.536  0.00  0.00    +0.000 C 
ATOM     24  C   UNL     1      10.760  11.825  20.632  0.00  0.00    +0.000 C 
ATOM     25  C   UNL     1       9.443  11.189  20.175  0.00  0.00    +0.000 C 
ENDBRANCH  19  20
ENDBRANCH  18  19
ENDBRANCH   9  18
TORSDOF 5
ENDMDL
MODEL 4
REMARK VINA RESULT:      -7.1      5.561      8.687
REMARK  Name = 
REMARK  8 active torsions:
REMARK  status: ('A' for Active; 'I' for Inactive)
REMARK    1  A    between atoms: C_1  and  C_2
REMARK    2  A    between atoms: C_2  and  C_3
REMARK    3  A    between atoms: C_2  and  C_4
REMARK    4  A    between atoms: C_2  and  C_5
REMARK    5  A    between atoms: N_7  and  C_8
REMARK    6  A    between atoms: N_16  and  C_17
REMARK    7  A    between atoms: C_17  and  C_18
REMARK    8  A    between atoms: C_18  and  N_19
REMARK                            x       y       z     vdW  Elec       q    Type
REMARK                         _______ _______ _______ _____ _____    ______ ____
ROOT
ATOM      1  C   UNL     1       2.378   6.829  19.736  0.00  0.00    +0.000 A 
ATOM      2  N   UNL     1       1.776   6.689  20.930  0.00  0.00    +0.000 NA
ATOM      3  C   UNL     1       0.962   7.662  21.367  0.00  0.00    +0.000 A 
ATOM      4  N   UNL     1       0.656   8.823  20.748  0.00  0.00    +0.000 NA
ATOM      5  C   UNL     1       1.274   8.924  19.559  0.00  0.00    +0.000 A 
ATOM      6  C   UNL     1       2.138   7.992  19.000  0.00  0.00    +0.000 A 
ATOM      7  C   UNL     1       2.497   8.537  17.756  0.00  0.00    +0.000 A 
ATOM      8  N   UNL     1       1.934   9.722  17.527  0.00  0.00    +0.000 NA
ATOM      9  N   UNL     1       1.198   9.953  18.647  0.00  0.00    +0.000 N 
ENDROOT
BRANCH   1  12
ATOM     10  C   UNL     1       2.796   4.869  18.333  0.00  0.00    +0.000 C 
ATOM     11  O   UNL     1       1.644   4.765  17.899  0.00  0.00    +0.000 OA
ATOM     12  N   UNL     1       3.219   5.842  19.212  0.00  0.00    +0.000 N 
ATOM     13  H   UNL     1       4.211   5.971  19.340  0.00  0.00    +0.000 HD
BRANCH  10  15
ATOM     14  C   UNL     1       3.288   2.494  17.709  0.00  0.00    +0.000 C 
ATOM     15  C   UNL     1       3.899   3.899  17.869  0.00  0.00    +0.000 C 
ATOM     16  C   UNL     1       5.016   3.841  18.920  0.00  0.00    +0.000 C 
ATOM     17  C   UNL     1       4.478   4.331  16.513  0.00  0.00    +0.000 C 
ENDBRANCH  10  15
ENDBRANCH   1  12
BRANCH   9  18
ATOM     18  C   UNL     1       0.416  11.176  18.715  0.00  0.00    +0.000 C 
BRANCH  18  19
ATOM     19  C   UNL     1      -1.085  10.966  18.962  0.00  0.00    +0.000 C 
BRANCH  19  20
ATOM     20  N   UNL     1      -1.982  11.178  17.798  0.00  0.00    +0.000 NA
ATOM     21  C   UNL     1      -1.874  10.015  16.894  0.00  0.00    +0.000 C 
ATOM     22  C   UNL     1      -2.693  10.203  15.618  0.00  0.00    +0.000 C 
ATOM     23  C   UNL     1      -4.151  10.507  15.939  0.00  0.00    +0.000 C 
ATOM     24  C   UNL     1      -4.245  11.669  16.916  0.00  0.00    +0.000 C 
ATOM     25  C   UNL     1      -3.386  11.422  18.161  0.00  0.00    +0.000 C 
ENDBRANCH  19  20
ENDBRANCH  18  19
ENDBRANCH   9  18
TORSDOF 5
ENDMDL
MODEL 5
REMARK VINA RESULT:      -6.9      3.936      6.952
REMARK  Name = 
REMARK  8 active torsions:
REMARK  status: ('A' for Active; 'I' for Inactive)
REMARK    1  A    between atoms: C_1  and  C_2
REMARK    2  A    between atoms: C_2  and  C_3
REMARK    3  A    between atoms: C_2  and  C_4
REMARK    4  A    between atoms: C_2  and  C_5
REMARK    5  A    between atoms: N_7  and  C_8
REMARK    6  A    between atoms: N_16  and  C_17
REMARK    7  A    between atoms: C_17  and  C_18
REMARK    8  A    between atoms: C_18  and  N_19
REMARK                            x       y       z     vdW  Elec       q    Type
REMARK                         _______ _______ _______ _____ _____    ______ ____
ROOT
ATOM      1  C   UNL     1       5.174   4.988  17.748  0.00  0.00    +0.000 A 
ATOM      2  N   UNL     1       4.579   5.377  16.605  0.00  0.00    +0.000 NA
ATOM      3  C   UNL     1       5.062   6.443  15.950  0.00  0.00    +0.000 A 
ATOM      4  N   UNL     1       6.107   7.224  16.299  0.00  0.00    +0.000 NA
ATOM      5  C   UNL     1       6.675   6.803  17.442  0.00  0.00    +0.000 A 
ATOM      6  C   UNL     1       6.269   5.721  18.211  0.00  0.00    +0.000 A 
ATOM      7  C   UNL     1       7.182   5.677  19.278  0.00  0.00    +0.000 A 
ATOM      8  N   UNL     1       8.092   6.648  19.222  0.00  0.00    +0.000 NA
ATOM      9  N   UNL     1       7.761   7.339  18.099  0.00  0.00    +0.000 N 
ENDROOT
BRANCH   1  12
ATOM     10  C   UNL     1       3.736   3.921  19.414  0.00  0.00    +0.000 C 
ATOM     11  O   UNL     1       3.109   4.938  19.723  0.00  0.00    +0.000 OA
ATOM     12  N   UNL     1       4.735   3.872  18.467  0.00  0.00    +0.000 N 
ATOM     13  H   UNL     1       5.037   2.968  18.136  0.00  0.00    +0.000 HD
BRANCH  10  15
ATOM     14  C   UNL     1       2.544   2.815  21.319  0.00  0.00    +0.000 C 
ATOM     15  C   UNL     1       3.402   2.565  20.065  0.00  0.00    +0.000 C 
ATOM     16  C   UNL     1       4.697   1.854  20.479  0.00  0.00    +0.000 C 
ATOM     17  C   UNL     1       2.601   1.673  19.102  0.00  0.00    +0.000 C 
ENDBRANCH  10  15
ENDBRANCH   1  12
BRANCH   9  18
ATOM     18  C   UNL     1       8.587   8.472  17.719  0.00  0.00    +0.000 C 
BRANCH  18  19
ATOM     19  C   UNL     1       8.021   9.842  18.116  0.00  0.00    +0.000 C 
BRANCH  19  20
ATOM     20  N   UNL     1       9.003  10.853  18.585  0.00  0.00    +0.000 NA
ATOM     21  C   UNL     1       9.340  10.571  19.995  0.00  0.00    +0.000 C 
ATOM     22  C   UNL     1      10.271  11.630  20.585  0.00  0.00    +0.000 C 
ATOM     23  C   UNL     1      11.533  11.783  19.745  0.00  0.00    +0.000 C 
ATOM     24  C   UNL     1      11.170  12.014  18.285  0.00  0.00    +0.000 C 
ATOM     25  C   UNL     1      10.222  10.928  17.766  0.00  0.00    +0.000 C 
ENDBRANCH  19  20
ENDBRANCH  18  19
ENDBRANCH   9  18
TORSDOF 5
ENDMDL
MODEL 6
REMARK VINA RESULT:      -6.9      5.310      8.586
REMARK  Name = 
REMARK  8 active torsions:
REMARK  status: ('A' for Active; 'I' for Inactive)
REMARK    1  A    between atoms: C_1  and  C_2
REMARK    2  A    between atoms: C_2  and  C_3
REMARK    3  A    between atoms: C_2  and  C_4
REMARK    4  A    between atoms: C_2  and  C_5
REMARK    5  A    between atoms: N_7  and  C_8
REMARK    6  A    between atoms: N_16  and  C_17
REMARK    7  A    between atoms: C_17  and  C_18
REMARK    8  A    between atoms: C_18  and  N_19
REMARK                            x       y       z     vdW  Elec       q    Type
REMARK                         _______ _______ _______ _____ _____    ______ ____
ROOT
ATOM      1  C   UNL     1       2.779   6.532  19.097  0.00  0.00    +0.000 A 
ATOM      2  N   UNL     1       3.341   6.864  17.921  0.00  0.00    +0.000 NA
ATOM      3  C   UNL     1       3.134   8.094  17.426  0.00  0.00    +0.000 A 
ATOM      4  N   UNL     1       2.399   9.090  17.966  0.00  0.00    +0.000 NA
ATOM      5  C   UNL     1       1.857   8.720  19.139  0.00  0.00    +0.000 A 
ATOM      6  C   UNL     1       1.993   7.482  19.753  0.00  0.00    +0.000 A 
ATOM      7  C   UNL     1       1.271   7.596  20.953  0.00  0.00    +0.000 A 
ATOM      8  N   UNL     1       0.702   8.791  21.104  0.00  0.00    +0.000 NA
ATOM      9  N   UNL     1       1.059   9.465  19.978  0.00  0.00    +0.000 N 
ENDROOT
BRANCH   1  12
ATOM     10  C   UNL     1       2.216   4.167  19.370  0.00  0.00    +0.000 C 
ATOM     11  O   UNL     1       1.301   4.149  18.541  0.00  0.00    +0.000 OA
ATOM     12  N   UNL     1       2.973   5.276  19.680  0.00  0.00    +0.000 N 
ATOM     13  H   UNL     1       3.825   5.142  20.204  0.00  0.00    +0.000 HD
BRANCH  10  15
ATOM     14  C   UNL     1       1.893   1.686  19.480  0.00  0.00    +0.000 C 
ATOM     15  C   UNL     1       2.622   2.883  20.118  0.00  0.00    +0.000 C 
ATOM     16  C   UNL     1       2.212   2.990  21.593  0.00  0.00    +0.000 C 
ATOM     17  C   UNL     1       4.136   2.638  20.013  0.00  0.00    +0.000 C 
ENDBRANCH  10  15
ENDBRANCH   1  12
BRANCH   9  18
ATOM     18  C   UNL     1       0.618  10.842  19.833  0.00  0.00    +0.000 C 
BRANCH  18  19
ATOM     19  C   UNL     1      -0.871  11.075  20.123  0.00  0.00    +0.000 C 
BRANCH  19  20
ATOM     20  N   UNL     1      -1.821  10.701  19.044  0.00  0.00    +0.000 NA
ATOM     21  C   UNL     1      -2.790  11.800  18.860  0.00  0.00    +0.000 C 
ATOM     22  C   UNL     1      -3.867  11.450  17.833  0.00  0.00    +0.000 C 
ATOM     23  C   UNL     1      -3.247  11.044  16.502  0.00  0.00    +0.000 C 
ATOM     24  C   UNL     1      -2.209   9.952  16.715  0.00  0.00    +0.000 C 
ATOM     25  C   UNL     1      -1.174  10.362  17.768  0.00  0.00    +0.000 C 
ENDBRANCH  19  20
ENDBRANCH  18  19
ENDBRANCH   9  18
TORSDOF 5
ENDMDL
MODEL 7
REMARK VINA RESULT:      -6.9      4.070      7.013
REMARK  Name = 
REMARK  8 active torsions:
REMARK  status: ('A' for Active; 'I' for Inactive)
REMARK    1  A    between atoms: C_1  and  C_2
REMARK    2  A    between atoms: C_2  and  C_3
REMARK    3  A    between atoms: C_2  and  C_4
REMARK    4  A    between atoms: C_2  and  C_5
REMARK    5  A    between atoms: N_7  and  C_8
REMARK    6  A    between atoms: N_16  and  C_17
REMARK    7  A    between atoms: C_17  and  C_18
REMARK    8  A    between atoms: C_18  and  N_19
REMARK                            x       y       z     vdW  Elec       q    Type
REMARK                         _______ _______ _______ _____ _____    ______ ____
ROOT
ATOM      1  C   UNL     1       5.037   4.988  17.834  0.00  0.00    +0.000 A 
ATOM      2  N   UNL     1       4.418   5.353  16.697  0.00  0.00    +0.000 NA
ATOM      3  C   UNL     1       4.912   6.379  15.988  0.00  0.00    +0.000 A 
ATOM      4  N   UNL     1       5.991   7.138  16.275  0.00  0.00    +0.000 NA
ATOM      5  C   UNL     1       6.582   6.742  17.415  0.00  0.00    +0.000 A 
ATOM      6  C   UNL     1       6.168   5.702  18.236  0.00  0.00    +0.000 A 
ATOM      7  C   UNL     1       7.114   5.667  19.275  0.00  0.00    +0.000 A 
ATOM      8  N   UNL     1       8.050   6.607  19.155  0.00  0.00    +0.000 NA
ATOM      9  N   UNL     1       7.704   7.266  18.017  0.00  0.00    +0.000 N 
ENDROOT
BRANCH   1  12
ATOM     10  C   UNL     1       3.430   3.942  19.353  0.00  0.00    +0.000 C 
ATOM     11  O   UNL     1       2.655   4.902  19.413  0.00  0.00    +0.000 OA
ATOM     12  N   UNL     1       4.588   3.913  18.608  0.00  0.00    +0.000 N 
ATOM     13  H   UNL     1       5.036   3.022  18.456  0.00  0.00    +0.000 HD
BRANCH  10  15
ATOM     14  C   UNL     1       2.484   2.989  21.467  0.00  0.00    +0.000 C 
ATOM     15  C   UNL     1       3.120   2.637  20.110  0.00  0.00    +0.000 C 
ATOM     16  C   UNL     1       4.419   1.856  20.354  0.00  0.00    +0.000 C 
ATOM     17  C   UNL     1       2.127   1.766  19.323  0.00  0.00    +0.000 C 
ENDBRANCH  10  15
ENDBRANCH   1  12
BRANCH   9  18
ATOM     18  C   UNL     1       8.553   8.358  17.570  0.00  0.00    +0.000 C 
BRANCH  18  19
ATOM     19  C   UNL     1       8.177   9.736  18.133  0.00  0.00    +0.000 C 
BRANCH  19  20
ATOM     20  N   UNL     1       9.302  10.659  18.428  0.00  0.00    +0.000 NA
ATOM     21  C   UNL     1       8.974  11.996  17.893  0.00  0.00    +0.000 C 
ATOM     22  C   UNL     1      10.129  12.982  18.067  0.00  0.00    +0.000 C 
ATOM     23  C   UNL     1      10.561  13.072  19.525  0.00  0.00    +0.000 C 
ATOM     24  C   UNL     1      10.838  11.683  20.080  0.00  0.00    +0.000 C 
ATOM     25  C   UNL     1       9.649  10.744  19.855  0.00  0.00    +0.000 C 
ENDBRANCH  19  20
ENDBRANCH  18  19
ENDBRANCH   9  18
TORSDOF 5
ENDMDL
MODEL 8
REMARK VINA RESULT:      -6.9      5.320      8.099
REMARK  Name = 
REMARK  8 active torsions:
REMARK  status: ('A' for Active; 'I' for Inactive)
REMARK    1  A    between atoms: C_1  and  C_2
REMARK    2  A    between atoms: C_2  and  C_3
REMARK    3  A    between atoms: C_2  and  C_4
REMARK    4  A    between atoms: C_2  and  C_5
REMARK    5  A    between atoms: N_7  and  C_8
REMARK    6  A    between atoms: N_16  and  C_17
REMARK    7  A    between atoms: C_17  and  C_18
REMARK    8  A    between atoms: C_18  and  N_19
REMARK                            x       y       z     vdW  Elec       q    Type
REMARK                         _______ _______ _______ _____ _____    ______ ____
ROOT
ATOM      1  C   UNL     1       0.604   9.527  19.976  0.00  0.00    +0.000 A 
ATOM      2  N   UNL     1       0.376   8.889  21.138  0.00  0.00    +0.000 NA
ATOM      3  C   UNL     1       1.009   7.731  21.380  0.00  0.00    +0.000 A 
ATOM      4  N   UNL     1       1.880   7.082  20.578  0.00  0.00    +0.000 NA
ATOM      5  C   UNL     1       2.083   7.751  19.430  0.00  0.00    +0.000 A 
ATOM      6  C   UNL     1       1.489   8.950  19.062  0.00  0.00    +0.000 A 
ATOM      7  C   UNL     1       2.035   9.249  17.802  0.00  0.00    +0.000 A 
ATOM      8  N   UNL     1       2.895   8.324  17.378  0.00  0.00    +0.000 NA
ATOM      9  N   UNL     1       2.904   7.405  18.379  0.00  0.00    +0.000 N 
ENDROOT
BRANCH   1  12
ATOM     10  C   UNL     1       0.334  11.940  20.276  0.00  0.00    +0.000 C 
ATOM     11  O   UNL     1       1.213  12.069  21.133  0.00  0.00    +0.000 OA
ATOM     12  N   UNL     1      -0.005  10.748  19.672  0.00  0.00    +0.000 N 
ATOM     13  H   UNL     1      -0.578  10.779  18.843  0.00  0.00    +0.000 HD
BRANCH  10  15
ATOM     14  C   UNL     1      -0.485  13.128  18.229  0.00  0.00    +0.000 C 
ATOM     15  C   UNL     1      -0.453  13.163  19.768  0.00  0.00    +0.000 C 
ATOM     16  C   UNL     1       0.241  14.453  20.225  0.00  0.00    +0.000 C 
ATOM     17  C   UNL     1      -1.902  13.139  20.282  0.00  0.00    +0.000 C 
ENDBRANCH  10  15
ENDBRANCH   1  12
BRANCH   9  18
ATOM     18  C   UNL     1       3.779   6.253  18.247  0.00  0.00    +0.000 C 
BRANCH  18  19
ATOM     19  C   UNL     1       3.136   5.031  17.577  0.00  0.00    +0.000 C 
BRANCH  19  20
ATOM     20  N   UNL     1       2.684   3.943  18.480  0.00  0.00    +0.000 NA
ATOM     21  C   UNL     1       3.484   3.989  19.720  0.00  0.00    +0.000 C 
ATOM     22  C   UNL     1       3.147   2.835  20.664  0.00  0.00    +0.000 C 
ATOM     23  C   UNL     1       1.657   2.799  20.979  0.00  0.00    +0.000 C 
ATOM     24  C   UNL     1       0.844   2.811  19.693  0.00  0.00    +0.000 C 
ATOM     25  C   UNL     1       1.246   3.981  18.789  0.00  0.00    +0.000 C 
ENDBRANCH  19  20
ENDBRANCH  18  19
ENDBRANCH   9  18
TORSDOF 5
ENDMDL
MODEL 9
REMARK VINA RESULT:      -6.8      5.494      8.888
REMARK  Name = 
REMARK  8 active torsions:
REMARK  status: ('A' for Active; 'I' for Inactive)
REMARK    1  A    between atoms: C_1  and  C_2
REMARK    2  A    between atoms: C_2  and  C_3
REMARK    3  A    between atoms: C_2  and  C_4
REMARK    4  A    between atoms: C_2  and  C_5
REMARK    5  A    between atoms: N_7  and  C_8
REMARK    6  A    between atoms: N_16  and  C_17
REMARK    7  A    between atoms: C_17  and  C_18
REMARK    8  A    between atoms: C_18  and  N_19
REMARK                            x       y       z     vdW  Elec       q    Type
REMARK                         _______ _______ _______ _____ _____    ______ ____
ROOT
ATOM      1  C   UNL     1       2.357   6.896  19.330  0.00  0.00    +0.000 A 
ATOM      2  N   UNL     1       2.830   7.196  18.107  0.00  0.00    +0.000 NA
ATOM      3  C   UNL     1       2.653   8.437  17.629  0.00  0.00    +0.000 A 
ATOM      4  N   UNL     1       2.030   9.474  18.229  0.00  0.00    +0.000 NA
ATOM      5  C   UNL     1       1.575   9.135  19.447  0.00  0.00    +0.000 A 
ATOM      6  C   UNL     1       1.691   7.890  20.051  0.00  0.00    +0.000 A 
ATOM      7  C   UNL     1       1.088   8.044  21.310  0.00  0.00    +0.000 A 
ATOM      8  N   UNL     1       0.607   9.271  21.508  0.00  0.00    +0.000 NA
ATOM      9  N   UNL     1       0.900   9.924  20.352  0.00  0.00    +0.000 N 
ENDROOT
BRANCH   1  12
ATOM     10  C   UNL     1       2.103   4.463  19.300  0.00  0.00    +0.000 C 
ATOM     11  O   UNL     1       1.543   4.399  18.202  0.00  0.00    +0.000 OA
ATOM     12  N   UNL     1       2.528   5.629  19.898  0.00  0.00    +0.000 N 
ATOM     13  H   UNL     1       3.157   5.561  20.684  0.00  0.00    +0.000 HD
BRANCH  10  15
ATOM     14  C   UNL     1       2.183   3.458  21.592  0.00  0.00    +0.000 C 
ATOM     15  C   UNL     1       2.417   3.182  20.096  0.00  0.00    +0.000 C 
ATOM     16  C   UNL     1       3.884   2.785  19.884  0.00  0.00    +0.000 C 
ATOM     17  C   UNL     1       1.496   2.027  19.668  0.00  0.00    +0.000 C 
ENDBRANCH  10  15
ENDBRANCH   1  12
BRANCH   9  18
ATOM     18  C   UNL     1       0.531  11.325  20.242  0.00  0.00    +0.000 C 
BRANCH  18  19
ATOM     19  C   UNL     1      -0.215  11.694  18.952  0.00  0.00    +0.000 C 
BRANCH  19  20
ATOM     20  N   UNL     1      -1.559  11.089  18.770  0.00  0.00    +0.000 NA
ATOM     21  C   UNL     1      -2.569  12.166  18.764  0.00  0.00    +0.000 C 
ATOM     22  C   UNL     1      -3.993  11.617  18.681  0.00  0.00    +0.000 C 
ATOM     23  C   UNL     1      -4.162  10.706  17.472  0.00  0.00    +0.000 C 
ATOM     24  C   UNL     1      -3.080   9.637  17.460  0.00  0.00    +0.000 C 
ATOM     25  C   UNL     1      -1.682  10.257  17.564  0.00  0.00    +0.000 C 
ENDBRANCH  19  20
ENDBRANCH  18  19
ENDBRANCH   9  18
TORSDOF 5
ENDMDL
