MODEL 1
REMARK VINA RESULT:      -8.0      0.000      0.000
REMARK  Name = 
REMARK  7 active torsions:
REMARK  status: ('A' for Active; 'I' for Inactive)
REMARK    1  A    between atoms: C_2  and  C_3
REMARK    2  A    between atoms: C_3  and  N_4
REMARK    3  A    between atoms: N_4  and  S_5
REMARK    4  A    between atoms: S_5  and  C_8
REMARK    5  A    between atoms: N_16  and  C_17
REMARK    6  A    between atoms: C_17  and  C_18
REMARK    7  A    between atoms: C_18  and  C_19
REMARK                            x       y       z     vdW  Elec       q    Type
REMARK                         _______ _______ _______ _____ _____    ______ ____
ROOT
ATOM      1  C   UNL     1       4.652   3.330  19.637  0.00  0.00    +0.000 C 
ENDROOT
BRANCH   1   3
ATOM      2  O   UNL     1       6.333   5.079  19.669  0.00  0.00    +0.000 OA
ATOM      3  C   UNL     1       5.754   4.202  19.033  0.00  0.00    +0.000 C 
ATOM      4  N   UNL     1       6.034   3.928  17.706  0.00  0.00    +0.000 N 
ATOM      5  H   UNL     1       5.583   3.143  17.252  0.00  0.00    +0.000 HD
BRANCH   4   6
ATOM      6  C   UNL     1       7.081   4.646  16.994  0.00  0.00    +0.000 C 
BRANCH   6   7
ATOM      7  C   UNL     1       6.525   5.566  15.904  0.00  0.00    +0.000 C 
BRANCH   7   8
ATOM      8  C   UNL     1       6.621   4.948  14.530  0.00  0.00    +0.000 A 
ATOM      9  C   UNL     1       7.616   5.360  13.632  0.00  0.00    +0.000 A 
ATOM     10  C   UNL     1       7.689   4.806  12.352  0.00  0.00    +0.000 A 
ATOM     11  C   UNL     1       6.770   3.837  11.956  0.00  0.00    +0.000 A 
ATOM     12  C   UNL     1       5.776   3.419  12.840  0.00  0.00    +0.000 A 
ATOM     13  C   UNL     1       5.701   3.972  14.120  0.00  0.00    +0.000 A 
ENDBRANCH   7   8
ENDBRANCH   6   7
ENDBRANCH   4   6
ENDBRANCH   1   3
BRANCH   1  14
ATOM     14  N   UNL     1       3.980   2.535  18.604  0.00  0.00    +0.000 NA
ATOM     15  H   UNL     1       4.204   1.538  18.571  0.00  0.00    +0.000 HD
BRANCH  14  16
ATOM     16  S   UNL     1       2.381   2.874  18.256  0.00  0.00    +0.000 S 
ATOM     17  O   UNL     1       2.277   2.978  16.820  0.00  0.00    +0.000 OA
ATOM     18  O   UNL     1       1.558   1.964  19.022  0.00  0.00    +0.000 OA
BRANCH  16  19
ATOM     19  C   UNL     1       2.157   4.514  18.905  0.00  0.00    +0.000 A 
ATOM     20  C   UNL     1       1.745   4.678  20.233  0.00  0.00    +0.000 A 
ATOM     21  C   UNL     1       1.658   5.963  20.774  0.00  0.00    +0.000 A 
ATOM     22  C   UNL     1       1.989   7.068  19.991  0.00  0.00    +0.000 A 
ATOM     23  F   UNL     1       1.920   8.290  20.539  0.00  0.00    +0.000 F 
ATOM     24  C   UNL     1       2.397   6.902  18.667  0.00  0.00    +0.000 A 
ATOM     25 CL   UNL     1       2.822   8.266  17.705  0.00  0.00    +0.000 Cl
ATOM     26  C   UNL     1       2.483   5.623  18.115  0.00  0.00    +0.000 A 
ENDBRANCH  16  19
ENDBRANCH  14  16
ENDBRANCH   1  14
TORSDOF 7
ENDMDL
MODEL 2
REMARK VINA RESULT:      -7.7      4.517      5.663
REMARK  Name = 
REMARK  7 active torsions:
REMARK  status: ('A' for Active; 'I' for Inactive)
REMARK    1  A    between atoms: C_2  and  C_3
REMARK    2  A    between atoms: C_3  and  N_4
REMARK    3  A    between atoms: N_4  and  S_5
REMARK    4  A    between atoms: S_5  and  C_8
REMARK    5  A    between atoms: N_16  and  C_17
REMARK    6  A    between atoms: C_17  and  C_18
REMARK    7  A    between atoms: C_18  and  C_19
REMARK                            x       y       z     vdW  Elec       q    Type
REMARK                         _______ _______ _______ _____ _____    ______ ____
ROOT
ATOM      1  C   UNL     1       6.832   5.405  17.103  0.00  0.00    +0.000 C 
ENDROOT
BRANCH   1   3
ATOM      2  O   UNL     1       7.872   5.805  19.259  0.00  0.00    +0.000 OA
ATOM      3  C   UNL     1       7.567   6.242  18.151  0.00  0.00    +0.000 C 
ATOM      4  N   UNL     1       7.849   7.536  17.751  0.00  0.00    +0.000 N 
ATOM      5  H   UNL     1       7.646   7.821  16.801  0.00  0.00    +0.000 HD
BRANCH   4   6
ATOM      6  C   UNL     1       8.575   8.450  18.620  0.00  0.00    +0.000 C 
BRANCH   6   7
ATOM      7  C   UNL     1       8.442   9.910  18.179  0.00  0.00    +0.000 C 
BRANCH   7   8
ATOM      8  C   UNL     1       9.562  10.773  18.708  0.00  0.00    +0.000 A 
ATOM      9  C   UNL     1      10.560  11.252  17.847  0.00  0.00    +0.000 A 
ATOM     10  C   UNL     1      11.609  12.030  18.341  0.00  0.00    +0.000 A 
ATOM     11  C   UNL     1      11.673  12.336  19.699  0.00  0.00    +0.000 A 
ATOM     12  C   UNL     1      10.687  11.866  20.564  0.00  0.00    +0.000 A 
ATOM     13  C   UNL     1       9.638  11.088  20.073  0.00  0.00    +0.000 A 
ENDBRANCH   7   8
ENDBRANCH   6   7
ENDBRANCH   4   6
ENDBRANCH   1   3
BRANCH   1  14
ATOM     14  N   UNL     1       6.119   4.284  17.727  0.00  0.00    +0.000 NA
ATOM     15  H   UNL     1       6.261   4.149  18.730  0.00  0.00    +0.000 HD
BRANCH  14  16
ATOM     16  S   UNL     1       4.562   3.953  17.219  0.00  0.00    +0.000 S 
ATOM     17  O   UNL     1       4.463   4.407  15.852  0.00  0.00    +0.000 OA
ATOM     18  O   UNL     1       4.251   2.593  17.600  0.00  0.00    +0.000 OA
BRANCH  16  19
ATOM     19  C   UNL     1       3.567   5.053  18.198  0.00  0.00    +0.000 A 
ATOM     20  C   UNL     1       3.149   4.651  19.472  0.00  0.00    +0.000 A 
ATOM     21  C   UNL     1       2.446   5.548  20.282  0.00  0.00    +0.000 A 
ATOM     22  C   UNL     1       2.174   6.833  19.816  0.00  0.00    +0.000 A 
ATOM     23  F   UNL     1       1.518   7.684  20.619  0.00  0.00    +0.000 F 
ATOM     24  C   UNL     1       2.590   7.231  18.545  0.00  0.00    +0.000 A 
ATOM     25 CL   UNL     1       2.270   8.825  17.978  0.00  0.00    +0.000 Cl
ATOM     26  C   UNL     1       3.289   6.342  17.726  0.00  0.00    +0.000 A 
ENDBRANCH  16  19
ENDBRANCH  14  16
ENDBRANCH   1  14
TORSDOF 7
ENDMDL
MODEL 3
REMARK VINA RESULT:      -7.6      4.391      5.686
REMARK  Name = 
REMARK  7 active torsions:
REMARK  status: ('A' for Active; 'I' for Inactive)
REMARK    1  A    between atoms: C_2  and  C_3
REMARK    2  A    between atoms: C_3  and  N_4
REMARK    3  A    between atoms: N_4  and  S_5
REMARK    4  A    between atoms: S_5  and  C_8
REMARK    5  A    between atoms: N_16  and  C_17
REMARK    6  A    between atoms: C_17  and  C_18
REMARK    7  A    between atoms: C_18  and  C_19
REMARK                            x       y       z     vdW  Elec       q    Type
REMARK                         _______ _______ _______ _____ _____    ______ ____
ROOT
ATOM      1  C   UNL     1       7.519   4.524  17.792  0.00  0.00    +0.000 C 
ENDROOT
BRANCH   1   3
ATOM      2  O   UNL     1       7.764   5.565  19.970  0.00  0.00    +0.000 OA
ATOM      3  C   UNL     1       7.786   5.688  18.747  0.00  0.00    +0.000 C 
ATOM      4  N   UNL     1       8.044   6.893  18.119  0.00  0.00    +0.000 N 
ATOM      5  H   UNL     1       8.128   6.923  17.110  0.00  0.00    +0.000 HD
BRANCH   4   6
ATOM      6  C   UNL     1       8.353   8.091  18.887  0.00  0.00    +0.000 C 
BRANCH   6   7
ATOM      7  C   UNL     1       8.399   9.350  18.017  0.00  0.00    +0.000 C 
BRANCH   7   8
ATOM      8  C   UNL     1       9.280  10.423  18.610  0.00  0.00    +0.000 A 
ATOM      9  C   UNL     1      10.070  11.234  17.782  0.00  0.00    +0.000 A 
ATOM     10  C   UNL     1      10.903  12.210  18.333  0.00  0.00    +0.000 A 
ATOM     11  C   UNL     1      10.957  12.386  19.714  0.00  0.00    +0.000 A 
ATOM     12  C   UNL     1      10.176  11.587  20.547  0.00  0.00    +0.000 A 
ATOM     13  C   UNL     1       9.343  10.609  19.999  0.00  0.00    +0.000 A 
ENDBRANCH   7   8
ENDBRANCH   6   7
ENDBRANCH   4   6
ENDBRANCH   1   3
BRANCH   1  14
ATOM     14  N   UNL     1       6.185   4.631  17.189  0.00  0.00    +0.000 NA
ATOM     15  H   UNL     1       6.112   4.421  16.191  0.00  0.00    +0.000 HD
BRANCH  14  16
ATOM     16  S   UNL     1       4.868   4.115  18.080  0.00  0.00    +0.000 S 
ATOM     17  O   UNL     1       4.059   3.306  17.201  0.00  0.00    +0.000 OA
ATOM     18  O   UNL     1       5.358   3.618  19.348  0.00  0.00    +0.000 OA
BRANCH  16  19
ATOM     19  C   UNL     1       3.960   5.614  18.378  0.00  0.00    +0.000 A 
ATOM     20  C   UNL     1       4.034   6.658  17.449  0.00  0.00    +0.000 A 
ATOM     21  C   UNL     1       3.249   7.800  17.632  0.00  0.00    +0.000 A 
ATOM     22  C   UNL     1       2.397   7.886  18.732  0.00  0.00    +0.000 A 
ATOM     23  F   UNL     1       1.637   8.981  18.875  0.00  0.00    +0.000 F 
ATOM     24  C   UNL     1       2.327   6.844  19.658  0.00  0.00    +0.000 A 
ATOM     25 CL   UNL     1       1.262   6.943  21.007  0.00  0.00    +0.000 Cl
ATOM     26  C   UNL     1       3.110   5.701  19.487  0.00  0.00    +0.000 A 
ENDBRANCH  16  19
ENDBRANCH  14  16
ENDBRANCH   1  14
TORSDOF 7
ENDMDL
MODEL 4
REMARK VINA RESULT:      -7.5      4.600      5.985
REMARK  Name = 
REMARK  7 active torsions:
REMARK  status: ('A' for Active; 'I' for Inactive)
REMARK    1  A    between atoms: C_2  and  C_3
REMARK    2  A    between atoms: C_3  and  N_4
REMARK    3  A    between atoms: N_4  and  S_5
REMARK    4  A    between atoms: S_5  and  C_8
REMARK    5  A    between atoms: N_16  and  C_17
REMARK    6  A    between atoms: C_17  and  C_18
REMARK    7  A    between atoms: C_18  and  C_19
REMARK                            x       y       z     vdW  Elec       q    Type
REMARK                         _______ _______ _______ _____ _____    ______ ____
ROOT
ATOM      1  C   UNL     1       7.494   4.971  17.202  0.00  0.00    +0.000 C 
ENDROOT
BRANCH   1   3
ATOM      2  O   UNL     1       7.754   6.330  19.194  0.00  0.00    +0.000 OA
ATOM      3  C   UNL     1       7.607   6.285  17.975  0.00  0.00    +0.000 C 
ATOM      4  N   UNL     1       7.517   7.419  17.187  0.00  0.00    +0.000 N 
ATOM      5  H   UNL     1       7.475   7.326  16.180  0.00  0.00    +0.000 HD
BRANCH   4   6
ATOM      6  C   UNL     1       7.640   8.749  17.767  0.00  0.00    +0.000 C 
BRANCH   6   7
ATOM      7  C   UNL     1       8.879   8.890  18.655  0.00  0.00    +0.000 C 
BRANCH   7   8
ATOM      8  C   UNL     1       9.191  10.331  18.978  0.00  0.00    +0.000 A 
ATOM      9  C   UNL     1       9.402  10.734  20.305  0.00  0.00    +0.000 A 
ATOM     10  C   UNL     1       9.667  12.071  20.606  0.00  0.00    +0.000 A 
ATOM     11  C   UNL     1       9.723  13.020  19.586  0.00  0.00    +0.000 A 
ATOM     12  C   UNL     1       9.516  12.631  18.264  0.00  0.00    +0.000 A 
ATOM     13  C   UNL     1       9.250  11.294  17.961  0.00  0.00    +0.000 A 
ENDBRANCH   7   8
ENDBRANCH   6   7
ENDBRANCH   4   6
ENDBRANCH   1   3
BRANCH   1  14
ATOM     14  N   UNL     1       6.201   4.322  17.448  0.00  0.00    +0.000 NA
ATOM     15  H   UNL     1       5.939   4.172  18.424  0.00  0.00    +0.000 HD
BRANCH  14  16
ATOM     16  S   UNL     1       4.912   4.723  16.462  0.00  0.00    +0.000 S 
ATOM     17  O   UNL     1       4.968   6.152  16.261  0.00  0.00    +0.000 OA
ATOM     18  O   UNL     1       4.894   3.792  15.355  0.00  0.00    +0.000 OA
BRANCH  16  19
ATOM     19  C   UNL     1       3.495   4.405  17.487  0.00  0.00    +0.000 A 
ATOM     20  C   UNL     1       2.779   3.214  17.319  0.00  0.00    +0.000 A 
ATOM     21  C   UNL     1       1.721   2.917  18.184  0.00  0.00    +0.000 A 
ATOM     22  C   UNL     1       1.395   3.805  19.207  0.00  0.00    +0.000 A 
ATOM     23  F   UNL     1       0.392   3.489  20.039  0.00  0.00    +0.000 F 
ATOM     24  C   UNL     1       2.109   4.993  19.371  0.00  0.00    +0.000 A 
ATOM     25 CL   UNL     1       1.717   6.081  20.647  0.00  0.00    +0.000 Cl
ATOM     26  C   UNL     1       3.164   5.301  18.511  0.00  0.00    +0.000 A 
ENDBRANCH  16  19
ENDBRANCH  14  16
ENDBRANCH   1  14
TORSDOF 7
ENDMDL
MODEL 5
REMARK VINA RESULT:      -7.4      3.058      6.413
REMARK  Name = 
REMARK  7 active torsions:
REMARK  status: ('A' for Active; 'I' for Inactive)
REMARK    1  A    between atoms: C_2  and  C_3
REMARK    2  A    between atoms: C_3  and  N_4
REMARK    3  A    between atoms: N_4  and  S_5
REMARK    4  A    between atoms: S_5  and  C_8
REMARK    5  A    between atoms: N_16  and  C_17
REMARK    6  A    between atoms: C_17  and  C_18
REMARK    7  A    between atoms: C_18  and  C_19
REMARK                            x       y       z     vdW  Elec       q    Type
REMARK                         _______ _______ _______ _____ _____    ______ ____
ROOT
ATOM      1  C   UNL     1       1.492   3.128  19.516  0.00  0.00    +0.000 C 
ENDROOT
BRANCH   1   3
ATOM      2  O   UNL     1       1.017   3.997  17.302  0.00  0.00    +0.000 OA
ATOM      3  C   UNL     1       1.510   4.185  18.412  0.00  0.00    +0.000 C 
ATOM      4  N   UNL     1       2.140   5.366  18.763  0.00  0.00    +0.000 N 
ATOM      5  H   UNL     1       2.459   5.498  19.714  0.00  0.00    +0.000 HD
BRANCH   4   6
ATOM      6  C   UNL     1       2.212   6.485  17.834  0.00  0.00    +0.000 C 
BRANCH   6   7
ATOM      7  C   UNL     1       2.728   7.765  18.497  0.00  0.00    +0.000 C 
BRANCH   7   8
ATOM      8  C   UNL     1       1.606   8.671  18.945  0.00  0.00    +0.000 A 
ATOM      9  C   UNL     1       0.944   9.494  18.022  0.00  0.00    +0.000 A 
ATOM     10  C   UNL     1      -0.077  10.349  18.441  0.00  0.00    +0.000 A 
ATOM     11  C   UNL     1      -0.447  10.393  19.783  0.00  0.00    +0.000 A 
ATOM     12  C   UNL     1       0.203   9.579  20.710  0.00  0.00    +0.000 A 
ATOM     13  C   UNL     1       1.226   8.723  20.293  0.00  0.00    +0.000 A 
ENDBRANCH   7   8
ENDBRANCH   6   7
ENDBRANCH   4   6
ENDBRANCH   1   3
BRANCH   1  14
ATOM     14  N   UNL     1       2.785   3.062  20.206  0.00  0.00    +0.000 NA
ATOM     15  H   UNL     1       2.762   2.891  21.214  0.00  0.00    +0.000 HD
BRANCH  14  16
ATOM     16  S   UNL     1       4.061   2.313  19.429  0.00  0.00    +0.000 S 
ATOM     17  O   UNL     1       4.983   1.885  20.455  0.00  0.00    +0.000 OA
ATOM     18  O   UNL     1       3.510   1.392  18.459  0.00  0.00    +0.000 OA
BRANCH  16  19
ATOM     19  C   UNL     1       4.850   3.644  18.555  0.00  0.00    +0.000 A 
ATOM     20  C   UNL     1       5.552   4.618  19.275  0.00  0.00    +0.000 A 
ATOM     21  C   UNL     1       6.252   5.614  18.587  0.00  0.00    +0.000 A 
ATOM     22  C   UNL     1       6.249   5.623  17.193  0.00  0.00    +0.000 A 
ATOM     23  F   UNL     1       6.946   6.575  16.554  0.00  0.00    +0.000 F 
ATOM     24  C   UNL     1       5.546   4.653  16.478  0.00  0.00    +0.000 A 
ATOM     25 CL   UNL     1       5.558   4.655  14.756  0.00  0.00    +0.000 Cl
ATOM     26  C   UNL     1       4.841   3.657  17.155  0.00  0.00    +0.000 A 
ENDBRANCH  16  19
ENDBRANCH  14  16
ENDBRANCH   1  14
TORSDOF 7
ENDMDL
MODEL 6
REMARK VINA RESULT:      -7.4      2.848      5.843
REMARK  Name = 
REMARK  7 active torsions:
REMARK  status: ('A' for Active; 'I' for Inactive)
REMARK    1  A    between atoms: C_2  and  C_3
REMARK    2  A    between atoms: C_3  and  N_4
REMARK    3  A    between atoms: N_4  and  S_5
REMARK    4  A    between atoms: S_5  and  C_8
REMARK    5  A    between atoms: N_16  and  C_17
REMARK    6  A    between atoms: C_17  and  C_18
REMARK    7  A    between atoms: C_18  and  C_19
REMARK                            x       y       z     vdW  Elec       q    Type
REMARK                         _______ _______ _______ _____ _____    ______ ____
ROOT
ATOM      1  C   UNL     1       7.103   4.078  16.046  0.00  0.00    +0.000 C 
ENDROOT
BRANCH   1   3
ATOM      2  O   UNL     1       5.057   4.340  14.769  0.00  0.00    +0.000 OA
ATOM      3  C   UNL     1       5.594   3.985  15.816  0.00  0.00    +0.000 C 
ATOM      4  N   UNL     1       4.884   3.477  16.889  0.00  0.00    +0.000 N 
ATOM      5  H   UNL     1       5.383   3.126  17.697  0.00  0.00    +0.000 HD
BRANCH   4   6
ATOM      6  C   UNL     1       3.442   3.292  16.817  0.00  0.00    +0.000 C 
BRANCH   6   7
ATOM      7  C   UNL     1       2.972   2.043  17.567  0.00  0.00    +0.000 C 
BRANCH   7   8
ATOM      8  C   UNL     1       2.479   2.363  18.958  0.00  0.00    +0.000 A 
ATOM      9  C   UNL     1       3.372   2.394  20.039  0.00  0.00    +0.000 A 
ATOM     10  C   UNL     1       2.912   2.665  21.329  0.00  0.00    +0.000 A 
ATOM     11  C   UNL     1       1.559   2.906  21.554  0.00  0.00    +0.000 A 
ATOM     12  C   UNL     1       0.662   2.878  20.487  0.00  0.00    +0.000 A 
ATOM     13  C   UNL     1       1.119   2.606  19.196  0.00  0.00    +0.000 A 
ENDBRANCH   7   8
ENDBRANCH   6   7
ENDBRANCH   4   6
ENDBRANCH   1   3
BRANCH   1  14
ATOM     14  N   UNL     1       7.476   5.391  16.587  0.00  0.00    +0.000 NA
ATOM     15  H   UNL     1       7.342   6.197  15.973  0.00  0.00    +0.000 HD
BRANCH  14  16
ATOM     16  S   UNL     1       7.145   5.709  18.194  0.00  0.00    +0.000 S 
ATOM     17  O   UNL     1       7.062   4.434  18.865  0.00  0.00    +0.000 OA
ATOM     18  O   UNL     1       8.046   6.752  18.634  0.00  0.00    +0.000 OA
BRANCH  16  19
ATOM     19  C   UNL     1       5.497   6.373  18.151  0.00  0.00    +0.000 A 
ATOM     20  C   UNL     1       5.102   7.164  17.066  0.00  0.00    +0.000 A 
ATOM     21  C   UNL     1       3.780   7.611  16.982  0.00  0.00    +0.000 A 
ATOM     22  C   UNL     1       2.867   7.259  17.975  0.00  0.00    +0.000 A 
ATOM     23  F   UNL     1       1.599   7.680  17.862  0.00  0.00    +0.000 F 
ATOM     24  C   UNL     1       3.264   6.473  19.058  0.00  0.00    +0.000 A 
ATOM     25 CL   UNL     1       2.131   6.024  20.275  0.00  0.00    +0.000 Cl
ATOM     26  C   UNL     1       4.582   6.025  19.153  0.00  0.00    +0.000 A 
ENDBRANCH  16  19
ENDBRANCH  14  16
ENDBRANCH   1  14
TORSDOF 7
ENDMDL
MODEL 7
REMARK VINA RESULT:      -7.4      3.438      6.476
REMARK  Name = 
REMARK  7 active torsions:
REMARK  status: ('A' for Active; 'I' for Inactive)
REMARK    1  A    between atoms: C_2  and  C_3
REMARK    2  A    between atoms: C_3  and  N_4
REMARK    3  A    between atoms: N_4  and  S_5
REMARK    4  A    between atoms: S_5  and  C_8
REMARK    5  A    between atoms: N_16  and  C_17
REMARK    6  A    between atoms: C_17  and  C_18
REMARK    7  A    between atoms: C_18  and  C_19
REMARK                            x       y       z     vdW  Elec       q    Type
REMARK                         _______ _______ _______ _____ _____    ______ ____
ROOT
ATOM      1  C   UNL     1       4.300   6.736  17.370  0.00  0.00    +0.000 C 
ENDROOT
BRANCH   1   3
ATOM      2  O   UNL     1       2.105   7.497  18.072  0.00  0.00    +0.000 OA
ATOM      3  C   UNL     1       3.103   6.822  18.318  0.00  0.00    +0.000 C 
ATOM      4  N   UNL     1       3.243   6.086  19.481  0.00  0.00    +0.000 N 
ATOM      5  H   UNL     1       4.050   5.486  19.599  0.00  0.00    +0.000 HD
BRANCH   4   6
ATOM      6  C   UNL     1       2.177   6.035  20.472  0.00  0.00    +0.000 C 
BRANCH   6   7
ATOM      7  C   UNL     1       1.372   4.735  20.402  0.00  0.00    +0.000 C 
BRANCH   7   8
ATOM      8  C   UNL     1       2.103   3.649  19.650  0.00  0.00    +0.000 A 
ATOM      9  C   UNL     1       1.744   3.330  18.332  0.00  0.00    +0.000 A 
ATOM     10  C   UNL     1       2.404   2.310  17.645  0.00  0.00    +0.000 A 
ATOM     11  C   UNL     1       3.427   1.596  18.266  0.00  0.00    +0.000 A 
ATOM     12  C   UNL     1       3.793   1.904  19.575  0.00  0.00    +0.000 A 
ATOM     13  C   UNL     1       3.134   2.924  20.265  0.00  0.00    +0.000 A 
ENDBRANCH   7   8
ENDBRANCH   6   7
ENDBRANCH   4   6
ENDBRANCH   1   3
BRANCH   1  14
ATOM     14  N   UNL     1       5.565   6.855  18.104  0.00  0.00    +0.000 NA
ATOM     15  H   UNL     1       5.546   7.394  18.972  0.00  0.00    +0.000 HD
BRANCH  14  16
ATOM     16  S   UNL     1       6.575   5.524  18.163  0.00  0.00    +0.000 S 
ATOM     17  O   UNL     1       7.921   6.027  18.306  0.00  0.00    +0.000 OA
ATOM     18  O   UNL     1       6.006   4.577  19.096  0.00  0.00    +0.000 OA
BRANCH  16  19
ATOM     19  C   UNL     1       6.455   4.842  16.526  0.00  0.00    +0.000 A 
ATOM     20  C   UNL     1       5.485   3.869  16.256  0.00  0.00    +0.000 A 
ATOM     21  C   UNL     1       5.325   3.398  14.950  0.00  0.00    +0.000 A 
ATOM     22  C   UNL     1       6.126   3.906  13.929  0.00  0.00    +0.000 A 
ATOM     23  F   UNL     1       5.939   3.456  12.679  0.00  0.00    +0.000 F 
ATOM     24  C   UNL     1       7.093   4.875  14.200  0.00  0.00    +0.000 A 
ATOM     25 CL   UNL     1       8.069   5.516  12.934  0.00  0.00    +0.000 Cl
ATOM     26  C   UNL     1       7.264   5.350  15.502  0.00  0.00    +0.000 A 
ENDBRANCH  16  19
ENDBRANCH  14  16
ENDBRANCH   1  14
TORSDOF 7
ENDMDL
MODEL 8
REMARK VINA RESULT:      -7.4      5.535      6.996
REMARK  Name = 
REMARK  7 active torsions:
REMARK  status: ('A' for Active; 'I' for Inactive)
REMARK    1  A    between atoms: C_2  and  C_3
REMARK    2  A    between atoms: C_3  and  N_4
REMARK    3  A    between atoms: N_4  and  S_5
REMARK    4  A    between atoms: S_5  and  C_8
REMARK    5  A    between atoms: N_16  and  C_17
REMARK    6  A    between atoms: C_17  and  C_18
REMARK    7  A    between atoms: C_18  and  C_19
REMARK                            x       y       z     vdW  Elec       q    Type
REMARK                         _______ _______ _______ _____ _____    ______ ____
ROOT
ATOM      1  C   UNL     1       6.413   7.111  17.015  0.00  0.00    +0.000 C 
ENDROOT
BRANCH   1   3
ATOM      2  O   UNL     1       8.179   6.854  18.658  0.00  0.00    +0.000 OA
ATOM      3  C   UNL     1       7.550   7.601  17.912  0.00  0.00    +0.000 C 
ATOM      4  N   UNL     1       7.803   8.959  17.822  0.00  0.00    +0.000 N 
ATOM      5  H   UNL     1       7.309   9.514  17.135  0.00  0.00    +0.000 HD
BRANCH   4   6
ATOM      6  C   UNL     1       8.877   9.576  18.587  0.00  0.00    +0.000 C 
BRANCH   6   7
ATOM      7  C   UNL     1       9.308  10.926  18.008  0.00  0.00    +0.000 C 
BRANCH   7   8
ATOM      8  C   UNL     1       9.615  11.939  19.085  0.00  0.00    +0.000 A 
ATOM      9  C   UNL     1       9.797  13.291  18.759  0.00  0.00    +0.000 A 
ATOM     10  C   UNL     1      10.104  14.223  19.752  0.00  0.00    +0.000 A 
ATOM     11  C   UNL     1      10.236  13.816  21.078  0.00  0.00    +0.000 A 
ATOM     12  C   UNL     1      10.057  12.475  21.414  0.00  0.00    +0.000 A 
ATOM     13  C   UNL     1       9.750  11.541  20.422  0.00  0.00    +0.000 A 
ENDBRANCH   7   8
ENDBRANCH   6   7
ENDBRANCH   4   6
ENDBRANCH   1   3
BRANCH   1  14
ATOM     14  N   UNL     1       6.904   6.161  16.010  0.00  0.00    +0.000 NA
ATOM     15  H   UNL     1       7.743   6.432  15.491  0.00  0.00    +0.000 HD
BRANCH  14  16
ATOM     16  S   UNL     1       6.828   4.529  16.357  0.00  0.00    +0.000 S 
ATOM     17  O   UNL     1       6.397   3.864  15.151  0.00  0.00    +0.000 OA
ATOM     18  O   UNL     1       8.050   4.163  17.041  0.00  0.00    +0.000 OA
BRANCH  16  19
ATOM     19  C   UNL     1       5.482   4.415  17.513  0.00  0.00    +0.000 A 
ATOM     20  C   UNL     1       5.751   4.451  18.886  0.00  0.00    +0.000 A 
ATOM     21  C   UNL     1       4.690   4.456  19.796  0.00  0.00    +0.000 A 
ATOM     22  C   UNL     1       3.377   4.433  19.328  0.00  0.00    +0.000 A 
ATOM     23  F   UNL     1       2.375   4.462  20.220  0.00  0.00    +0.000 F 
ATOM     24  C   UNL     1       3.112   4.397  17.959  0.00  0.00    +0.000 A 
ATOM     25 CL   UNL     1       1.490   4.387  17.382  0.00  0.00    +0.000 Cl
ATOM     26  C   UNL     1       4.164   4.387  17.041  0.00  0.00    +0.000 A 
ENDBRANCH  16  19
ENDBRANCH  14  16
ENDBRANCH   1  14
TORSDOF 7
ENDMDL
MODEL 9
REMARK VINA RESULT:      -7.3      2.527      3.900
REMARK  Name = 
REMARK  7 active torsions:
REMARK  status: ('A' for Active; 'I' for Inactive)
REMARK    1  A    between atoms: C_2  and  C_3
REMARK    2  A    between atoms: C_3  and  N_4
REMARK    3  A    between atoms: N_4  and  S_5
REMARK    4  A    between atoms: S_5  and  C_8
REMARK    5  A    between atoms: N_16  and  C_17
REMARK    6  A    between atoms: C_17  and  C_18
REMARK    7  A    between atoms: C_18  and  C_19
REMARK                            x       y       z     vdW  Elec       q    Type
REMARK                         _______ _______ _______ _____ _____    ______ ____
ROOT
ATOM      1  C   UNL     1       2.290   2.591  18.950  0.00  0.00    +0.000 C 
ENDROOT
BRANCH   1   3
ATOM      2  O   UNL     1       3.968   1.287  17.780  0.00  0.00    +0.000 OA
ATOM      3  C   UNL     1       3.449   2.384  17.975  0.00  0.00    +0.000 C 
ATOM      4  N   UNL     1       3.873   3.538  17.340  0.00  0.00    +0.000 N 
ATOM      5  H   UNL     1       3.360   4.401  17.478  0.00  0.00    +0.000 HD
BRANCH   4   6
ATOM      6  C   UNL     1       4.945   3.505  16.356  0.00  0.00    +0.000 C 
BRANCH   6   7
ATOM      7  C   UNL     1       5.339   4.903  15.870  0.00  0.00    +0.000 C 
BRANCH   7   8
ATOM      8  C   UNL     1       6.302   5.585  16.811  0.00  0.00    +0.000 A 
ATOM      9  C   UNL     1       7.009   4.843  17.768  0.00  0.00    +0.000 A 
ATOM     10  C   UNL     1       7.882   5.478  18.653  0.00  0.00    +0.000 A 
ATOM     11  C   UNL     1       8.057   6.859  18.594  0.00  0.00    +0.000 A 
ATOM     12  C   UNL     1       7.360   7.607  17.646  0.00  0.00    +0.000 A 
ATOM     13  C   UNL     1       6.486   6.975  16.760  0.00  0.00    +0.000 A 
ENDBRANCH   7   8
ENDBRANCH   6   7
ENDBRANCH   4   6
ENDBRANCH   1   3
BRANCH   1  14
ATOM     14  N   UNL     1       1.909   4.006  19.028  0.00  0.00    +0.000 NA
ATOM     15  H   UNL     1       0.914   4.221  18.932  0.00  0.00    +0.000 HD
BRANCH  14  16
ATOM     16  S   UNL     1       2.703   4.982  20.127  0.00  0.00    +0.000 S 
ATOM     17  O   UNL     1       1.950   4.926  21.357  0.00  0.00    +0.000 OA
ATOM     18  O   UNL     1       4.111   4.656  20.073  0.00  0.00    +0.000 OA
BRANCH  16  19
ATOM     19  C   UNL     1       2.479   6.616  19.464  0.00  0.00    +0.000 A 
ATOM     20  C   UNL     1       3.006   6.925  18.205  0.00  0.00    +0.000 A 
ATOM     21  C   UNL     1       2.753   8.178  17.639  0.00  0.00    +0.000 A 
ATOM     22  C   UNL     1       1.973   9.104  18.331  0.00  0.00    +0.000 A 
ATOM     23  F   UNL     1       1.725  10.291  17.759  0.00  0.00    +0.000 F 
ATOM     24  C   UNL     1       1.451   8.794  19.587  0.00  0.00    +0.000 A 
ATOM     25 CL   UNL     1       0.473   9.932  20.433  0.00  0.00    +0.000 Cl
ATOM     26  C   UNL     1       1.701   7.547  20.163  0.00  0.00    +0.000 A 
ENDBRANCH  16  19
ENDBRANCH  14  16
ENDBRANCH   1  14
TORSDOF 7
ENDMDL
