MODEL 1
REMARK VINA RESULT:      -7.1      0.000      0.000
REMARK  Name = 
REMARK  3 active torsions:
REMARK  status: ('A' for Active; 'I' for Inactive)
REMARK    1  A    between atoms: C_1  and  O_2
REMARK    2  A    between atoms: O_2  and  C_3
REMARK    3  A    between atoms: C_6  and  C_7
REMARK                            x       y       z     vdW  Elec       q    Type
REMARK                         _______ _______ _______ _____ _____    ______ ____
ROOT
ATOM      1  C   UNL     1       4.769   3.769  16.637  0.00  0.00    +0.000 C 
ATOM      2  C   UNL     1       5.671   4.760  16.632  0.00  0.00    +0.000 C 
ATOM      3  S   UNL     1       5.898   6.021  17.784  0.00  0.00    +0.000 S 
ATOM      4  C   UNL     1       7.217   6.735  16.867  0.00  0.00    +0.000 C 
ATOM      5  O   UNL     1       7.819   7.738  17.192  0.00  0.00    +0.000 OA
ATOM      6  N   UNL     1       7.447   5.995  15.751  0.00  0.00    +0.000 N 
ATOM      7  C   UNL     1       6.668   4.896  15.533  0.00  0.00    +0.000 C 
ATOM      8  O   UNL     1       6.778   4.146  14.582  0.00  0.00    +0.000 OA
ATOM      9  H   UNL     1       8.176   6.252  15.106  0.00  0.00    +0.000 HD
ENDROOT
BRANCH   1  13
ATOM     10  C   UNL     1       1.734   3.049  19.562  0.00  0.00    +0.000 A 
ATOM     11  C   UNL     1       3.045   2.625  19.780  0.00  0.00    +0.000 A 
ATOM     12  C   UNL     1       4.042   2.892  18.838  0.00  0.00    +0.000 A 
ATOM     13  C   UNL     1       3.728   3.550  17.643  0.00  0.00    +0.000 A 
ATOM     14  C   UNL     1       2.413   3.973  17.428  0.00  0.00    +0.000 A 
ATOM     15  C   UNL     1       1.423   3.729  18.384  0.00  0.00    +0.000 A 
BRANCH  10  17
ATOM     16  C   UNL     1       1.408   2.615  21.853  0.00  0.00    +0.000 C 
ATOM     17  O   UNL     1       0.838   2.761  20.556  0.00  0.00    +0.000 OA
ENDBRANCH  10  17
ENDBRANCH   1  13
TORSDOF 2
ENDMDL
MODEL 2
REMARK VINA RESULT:      -7.0      2.835      6.345
REMARK  Name = 
REMARK  3 active torsions:
REMARK  status: ('A' for Active; 'I' for Inactive)
REMARK    1  A    between atoms: C_1  and  O_2
REMARK    2  A    between atoms: O_2  and  C_3
REMARK    3  A    between atoms: C_6  and  C_7
REMARK                            x       y       z     vdW  Elec       q    Type
REMARK                         _______ _______ _______ _____ _____    ______ ____
ROOT
ATOM      1  C   UNL     1       2.657   3.935  17.643  0.00  0.00    +0.000 C 
ATOM      2  C   UNL     1       2.221   3.569  18.856  0.00  0.00    +0.000 C 
ATOM      3  S   UNL     1       2.914   3.898  20.399  0.00  0.00    +0.000 S 
ATOM      4  C   UNL     1       1.664   2.998  21.245  0.00  0.00    +0.000 C 
ATOM      5  O   UNL     1       1.620   2.846  22.449  0.00  0.00    +0.000 OA
ATOM      6  N   UNL     1       0.771   2.506  20.347  0.00  0.00    +0.000 N 
ATOM      7  C   UNL     1       0.977   2.766  19.023  0.00  0.00    +0.000 C 
ATOM      8  O   UNL     1       0.250   2.394  18.123  0.00  0.00    +0.000 OA
ATOM      9  H   UNL     1      -0.021   1.966  20.654  0.00  0.00    +0.000 HD
ENDROOT
BRANCH   1  13
ATOM     10  C   UNL     1       6.245   6.125  16.862  0.00  0.00    +0.000 A 
ATOM     11  C   UNL     1       6.220   4.737  16.733  0.00  0.00    +0.000 A 
ATOM     12  C   UNL     1       5.037   4.027  16.955  0.00  0.00    +0.000 A 
ATOM     13  C   UNL     1       3.874   4.697  17.353  0.00  0.00    +0.000 A 
ATOM     14  C   UNL     1       3.904   6.089  17.482  0.00  0.00    +0.000 A 
ATOM     15  C   UNL     1       5.081   6.799  17.233  0.00  0.00    +0.000 A 
BRANCH  10  17
ATOM     16  C   UNL     1       7.778   7.809  17.467  0.00  0.00    +0.000 C 
ATOM     17  O   UNL     1       7.446   6.729  16.599  0.00  0.00    +0.000 OA
ENDBRANCH  10  17
ENDBRANCH   1  13
TORSDOF 2
ENDMDL
MODEL 3
REMARK VINA RESULT:      -7.0      2.827      6.411
REMARK  Name = 
REMARK  3 active torsions:
REMARK  status: ('A' for Active; 'I' for Inactive)
REMARK    1  A    between atoms: C_1  and  O_2
REMARK    2  A    between atoms: O_2  and  C_3
REMARK    3  A    between atoms: C_6  and  C_7
REMARK                            x       y       z     vdW  Elec       q    Type
REMARK                         _______ _______ _______ _____ _____    ______ ____
ROOT
ATOM      1  C   UNL     1       2.689   3.922  17.644  0.00  0.00    +0.000 C 
ATOM      2  C   UNL     1       2.242   3.556  18.853  0.00  0.00    +0.000 C 
ATOM      3  S   UNL     1       2.966   3.809  20.397  0.00  0.00    +0.000 S 
ATOM      4  C   UNL     1       1.671   2.967  21.235  0.00  0.00    +0.000 C 
ATOM      5  O   UNL     1       1.627   2.791  22.436  0.00  0.00    +0.000 OA
ATOM      6  N   UNL     1       0.743   2.549  20.335  0.00  0.00    +0.000 N 
ATOM      7  C   UNL     1       0.953   2.826  19.015  0.00  0.00    +0.000 C 
ATOM      8  O   UNL     1       0.197   2.519  18.113  0.00  0.00    +0.000 OA
ATOM      9  H   UNL     1      -0.078   2.051  20.637  0.00  0.00    +0.000 HD
ENDROOT
BRANCH   1  13
ATOM     10  C   UNL     1       6.325   5.988  16.751  0.00  0.00    +0.000 A 
ATOM     11  C   UNL     1       5.216   6.681  17.236  0.00  0.00    +0.000 A 
ATOM     12  C   UNL     1       4.040   5.998  17.560  0.00  0.00    +0.000 A 
ATOM     13  C   UNL     1       3.947   4.616  17.360  0.00  0.00    +0.000 A 
ATOM     14  C   UNL     1       5.061   3.925  16.873  0.00  0.00    +0.000 A 
ATOM     15  C   UNL     1       6.245   4.606  16.576  0.00  0.00    +0.000 A 
BRANCH  10  17
ATOM     16  C   UNL     1       7.701   7.771  17.439  0.00  0.00    +0.000 C 
ATOM     17  O   UNL     1       7.436   6.744  16.488  0.00  0.00    +0.000 OA
ENDBRANCH  10  17
ENDBRANCH   1  13
TORSDOF 2
ENDMDL
MODEL 4
REMARK VINA RESULT:      -7.0      0.119      1.209
REMARK  Name = 
REMARK  3 active torsions:
REMARK  status: ('A' for Active; 'I' for Inactive)
REMARK    1  A    between atoms: C_1  and  O_2
REMARK    2  A    between atoms: O_2  and  C_3
REMARK    3  A    between atoms: C_6  and  C_7
REMARK                            x       y       z     vdW  Elec       q    Type
REMARK                         _______ _______ _______ _____ _____    ______ ____
ROOT
ATOM      1  C   UNL     1       4.816   3.715  16.648  0.00  0.00    +0.000 C 
ATOM      2  C   UNL     1       5.708   4.715  16.639  0.00  0.00    +0.000 C 
ATOM      3  S   UNL     1       5.958   5.953  17.812  0.00  0.00    +0.000 S 
ATOM      4  C   UNL     1       7.241   6.699  16.872  0.00  0.00    +0.000 C 
ATOM      5  O   UNL     1       7.844   7.701  17.202  0.00  0.00    +0.000 OA
ATOM      6  N   UNL     1       7.445   5.987  15.733  0.00  0.00    +0.000 N 
ATOM      7  C   UNL     1       6.670   4.886  15.514  0.00  0.00    +0.000 C 
ATOM      8  O   UNL     1       6.758   4.158  14.544  0.00  0.00    +0.000 OA
ATOM      9  H   UNL     1       8.151   6.266  15.073  0.00  0.00    +0.000 HD
ENDROOT
BRANCH   1  13
ATOM     10  C   UNL     1       1.861   3.063  19.669  0.00  0.00    +0.000 A 
ATOM     11  C   UNL     1       1.508   3.621  18.440  0.00  0.00    +0.000 A 
ATOM     12  C   UNL     1       2.469   3.801  17.442  0.00  0.00    +0.000 A 
ATOM     13  C   UNL     1       3.807   3.464  17.680  0.00  0.00    +0.000 A 
ATOM     14  C   UNL     1       4.157   2.905  18.913  0.00  0.00    +0.000 A 
ATOM     15  C   UNL     1       3.188   2.701  19.899  0.00  0.00    +0.000 A 
BRANCH  10  17
ATOM     16  C   UNL     1       1.256   2.588  21.895  0.00  0.00    +0.000 C 
ATOM     17  O   UNL     1       0.841   2.905  20.570  0.00  0.00    +0.000 OA
ENDBRANCH  10  17
ENDBRANCH   1  13
TORSDOF 2
ENDMDL
MODEL 5
REMARK VINA RESULT:      -6.8      2.934      6.691
REMARK  Name = 
REMARK  3 active torsions:
REMARK  status: ('A' for Active; 'I' for Inactive)
REMARK    1  A    between atoms: C_1  and  O_2
REMARK    2  A    between atoms: O_2  and  C_3
REMARK    3  A    between atoms: C_6  and  C_7
REMARK                            x       y       z     vdW  Elec       q    Type
REMARK                         _______ _______ _______ _____ _____    ______ ____
ROOT
ATOM      1  C   UNL     1       3.991   5.066  19.239  0.00  0.00    +0.000 C 
ATOM      2  C   UNL     1       2.903   4.283  19.225  0.00  0.00    +0.000 C 
ATOM      3  S   UNL     1       2.354   3.216  17.988  0.00  0.00    +0.000 S 
ATOM      4  C   UNL     1       0.930   2.750  18.907  0.00  0.00    +0.000 C 
ATOM      5  O   UNL     1       0.082   1.974  18.516  0.00  0.00    +0.000 OA
ATOM      6  N   UNL     1       0.931   3.392  20.104  0.00  0.00    +0.000 N 
ATOM      7  C   UNL     1       1.963   4.241  20.380  0.00  0.00    +0.000 C 
ATOM      8  O   UNL     1       2.088   4.866  21.416  0.00  0.00    +0.000 OA
ATOM      9  H   UNL     1       0.190   3.241  20.768  0.00  0.00    +0.000 HD
ENDROOT
BRANCH   1  13
ATOM     10  C   UNL     1       6.794   5.444  16.032  0.00  0.00    +0.000 A 
ATOM     11  C   UNL     1       5.541   6.054  15.955  0.00  0.00    +0.000 A 
ATOM     12  C   UNL     1       4.640   5.957  17.019  0.00  0.00    +0.000 A 
ATOM     13  C   UNL     1       4.967   5.211  18.157  0.00  0.00    +0.000 A 
ATOM     14  C   UNL     1       6.223   4.601  18.230  0.00  0.00    +0.000 A 
ATOM     15  C   UNL     1       7.133   4.721  17.176  0.00  0.00    +0.000 A 
BRANCH  10  17
ATOM     16  C   UNL     1       7.277   4.830  13.810  0.00  0.00    +0.000 C 
ATOM     17  O   UNL     1       7.612   5.618  14.948  0.00  0.00    +0.000 OA
ENDBRANCH  10  17
ENDBRANCH   1  13
TORSDOF 2
ENDMDL
MODEL 6
REMARK VINA RESULT:      -6.7      2.936      6.608
REMARK  Name = 
REMARK  3 active torsions:
REMARK  status: ('A' for Active; 'I' for Inactive)
REMARK    1  A    between atoms: C_1  and  O_2
REMARK    2  A    between atoms: O_2  and  C_3
REMARK    3  A    between atoms: C_6  and  C_7
REMARK                            x       y       z     vdW  Elec       q    Type
REMARK                         _______ _______ _______ _____ _____    ______ ____
ROOT
ATOM      1  C   UNL     1       3.964   5.016  19.138  0.00  0.00    +0.000 C 
ATOM      2  C   UNL     1       2.879   4.230  19.164  0.00  0.00    +0.000 C 
ATOM      3  S   UNL     1       2.292   3.156  17.951  0.00  0.00    +0.000 S 
ATOM      4  C   UNL     1       0.900   2.691  18.919  0.00  0.00    +0.000 C 
ATOM      5  O   UNL     1       0.041   1.911  18.560  0.00  0.00    +0.000 OA
ATOM      6  N   UNL     1       0.939   3.339  20.112  0.00  0.00    +0.000 N 
ATOM      7  C   UNL     1       1.977   4.192  20.350  0.00  0.00    +0.000 C 
ATOM      8  O   UNL     1       2.135   4.822  21.378  0.00  0.00    +0.000 OA
ATOM      9  H   UNL     1       0.221   3.189  20.801  0.00  0.00    +0.000 HD
ENDROOT
BRANCH   1  13
ATOM     10  C   UNL     1       6.761   5.471  15.936  0.00  0.00    +0.000 A 
ATOM     11  C   UNL     1       7.071   4.678  17.042  0.00  0.00    +0.000 A 
ATOM     12  C   UNL     1       6.141   4.504  18.070  0.00  0.00    +0.000 A 
ATOM     13  C   UNL     1       4.904   5.158  18.024  0.00  0.00    +0.000 A 
ATOM     14  C   UNL     1       4.598   5.951  16.915  0.00  0.00    +0.000 A 
ATOM     15  C   UNL     1       5.519   6.102  15.874  0.00  0.00    +0.000 A 
BRANCH  10  17
ATOM     16  C   UNL     1       7.400   4.933  13.734  0.00  0.00    +0.000 C 
ATOM     17  O   UNL     1       7.729   5.557  14.971  0.00  0.00    +0.000 OA
ENDBRANCH  10  17
ENDBRANCH   1  13
TORSDOF 2
ENDMDL
MODEL 7
REMARK VINA RESULT:      -6.6      1.596      2.451
REMARK  Name = 
REMARK  3 active torsions:
REMARK  status: ('A' for Active; 'I' for Inactive)
REMARK    1  A    between atoms: C_1  and  O_2
REMARK    2  A    between atoms: O_2  and  C_3
REMARK    3  A    between atoms: C_6  and  C_7
REMARK                            x       y       z     vdW  Elec       q    Type
REMARK                         _______ _______ _______ _____ _____    ______ ____
ROOT
ATOM      1  C   UNL     1       5.472   5.798  18.157  0.00  0.00    +0.000 C 
ATOM      2  C   UNL     1       5.878   5.388  16.947  0.00  0.00    +0.000 C 
ATOM      3  S   UNL     1       5.198   4.172  15.933  0.00  0.00    +0.000 S 
ATOM      4  C   UNL     1       6.427   4.397  14.698  0.00  0.00    +0.000 C 
ATOM      5  O   UNL     1       6.492   3.760  13.666  0.00  0.00    +0.000 OA
ATOM      6  N   UNL     1       7.282   5.381  15.081  0.00  0.00    +0.000 N 
ATOM      7  C   UNL     1       7.068   5.990  16.283  0.00  0.00    +0.000 C 
ATOM      8  O   UNL     1       7.750   6.890  16.736  0.00  0.00    +0.000 OA
ATOM      9  H   UNL     1       8.051   5.652  14.490  0.00  0.00    +0.000 HD
ENDROOT
BRANCH   1  13
ATOM     10  C   UNL     1       2.146   4.194  20.313  0.00  0.00    +0.000 A 
ATOM     11  C   UNL     1       3.235   3.387  19.985  0.00  0.00    +0.000 A 
ATOM     12  C   UNL     1       4.335   3.922  19.310  0.00  0.00    +0.000 A 
ATOM     13  C   UNL     1       4.339   5.265  18.917  0.00  0.00    +0.000 A 
ATOM     14  C   UNL     1       3.246   6.072  19.248  0.00  0.00    +0.000 A 
ATOM     15  C   UNL     1       2.158   5.540  19.946  0.00  0.00    +0.000 A 
BRANCH  10  17
ATOM     16  C   UNL     1       1.537   2.516  21.849  0.00  0.00    +0.000 C 
ATOM     17  O   UNL     1       1.129   3.581  20.996  0.00  0.00    +0.000 OA
ENDBRANCH  10  17
ENDBRANCH   1  13
TORSDOF 2
ENDMDL
MODEL 8
REMARK VINA RESULT:      -6.6      1.563      2.639
REMARK  Name = 
REMARK  3 active torsions:
REMARK  status: ('A' for Active; 'I' for Inactive)
REMARK    1  A    between atoms: C_1  and  O_2
REMARK    2  A    between atoms: O_2  and  C_3
REMARK    3  A    between atoms: C_6  and  C_7
REMARK                            x       y       z     vdW  Elec       q    Type
REMARK                         _______ _______ _______ _____ _____    ______ ____
ROOT
ATOM      1  C   UNL     1       5.524   5.715  18.115  0.00  0.00    +0.000 C 
ATOM      2  C   UNL     1       5.934   5.353  16.892  0.00  0.00    +0.000 C 
ATOM      3  S   UNL     1       5.272   4.161  15.838  0.00  0.00    +0.000 S 
ATOM      4  C   UNL     1       6.496   4.448  14.609  0.00  0.00    +0.000 C 
ATOM      5  O   UNL     1       6.569   3.848  13.556  0.00  0.00    +0.000 OA
ATOM      6  N   UNL     1       7.336   5.432  15.025  0.00  0.00    +0.000 N 
ATOM      7  C   UNL     1       7.114   5.996  16.247  0.00  0.00    +0.000 C 
ATOM      8  O   UNL     1       7.782   6.890  16.730  0.00  0.00    +0.000 OA
ATOM      9  H   UNL     1       8.099   5.735  14.443  0.00  0.00    +0.000 HD
ENDROOT
BRANCH   1  13
ATOM     10  C   UNL     1       2.264   4.080  20.348  0.00  0.00    +0.000 A 
ATOM     11  C   UNL     1       2.238   5.409  19.923  0.00  0.00    +0.000 A 
ATOM     12  C   UNL     1       3.289   5.930  19.164  0.00  0.00    +0.000 A 
ATOM     13  C   UNL     1       4.402   5.138  18.858  0.00  0.00    +0.000 A 
ATOM     14  C   UNL     1       4.424   3.807  19.286  0.00  0.00    +0.000 A 
ATOM     15  C   UNL     1       3.359   3.280  20.022  0.00  0.00    +0.000 A 
BRANCH  10  17
ATOM     16  C   UNL     1       1.398   2.506  21.871  0.00  0.00    +0.000 C 
ATOM     17  O   UNL     1       1.175   3.659  21.065  0.00  0.00    +0.000 OA
ENDBRANCH  10  17
ENDBRANCH   1  13
TORSDOF 2
ENDMDL
MODEL 9
REMARK VINA RESULT:      -6.4      2.778      6.448
REMARK  Name = 
REMARK  3 active torsions:
REMARK  status: ('A' for Active; 'I' for Inactive)
REMARK    1  A    between atoms: C_1  and  O_2
REMARK    2  A    between atoms: O_2  and  C_3
REMARK    3  A    between atoms: C_6  and  C_7
REMARK                            x       y       z     vdW  Elec       q    Type
REMARK                         _______ _______ _______ _____ _____    ______ ____
ROOT
ATOM      1  C   UNL     1       2.642   3.559  17.436  0.00  0.00    +0.000 C 
ATOM      2  C   UNL     1       2.365   3.410  18.739  0.00  0.00    +0.000 C 
ATOM      3  S   UNL     1       3.342   3.798  20.104  0.00  0.00    +0.000 S 
ATOM      4  C   UNL     1       2.135   3.213  21.239  0.00  0.00    +0.000 C 
ATOM      5  O   UNL     1       2.269   3.209  22.447  0.00  0.00    +0.000 OA
ATOM      6  N   UNL     1       1.046   2.771  20.558  0.00  0.00    +0.000 N 
ATOM      7  C   UNL     1       1.066   2.840  19.195  0.00  0.00    +0.000 C 
ATOM      8  O   UNL     1       0.155   2.489  18.470  0.00  0.00    +0.000 OA
ATOM      9  H   UNL     1       0.248   2.403  21.048  0.00  0.00    +0.000 HD
ENDROOT
BRANCH   1  13
ATOM     10  C   UNL     1       6.238   5.116  15.726  0.00  0.00    +0.000 A 
ATOM     11  C   UNL     1       5.326   5.965  16.354  0.00  0.00    +0.000 A 
ATOM     12  C   UNL     1       4.168   5.449  16.943  0.00  0.00    +0.000 A 
ATOM     13  C   UNL     1       3.888   4.079  16.870  0.00  0.00    +0.000 A 
ATOM     14  C   UNL     1       4.805   3.232  16.239  0.00  0.00    +0.000 A 
ATOM     15  C   UNL     1       5.975   3.747  15.675  0.00  0.00    +0.000 A 
BRANCH  10  17
ATOM     16  C   UNL     1       7.662   5.343  13.864  0.00  0.00    +0.000 C 
ATOM     17  O   UNL     1       7.353   5.717  15.203  0.00  0.00    +0.000 OA
ENDBRANCH  10  17
ENDBRANCH   1  13
TORSDOF 2
ENDMDL
