MODEL 1
REMARK VINA RESULT:      -7.7      0.000      0.000
REMARK  Name = 
REMARK  3 active torsions:
REMARK  status: ('A' for Active; 'I' for Inactive)
REMARK    1  A    between atoms: O_1  and  C_2
REMARK    2  A    between atoms: C_5  and  N_6
REMARK    3  A    between atoms: N_6  and  C_7
REMARK                            x       y       z     vdW  Elec       q    Type
REMARK                         _______ _______ _______ _____ _____    ______ ____
ROOT
ATOM      1  C   UNL     1       6.671   5.031  15.381  0.00  0.00    +0.000 A 
ATOM      2  C   UNL     1       5.685   4.263  14.784  0.00  0.00    +0.000 A 
ATOM      3  C   UNL     1       4.719   3.643  15.576  0.00  0.00    +0.000 A 
ATOM      4  C   UNL     1       4.707   3.778  16.976  0.00  0.00    +0.000 A 
ATOM      5  C   UNL     1       5.741   4.561  17.590  0.00  0.00    +0.000 A 
ATOM      6  C   UNL     1       5.831   4.767  18.985  0.00  0.00    +0.000 A 
ATOM      7  C   UNL     1       6.809   5.591  19.554  0.00  0.00    +0.000 A 
ATOM      8  C   UNL     1       7.739   6.230  18.742  0.00  0.00    +0.000 A 
ATOM      9  C   UNL     1       7.695   6.032  17.367  0.00  0.00    +0.000 A 
ATOM     10  C   UNL     1       6.711   5.210  16.773  0.00  0.00    +0.000 A 
ENDROOT
BRANCH   1  11
ATOM     11  O   UNL     1       7.621   5.625  14.592  0.00  0.00    +0.000 OA
ATOM     12  H   UNL     1       8.479   5.204  14.764  0.00  0.00    +0.000 HD
ENDBRANCH   1  11
BRANCH   4  13
ATOM     13  N   UNL     1       3.765   3.068  17.774  0.00  0.00    +0.000 N 
ATOM     14  H   UNL     1       3.868   2.066  17.607  0.00  0.00    +0.000 HD
BRANCH  13  15
ATOM     15  C   UNL     1       2.356   3.517  17.748  0.00  0.00    +0.000 C 
ATOM     16  C   UNL     1       1.402   2.551  18.473  0.00  0.00    +0.000 C 
ATOM     17  C   UNL     1       1.272   2.757  19.978  0.00  0.00    +0.000 C 
ATOM     18  C   UNL     1       0.993   4.207  20.337  0.00  0.00    +0.000 C 
ATOM     19  C   UNL     1       2.069   5.123  19.773  0.00  0.00    +0.000 C 
ATOM     20  C   UNL     1       2.245   4.963  18.264  0.00  0.00    +0.000 C 
ENDBRANCH  13  15
ENDBRANCH   4  13
TORSDOF 3
ENDMDL
MODEL 2
REMARK VINA RESULT:      -7.3      1.206      3.139
REMARK  Name = 
REMARK  3 active torsions:
REMARK  status: ('A' for Active; 'I' for Inactive)
REMARK    1  A    between atoms: O_1  and  C_2
REMARK    2  A    between atoms: C_5  and  N_6
REMARK    3  A    between atoms: N_6  and  C_7
REMARK                            x       y       z     vdW  Elec       q    Type
REMARK                         _______ _______ _______ _____ _____    ______ ____
ROOT
ATOM      1  C   UNL     1       7.351   6.470  17.254  0.00  0.00    +0.000 A 
ATOM      2  C   UNL     1       7.208   6.401  18.629  0.00  0.00    +0.000 A 
ATOM      3  C   UNL     1       6.451   5.375  19.194  0.00  0.00    +0.000 A 
ATOM      4  C   UNL     1       5.825   4.393  18.406  0.00  0.00    +0.000 A 
ATOM      5  C   UNL     1       5.963   4.478  16.981  0.00  0.00    +0.000 A 
ATOM      6  C   UNL     1       5.380   3.550  16.089  0.00  0.00    +0.000 A 
ATOM      7  C   UNL     1       5.586   3.617  14.706  0.00  0.00    +0.000 A 
ATOM      8  C   UNL     1       6.377   4.625  14.167  0.00  0.00    +0.000 A 
ATOM      9  C   UNL     1       6.947   5.571  15.012  0.00  0.00    +0.000 A 
ATOM     10  C   UNL     1       6.757   5.516  16.412  0.00  0.00    +0.000 A 
ENDROOT
BRANCH   1  11
ATOM     11  O   UNL     1       8.089   7.489  16.710  0.00  0.00    +0.000 OA
ATOM     12  H   UNL     1       7.771   7.660  15.809  0.00  0.00    +0.000 HD
ENDBRANCH   1  11
BRANCH   4  13
ATOM     13  N   UNL     1       4.985   3.405  18.995  0.00  0.00    +0.000 N 
ATOM     14  H   UNL     1       4.843   2.643  18.330  0.00  0.00    +0.000 HD
BRANCH  13  15
ATOM     15  C   UNL     1       3.730   3.854  19.637  0.00  0.00    +0.000 C 
ATOM     16  C   UNL     1       2.868   4.741  18.720  0.00  0.00    +0.000 C 
ATOM     17  C   UNL     1       1.931   3.999  17.774  0.00  0.00    +0.000 C 
ATOM     18  C   UNL     1       1.100   2.951  18.495  0.00  0.00    +0.000 C 
ATOM     19  C   UNL     1       1.992   1.963  19.232  0.00  0.00    +0.000 C 
ATOM     20  C   UNL     1       2.955   2.648  20.199  0.00  0.00    +0.000 C 
ENDBRANCH  13  15
ENDBRANCH   4  13
TORSDOF 3
ENDMDL
MODEL 3
REMARK VINA RESULT:      -7.3      2.593      5.474
REMARK  Name = 
REMARK  3 active torsions:
REMARK  status: ('A' for Active; 'I' for Inactive)
REMARK    1  A    between atoms: O_1  and  C_2
REMARK    2  A    between atoms: C_5  and  N_6
REMARK    3  A    between atoms: N_6  and  C_7
REMARK                            x       y       z     vdW  Elec       q    Type
REMARK                         _______ _______ _______ _____ _____    ______ ____
ROOT
ATOM      1  C   UNL     1       1.613   2.340  18.525  0.00  0.00    +0.000 A 
ATOM      2  C   UNL     1       2.631   1.637  17.904  0.00  0.00    +0.000 A 
ATOM      3  C   UNL     1       3.942   2.106  17.983  0.00  0.00    +0.000 A 
ATOM      4  C   UNL     1       4.270   3.281  18.684  0.00  0.00    +0.000 A 
ATOM      5  C   UNL     1       3.209   4.015  19.311  0.00  0.00    +0.000 A 
ATOM      6  C   UNL     1       3.417   5.206  20.041  0.00  0.00    +0.000 A 
ATOM      7  C   UNL     1       2.374   5.867  20.700  0.00  0.00    +0.000 A 
ATOM      8  C   UNL     1       1.080   5.360  20.641  0.00  0.00    +0.000 A 
ATOM      9  C   UNL     1       0.834   4.202  19.912  0.00  0.00    +0.000 A 
ATOM     10  C   UNL     1       1.875   3.517  19.245  0.00  0.00    +0.000 A 
ENDROOT
BRANCH   1  11
ATOM     11  O   UNL     1       0.327   1.875  18.430  0.00  0.00    +0.000 OA
ATOM     12  H   UNL     1       0.103   1.404  19.250  0.00  0.00    +0.000 HD
ENDBRANCH   1  11
BRANCH   4  13
ATOM     13  N   UNL     1       5.600   3.791  18.680  0.00  0.00    +0.000 N 
ATOM     14  H   UNL     1       5.721   4.425  19.471  0.00  0.00    +0.000 HD
BRANCH  13  15
ATOM     15  C   UNL     1       6.128   4.340  17.412  0.00  0.00    +0.000 C 
ATOM     16  C   UNL     1       5.176   5.354  16.751  0.00  0.00    +0.000 C 
ATOM     17  C   UNL     1       5.299   6.792  17.241  0.00  0.00    +0.000 C 
ATOM     18  C   UNL     1       6.738   7.278  17.236  0.00  0.00    +0.000 C 
ATOM     19  C   UNL     1       7.625   6.364  18.068  0.00  0.00    +0.000 C 
ATOM     20  C   UNL     1       7.545   4.905  17.623  0.00  0.00    +0.000 C 
ENDBRANCH  13  15
ENDBRANCH   4  13
TORSDOF 3
ENDMDL
MODEL 4
REMARK VINA RESULT:      -7.2      1.976      3.049
REMARK  Name = 
REMARK  3 active torsions:
REMARK  status: ('A' for Active; 'I' for Inactive)
REMARK    1  A    between atoms: O_1  and  C_2
REMARK    2  A    between atoms: C_5  and  N_6
REMARK    3  A    between atoms: N_6  and  C_7
REMARK                            x       y       z     vdW  Elec       q    Type
REMARK                         _______ _______ _______ _____ _____    ______ ____
ROOT
ATOM      1  C   UNL     1       4.929   6.138  16.433  0.00  0.00    +0.000 A 
ATOM      2  C   UNL     1       5.613   4.938  16.526  0.00  0.00    +0.000 A 
ATOM      3  C   UNL     1       5.428   4.123  17.642  0.00  0.00    +0.000 A 
ATOM      4  C   UNL     1       4.555   4.479  18.686  0.00  0.00    +0.000 A 
ATOM      5  C   UNL     1       3.861   5.731  18.592  0.00  0.00    +0.000 A 
ATOM      6  C   UNL     1       2.960   6.193  19.577  0.00  0.00    +0.000 A 
ATOM      7  C   UNL     1       2.244   7.387  19.429  0.00  0.00    +0.000 A 
ATOM      8  C   UNL     1       2.415   8.165  18.290  0.00  0.00    +0.000 A 
ATOM      9  C   UNL     1       3.312   7.753  17.311  0.00  0.00    +0.000 A 
ATOM     10  C   UNL     1       4.038   6.548  17.438  0.00  0.00    +0.000 A 
ENDROOT
BRANCH   1  11
ATOM     11  O   UNL     1       5.128   6.935  15.336  0.00  0.00    +0.000 OA
ATOM     12  H   UNL     1       4.326   7.459  15.179  0.00  0.00    +0.000 HD
ENDBRANCH   1  11
BRANCH   4  13
ATOM     13  N   UNL     1       4.445   3.675  19.857  0.00  0.00    +0.000 N 
ATOM     14  H   UNL     1       5.378   3.465  20.211  0.00  0.00    +0.000 HD
BRANCH  13  15
ATOM     15  C   UNL     1       3.566   2.487  19.803  0.00  0.00    +0.000 C 
ATOM     16  C   UNL     1       2.517   2.460  20.929  0.00  0.00    +0.000 C 
ATOM     17  C   UNL     1       1.229   3.227  20.652  0.00  0.00    +0.000 C 
ATOM     18  C   UNL     1       0.625   2.866  19.306  0.00  0.00    +0.000 C 
ATOM     19  C   UNL     1       1.625   3.095  18.182  0.00  0.00    +0.000 C 
ATOM     20  C   UNL     1       2.939   2.349  18.403  0.00  0.00    +0.000 C 
ENDBRANCH  13  15
ENDBRANCH   4  13
TORSDOF 3
ENDMDL
MODEL 5
REMARK VINA RESULT:      -7.2      2.422      5.502
REMARK  Name = 
REMARK  3 active torsions:
REMARK  status: ('A' for Active; 'I' for Inactive)
REMARK    1  A    between atoms: O_1  and  C_2
REMARK    2  A    between atoms: C_5  and  N_6
REMARK    3  A    between atoms: N_6  and  C_7
REMARK                            x       y       z     vdW  Elec       q    Type
REMARK                         _______ _______ _______ _____ _____    ______ ____
ROOT
ATOM      1  C   UNL     1       2.103   2.534  18.432  0.00  0.00    +0.000 A 
ATOM      2  C   UNL     1       2.941   2.195  17.385  0.00  0.00    +0.000 A 
ATOM      3  C   UNL     1       3.843   3.136  16.889  0.00  0.00    +0.000 A 
ATOM      4  C   UNL     1       3.935   4.433  17.426  0.00  0.00    +0.000 A 
ATOM      5  C   UNL     1       3.052   4.785  18.500  0.00  0.00    +0.000 A 
ATOM      6  C   UNL     1       3.052   6.055  19.120  0.00  0.00    +0.000 A 
ATOM      7  C   UNL     1       2.227   6.351  20.211  0.00  0.00    +0.000 A 
ATOM      8  C   UNL     1       1.363   5.385  20.714  0.00  0.00    +0.000 A 
ATOM      9  C   UNL     1       1.319   4.131  20.115  0.00  0.00    +0.000 A 
ATOM     10  C   UNL     1       2.149   3.810  19.017  0.00  0.00    +0.000 A 
ENDROOT
BRANCH   1  11
ATOM     11  O   UNL     1       1.213   1.604  18.903  0.00  0.00    +0.000 OA
ATOM     12  H   UNL     1       1.227   0.831  18.315  0.00  0.00    +0.000 HD
ENDBRANCH   1  11
BRANCH   4  13
ATOM     13  N   UNL     1       4.800   5.407  16.851  0.00  0.00    +0.000 N 
ATOM     14  H   UNL     1       4.446   5.670  15.931  0.00  0.00    +0.000 HD
BRANCH  13  15
ATOM     15  C   UNL     1       6.253   5.132  16.854  0.00  0.00    +0.000 C 
ATOM     16  C   UNL     1       7.097   6.340  16.410  0.00  0.00    +0.000 C 
ATOM     17  C   UNL     1       7.445   7.342  17.505  0.00  0.00    +0.000 C 
ATOM     18  C   UNL     1       8.026   6.667  18.736  0.00  0.00    +0.000 C 
ATOM     19  C   UNL     1       7.075   5.609  19.275  0.00  0.00    +0.000 C 
ATOM     20  C   UNL     1       6.689   4.573  18.222  0.00  0.00    +0.000 C 
ENDBRANCH  13  15
ENDBRANCH   4  13
TORSDOF 3
ENDMDL
MODEL 6
REMARK VINA RESULT:      -7.0      1.009      2.709
REMARK  Name = 
REMARK  3 active torsions:
REMARK  status: ('A' for Active; 'I' for Inactive)
REMARK    1  A    between atoms: O_1  and  C_2
REMARK    2  A    between atoms: C_5  and  N_6
REMARK    3  A    between atoms: N_6  and  C_7
REMARK                            x       y       z     vdW  Elec       q    Type
REMARK                         _______ _______ _______ _____ _____    ______ ____
ROOT
ATOM      1  C   UNL     1       7.120   6.286  17.265  0.00  0.00    +0.000 A 
ATOM      2  C   UNL     1       6.694   6.128  18.573  0.00  0.00    +0.000 A 
ATOM      3  C   UNL     1       5.825   5.086  18.894  0.00  0.00    +0.000 A 
ATOM      4  C   UNL     1       5.365   4.175  17.926  0.00  0.00    +0.000 A 
ATOM      5  C   UNL     1       5.797   4.353  16.570  0.00  0.00    +0.000 A 
ATOM      6  C   UNL     1       5.402   3.503  15.513  0.00  0.00    +0.000 A 
ATOM      7  C   UNL     1       5.891   3.658  14.211  0.00  0.00    +0.000 A 
ATOM      8  C   UNL     1       6.787   4.680  13.920  0.00  0.00    +0.000 A 
ATOM      9  C   UNL     1       7.180   5.551  14.930  0.00  0.00    +0.000 A 
ATOM     10  C   UNL     1       6.703   5.407  16.253  0.00  0.00    +0.000 A 
ENDROOT
BRANCH   1  11
ATOM     11  O   UNL     1       7.965   7.321  16.960  0.00  0.00    +0.000 OA
ATOM     12  H   UNL     1       8.264   7.736  17.785  0.00  0.00    +0.000 HD
ENDBRANCH   1  11
BRANCH   4  13
ATOM     13  N   UNL     1       4.411   3.171  18.257  0.00  0.00    +0.000 N 
ATOM     14  H   UNL     1       4.752   2.263  17.939  0.00  0.00    +0.000 HD
BRANCH  13  15
ATOM     15  C   UNL     1       2.996   3.414  17.899  0.00  0.00    +0.000 C 
ATOM     16  C   UNL     1       2.052   2.299  18.382  0.00  0.00    +0.000 C 
ATOM     17  C   UNL     1       1.546   2.436  19.814  0.00  0.00    +0.000 C 
ATOM     18  C   UNL     1       0.983   3.818  20.094  0.00  0.00    +0.000 C 
ATOM     19  C   UNL     1       2.013   4.897  19.796  0.00  0.00    +0.000 C 
ATOM     20  C   UNL     1       2.557   4.813  18.372  0.00  0.00    +0.000 C 
ENDBRANCH  13  15
ENDBRANCH   4  13
TORSDOF 3
ENDMDL
MODEL 7
REMARK VINA RESULT:      -7.0      3.941      5.779
REMARK  Name = 
REMARK  3 active torsions:
REMARK  status: ('A' for Active; 'I' for Inactive)
REMARK    1  A    between atoms: O_1  and  C_2
REMARK    2  A    between atoms: C_5  and  N_6
REMARK    3  A    between atoms: N_6  and  C_7
REMARK                            x       y       z     vdW  Elec       q    Type
REMARK                         _______ _______ _______ _____ _____    ______ ____
ROOT
ATOM      1  C   UNL     1       1.996   9.009  18.213  0.00  0.00    +0.000 A 
ATOM      2  C   UNL     1       2.809   7.954  17.834  0.00  0.00    +0.000 A 
ATOM      3  C   UNL     1       2.964   6.861  18.687  0.00  0.00    +0.000 A 
ATOM      4  C   UNL     1       2.311   6.790  19.930  0.00  0.00    +0.000 A 
ATOM      5  C   UNL     1       1.483   7.893  20.325  0.00  0.00    +0.000 A 
ATOM      6  C   UNL     1       0.778   7.934  21.549  0.00  0.00    +0.000 A 
ATOM      7  C   UNL     1      -0.077   8.991  21.880  0.00  0.00    +0.000 A 
ATOM      8  C   UNL     1      -0.247  10.053  20.998  0.00  0.00    +0.000 A 
ATOM      9  C   UNL     1       0.450  10.058  19.795  0.00  0.00    +0.000 A 
ATOM     10  C   UNL     1       1.311   8.996  19.439  0.00  0.00    +0.000 A 
ENDROOT
BRANCH   1  11
ATOM     11  O   UNL     1       1.861  10.082  17.371  0.00  0.00    +0.000 OA
ATOM     12  H   UNL     1       2.730  10.295  16.993  0.00  0.00    +0.000 HD
ENDBRANCH   1  11
BRANCH   4  13
ATOM     13  N   UNL     1       2.549   5.707  20.824  0.00  0.00    +0.000 N 
ATOM     14  H   UNL     1       3.538   5.457  20.795  0.00  0.00    +0.000 HD
BRANCH  13  15
ATOM     15  C   UNL     1       1.654   4.532  20.743  0.00  0.00    +0.000 C 
ATOM     16  C   UNL     1       1.180   4.231  19.310  0.00  0.00    +0.000 C 
ATOM     17  C   UNL     1       2.119   3.373  18.470  0.00  0.00    +0.000 C 
ATOM     18  C   UNL     1       2.552   2.114  19.200  0.00  0.00    +0.000 C 
ATOM     19  C   UNL     1       3.203   2.454  20.533  0.00  0.00    +0.000 C 
ATOM     20  C   UNL     1       2.308   3.314  21.422  0.00  0.00    +0.000 C 
ENDBRANCH  13  15
ENDBRANCH   4  13
TORSDOF 3
ENDMDL
MODEL 8
REMARK VINA RESULT:      -7.0      2.591      5.655
REMARK  Name = 
REMARK  3 active torsions:
REMARK  status: ('A' for Active; 'I' for Inactive)
REMARK    1  A    between atoms: O_1  and  C_2
REMARK    2  A    between atoms: C_5  and  N_6
REMARK    3  A    between atoms: N_6  and  C_7
REMARK                            x       y       z     vdW  Elec       q    Type
REMARK                         _______ _______ _______ _____ _____    ______ ____
ROOT
ATOM      1  C   UNL     1       1.477   3.040  20.126  0.00  0.00    +0.000 A 
ATOM      2  C   UNL     1       1.908   2.024  19.291  0.00  0.00    +0.000 A 
ATOM      3  C   UNL     1       2.671   2.332  18.165  0.00  0.00    +0.000 A 
ATOM      4  C   UNL     1       3.027   3.655  17.848  0.00  0.00    +0.000 A 
ATOM      5  C   UNL     1       2.563   4.706  18.708  0.00  0.00    +0.000 A 
ATOM      6  C   UNL     1       2.857   6.071  18.491  0.00  0.00    +0.000 A 
ATOM      7  C   UNL     1       2.450   7.070  19.382  0.00  0.00    +0.000 A 
ATOM      8  C   UNL     1       1.723   6.736  20.519  0.00  0.00    +0.000 A 
ATOM      9  C   UNL     1       1.395   5.406  20.753  0.00  0.00    +0.000 A 
ATOM     10  C   UNL     1       1.803   4.381  19.869  0.00  0.00    +0.000 A 
ENDROOT
BRANCH   1  11
ATOM     11  O   UNL     1       0.718   2.725  21.223  0.00  0.00    +0.000 OA
ATOM     12  H   UNL     1       1.305   2.414  21.932  0.00  0.00    +0.000 HD
ENDBRANCH   1  11
BRANCH   4  13
ATOM     13  N   UNL     1       3.732   3.959  16.649  0.00  0.00    +0.000 N 
ATOM     14  H   UNL     1       3.211   3.596  15.850  0.00  0.00    +0.000 HD
BRANCH  13  15
ATOM     15  C   UNL     1       5.174   3.636  16.592  0.00  0.00    +0.000 C 
ATOM     16  C   UNL     1       5.801   3.912  15.213  0.00  0.00    +0.000 C 
ATOM     17  C   UNL     1       6.275   5.342  14.978  0.00  0.00    +0.000 C 
ATOM     18  C   UNL     1       7.149   5.850  16.111  0.00  0.00    +0.000 C 
ATOM     19  C   UNL     1       6.424   5.751  17.444  0.00  0.00    +0.000 C 
ATOM     20  C   UNL     1       5.926   4.338  17.739  0.00  0.00    +0.000 C 
ENDBRANCH  13  15
ENDBRANCH   4  13
TORSDOF 3
ENDMDL
MODEL 9
REMARK VINA RESULT:      -6.9      4.453      6.466
REMARK  Name = 
REMARK  3 active torsions:
REMARK  status: ('A' for Active; 'I' for Inactive)
REMARK    1  A    between atoms: O_1  and  C_2
REMARK    2  A    between atoms: C_5  and  N_6
REMARK    3  A    between atoms: N_6  and  C_7
REMARK                            x       y       z     vdW  Elec       q    Type
REMARK                         _______ _______ _______ _____ _____    ______ ____
ROOT
ATOM      1  C   UNL     1       1.115  10.305  18.633  0.00  0.00    +0.000 A 
ATOM      2  C   UNL     1       1.820   9.443  17.811  0.00  0.00    +0.000 A 
ATOM      3  C   UNL     1       2.244   8.209  18.306  0.00  0.00    +0.000 A 
ATOM      4  C   UNL     1       1.972   7.804  19.625  0.00  0.00    +0.000 A 
ATOM      5  C   UNL     1       1.257   8.709  20.478  0.00  0.00    +0.000 A 
ATOM      6  C   UNL     1       0.926   8.412  21.819  0.00  0.00    +0.000 A 
ATOM      7  C   UNL     1       0.168   9.283  22.609  0.00  0.00    +0.000 A 
ATOM      8  C   UNL     1      -0.278  10.491  22.084  0.00  0.00    +0.000 A 
ATOM      9  C   UNL     1       0.048  10.827  20.775  0.00  0.00    +0.000 A 
ATOM     10  C   UNL     1       0.806   9.958  19.958  0.00  0.00    +0.000 A 
ENDROOT
BRANCH   1  11
ATOM     11  O   UNL     1       0.714  11.518  18.139  0.00  0.00    +0.000 OA
ATOM     12  H   UNL     1       0.033  11.887  18.726  0.00  0.00    +0.000 HD
ENDBRANCH   1  11
BRANCH   4  13
ATOM     13  N   UNL     1       2.488   6.580  20.138  0.00  0.00    +0.000 N 
ATOM     14  H   UNL     1       3.506   6.638  20.189  0.00  0.00    +0.000 HD
BRANCH  13  15
ATOM     15  C   UNL     1       2.011   5.318  19.531  0.00  0.00    +0.000 C 
ATOM     16  C   UNL     1       3.119   4.547  18.792  0.00  0.00    +0.000 C 
ATOM     17  C   UNL     1       3.969   3.622  19.657  0.00  0.00    +0.000 C 
ATOM     18  C   UNL     1       3.122   2.707  20.524  0.00  0.00    +0.000 C 
ATOM     19  C   UNL     1       2.170   3.512  21.396  0.00  0.00    +0.000 C 
ATOM     20  C   UNL     1       1.287   4.458  20.585  0.00  0.00    +0.000 C 
ENDBRANCH  13  15
ENDBRANCH   4  13
TORSDOF 3
ENDMDL
