MODEL 1
REMARK VINA RESULT:      -8.7      0.000      0.000
REMARK  Name = 
REMARK  8 active torsions:
REMARK  status: ('A' for Active; 'I' for Inactive)
REMARK    1  A    between atoms: C_1  and  C_2
REMARK    2  A    between atoms: C_2  and  C_3
REMARK    3  A    between atoms: C_3  and  O_4
REMARK    4  A    between atoms: O_4  and  C_5
REMARK    5  A    between atoms: C_8  and  N_9
REMARK    6  A    between atoms: C_12  and  O_13
REMARK    7  A    between atoms: O_13  and  C_14
REMARK    8  A    between atoms: C_28  and  N_29
REMARK                            x       y       z     vdW  Elec       q    Type
REMARK                         _______ _______ _______ _____ _____    ______ ____
ROOT
ATOM      1  C   UNL     1       2.595   7.445  18.292  0.00  0.00    +0.000 A 
ATOM      2  C   UNL     1       2.259   8.572  17.548  0.00  0.00    +0.000 A 
ATOM      3  C   UNL     1       1.532   9.609  18.124  0.00  0.00    +0.000 A 
ATOM      4  C   UNL     1       1.085   9.571  19.449  0.00  0.00    +0.000 A 
ATOM      5  C   UNL     1       1.458   8.443  20.196  0.00  0.00    +0.000 A 
ATOM      6  C   UNL     1       2.198   7.391  19.628  0.00  0.00    +0.000 A 
ENDROOT
BRANCH   4   7
ATOM      7  N   UNL     1       0.305  10.590  19.951  0.00  0.00    +0.000 N 
ATOM      8  C   UNL     1       0.573  11.987  19.598  0.00  0.00    +0.000 C 
ATOM      9  C   UNL     1       0.964  12.748  20.858  0.00  0.00    +0.000 C 
ATOM     10  C   UNL     1      -0.161  12.654  21.893  0.00  0.00    +0.000 C 
ATOM     11  C   UNL     1      -0.505  11.185  22.176  0.00  0.00    +0.000 C 
ATOM     12  C   UNL     1      -0.779  10.376  20.905  0.00  0.00    +0.000 C 
BRANCH  10  13
ATOM     13  O   UNL     1      -1.346  13.309  21.409  0.00  0.00    +0.000 OA
BRANCH  13  14
ATOM     14  C   UNL     1      -2.458  13.295  22.208  0.00  0.00    +0.000 A 
ATOM     15  C   UNL     1      -3.642  12.882  21.585  0.00  0.00    +0.000 A 
ATOM     16  C   UNL     1      -4.838  12.821  22.305  0.00  0.00    +0.000 A 
ATOM     17  C   UNL     1      -4.842  13.161  23.652  0.00  0.00    +0.000 A 
ATOM     18  F   UNL     1      -5.984  13.107  24.348  0.00  0.00    +0.000 F 
ATOM     19  C   UNL     1      -3.671  13.549  24.290  0.00  0.00    +0.000 A 
ATOM     20  C   UNL     1      -2.476  13.611  23.569  0.00  0.00    +0.000 A 
ENDBRANCH  13  14
ENDBRANCH  10  13
ENDBRANCH   4   7
BRANCH   1  21
ATOM     21  O   UNL     1       3.296   6.374  17.798  0.00  0.00    +0.000 OA
BRANCH  21  22
ATOM     22  C   UNL     1       4.112   5.711  18.772  0.00  0.00    +0.000 C 
BRANCH  22  24
ATOM     23  C   UNL     1       5.089   3.423  19.175  0.00  0.00    +0.000 C 
ATOM     24  C   UNL     1       4.913   4.556  18.167  0.00  0.00    +0.000 C 
ATOM     25  C   UNL     1       4.289   4.061  16.833  0.00  0.00    +0.000 C 
ATOM     26  N   UNL     1       5.333   4.417  15.907  0.00  0.00    +0.000 N 
ATOM     27  C   UNL     1       5.580   4.350  14.590  0.00  0.00    +0.000 A 
ATOM     28  C   UNL     1       6.855   4.908  14.489  0.00  0.00    +0.000 A 
ATOM     29  N   UNL     1       7.350   5.306  15.734  0.00  0.00    +0.000 NA
ATOM     30  C   UNL     1       6.384   4.975  16.540  0.00  0.00    +0.000 A 
ATOM     31  O   UNL     1       6.252   5.081  17.850  0.00  0.00    +0.000 OA
BRANCH  28  32
ATOM     32  N   UNL     1       7.638   5.081  13.284  0.00  0.00    +0.000 N 
ATOM     33  O   UNL     1       8.585   5.879  13.350  0.00  0.00    +0.000 OA
ATOM     34  O   UNL     1       7.311   4.431  12.282  0.00  0.00    +0.000 OA
ENDBRANCH  28  32
ENDBRANCH  22  24
ENDBRANCH  21  22
ENDBRANCH   1  21
TORSDOF 7
ENDMDL
MODEL 2
REMARK VINA RESULT:      -8.7      3.098      4.034
REMARK  Name = 
REMARK  8 active torsions:
REMARK  status: ('A' for Active; 'I' for Inactive)
REMARK    1  A    between atoms: C_1  and  C_2
REMARK    2  A    between atoms: C_2  and  C_3
REMARK    3  A    between atoms: C_3  and  O_4
REMARK    4  A    between atoms: O_4  and  C_5
REMARK    5  A    between atoms: C_8  and  N_9
REMARK    6  A    between atoms: C_12  and  O_13
REMARK    7  A    between atoms: O_13  and  C_14
REMARK    8  A    between atoms: C_28  and  N_29
REMARK                            x       y       z     vdW  Elec       q    Type
REMARK                         _______ _______ _______ _____ _____    ______ ____
ROOT
ATOM      1  C   UNL     1       2.016   6.683  20.192  0.00  0.00    +0.000 A 
ATOM      2  C   UNL     1       2.318   7.283  18.973  0.00  0.00    +0.000 A 
ATOM      3  C   UNL     1       1.883   8.575  18.694  0.00  0.00    +0.000 A 
ATOM      4  C   UNL     1       1.113   9.321  19.591  0.00  0.00    +0.000 A 
ATOM      5  C   UNL     1       0.844   8.717  20.828  0.00  0.00    +0.000 A 
ATOM      6  C   UNL     1       1.282   7.414  21.126  0.00  0.00    +0.000 A 
ENDROOT
BRANCH   4   7
ATOM      7  N   UNL     1       0.646  10.569  19.237  0.00  0.00    +0.000 N 
ATOM      8  C   UNL     1       1.248  11.784  19.792  0.00  0.00    +0.000 C 
ATOM      9  C   UNL     1       0.204  12.515  20.627  0.00  0.00    +0.000 C 
ATOM     10  C   UNL     1      -1.011  12.856  19.759  0.00  0.00    +0.000 C 
ATOM     11  C   UNL     1      -1.569  11.587  19.099  0.00  0.00    +0.000 C 
ATOM     12  C   UNL     1      -0.502  10.776  18.358  0.00  0.00    +0.000 C 
BRANCH  10  13
ATOM     13  O   UNL     1      -0.644  13.780  18.721  0.00  0.00    +0.000 OA
BRANCH  13  14
ATOM     14  C   UNL     1      -0.153  15.003  19.093  0.00  0.00    +0.000 A 
ATOM     15  C   UNL     1       1.136  15.298  18.633  0.00  0.00    +0.000 A 
ATOM     16  C   UNL     1       1.736  16.521  18.945  0.00  0.00    +0.000 A 
ATOM     17  C   UNL     1       1.037  17.450  19.706  0.00  0.00    +0.000 A 
ATOM     18  F   UNL     1       1.606  18.623  20.010  0.00  0.00    +0.000 F 
ATOM     19  C   UNL     1      -0.251  17.181  20.149  0.00  0.00    +0.000 A 
ATOM     20  C   UNL     1      -0.850  15.957  19.837  0.00  0.00    +0.000 A 
ENDBRANCH  13  14
ENDBRANCH  10  13
ENDBRANCH   4   7
BRANCH   1  21
ATOM     21  O   UNL     1       2.392   5.411  20.542  0.00  0.00    +0.000 OA
BRANCH  21  22
ATOM     22  C   UNL     1       1.573   4.382  19.972  0.00  0.00    +0.000 C 
BRANCH  22  24
ATOM     23  C   UNL     1       1.822   1.989  19.223  0.00  0.00    +0.000 C 
ATOM     24  C   UNL     1       2.381   3.405  19.116  0.00  0.00    +0.000 C 
ATOM     25  C   UNL     1       2.484   3.883  17.640  0.00  0.00    +0.000 C 
ATOM     26  N   UNL     1       3.899   4.131  17.544  0.00  0.00    +0.000 N 
ATOM     27  C   UNL     1       4.788   4.564  16.636  0.00  0.00    +0.000 A 
ATOM     28  C   UNL     1       5.994   4.500  17.335  0.00  0.00    +0.000 A 
ATOM     29  N   UNL     1       5.815   4.041  18.643  0.00  0.00    +0.000 NA
ATOM     30  C   UNL     1       4.532   3.834  18.695  0.00  0.00    +0.000 A 
ATOM     31  O   UNL     1       3.749   3.386  19.661  0.00  0.00    +0.000 OA
BRANCH  28  32
ATOM     32  N   UNL     1       7.309   4.842  16.836  0.00  0.00    +0.000 N 
ATOM     33  O   UNL     1       8.260   4.188  17.291  0.00  0.00    +0.000 OA
ATOM     34  O   UNL     1       7.395   5.752  16.002  0.00  0.00    +0.000 OA
ENDBRANCH  28  32
ENDBRANCH  22  24
ENDBRANCH  21  22
ENDBRANCH   1  21
TORSDOF 7
ENDMDL
MODEL 3
REMARK VINA RESULT:      -8.6      1.047      1.341
REMARK  Name = 
REMARK  8 active torsions:
REMARK  status: ('A' for Active; 'I' for Inactive)
REMARK    1  A    between atoms: C_1  and  C_2
REMARK    2  A    between atoms: C_2  and  C_3
REMARK    3  A    between atoms: C_3  and  O_4
REMARK    4  A    between atoms: O_4  and  C_5
REMARK    5  A    between atoms: C_8  and  N_9
REMARK    6  A    between atoms: C_12  and  O_13
REMARK    7  A    between atoms: O_13  and  C_14
REMARK    8  A    between atoms: C_28  and  N_29
REMARK                            x       y       z     vdW  Elec       q    Type
REMARK                         _______ _______ _______ _____ _____    ______ ____
ROOT
ATOM      1  C   UNL     1       2.750   7.509  18.465  0.00  0.00    +0.000 A 
ATOM      2  C   UNL     1       2.238   8.586  17.747  0.00  0.00    +0.000 A 
ATOM      3  C   UNL     1       1.321   9.454  18.332  0.00  0.00    +0.000 A 
ATOM      4  C   UNL     1       0.852   9.287  19.638  0.00  0.00    +0.000 A 
ATOM      5  C   UNL     1       1.401   8.217  20.361  0.00  0.00    +0.000 A 
ATOM      6  C   UNL     1       2.332   7.335  19.785  0.00  0.00    +0.000 A 
ENDROOT
BRANCH   4   7
ATOM      7  N   UNL     1      -0.110  10.133  20.146  0.00  0.00    +0.000 N 
ATOM      8  C   UNL     1      -1.219  10.601  19.310  0.00  0.00    +0.000 C 
ATOM      9  C   UNL     1      -1.117  12.114  19.160  0.00  0.00    +0.000 C 
ATOM     10  C   UNL     1      -1.157  12.778  20.539  0.00  0.00    +0.000 C 
ATOM     11  C   UNL     1      -0.056  12.202  21.442  0.00  0.00    +0.000 C 
ATOM     12  C   UNL     1      -0.070  10.671  21.503  0.00  0.00    +0.000 C 
BRANCH  10  13
ATOM     13  O   UNL     1      -2.426  12.546  21.174  0.00  0.00    +0.000 OA
BRANCH  13  14
ATOM     14  C   UNL     1      -2.845  13.444  22.119  0.00  0.00    +0.000 A 
ATOM     15  C   UNL     1      -3.069  12.913  23.395  0.00  0.00    +0.000 A 
ATOM     16  C   UNL     1      -3.489  13.738  24.441  0.00  0.00    +0.000 A 
ATOM     17  C   UNL     1      -3.672  15.096  24.210  0.00  0.00    +0.000 A 
ATOM     18  F   UNL     1      -4.077  15.892  25.206  0.00  0.00    +0.000 F 
ATOM     19  C   UNL     1      -3.430  15.641  22.955  0.00  0.00    +0.000 A 
ATOM     20  C   UNL     1      -3.010  14.815  21.909  0.00  0.00    +0.000 A 
ENDBRANCH  13  14
ENDBRANCH  10  13
ENDBRANCH   4   7
BRANCH   1  21
ATOM     21  O   UNL     1       3.644   6.599  17.961  0.00  0.00    +0.000 OA
BRANCH  21  22
ATOM     22  C   UNL     1       4.048   5.595  18.901  0.00  0.00    +0.000 C 
BRANCH  22  24
ATOM     23  C   UNL     1       4.821   3.210  19.151  0.00  0.00    +0.000 C 
ATOM     24  C   UNL     1       4.761   4.422  18.226  0.00  0.00    +0.000 C 
ATOM     25  C   UNL     1       4.124   4.077  16.850  0.00  0.00    +0.000 C 
ATOM     26  N   UNL     1       5.213   4.408  15.968  0.00  0.00    +0.000 N 
ATOM     27  C   UNL     1       5.480   4.414  14.653  0.00  0.00    +0.000 A 
ATOM     28  C   UNL     1       6.799   4.867  14.610  0.00  0.00    +0.000 A 
ATOM     29  N   UNL     1       7.301   5.131  15.887  0.00  0.00    +0.000 NA
ATOM     30  C   UNL     1       6.294   4.828  16.654  0.00  0.00    +0.000 A 
ATOM     31  O   UNL     1       6.145   4.852  17.966  0.00  0.00    +0.000 OA
BRANCH  28  32
ATOM     32  N   UNL     1       7.617   5.057  13.432  0.00  0.00    +0.000 N 
ATOM     33  O   UNL     1       8.584   5.825  13.548  0.00  0.00    +0.000 OA
ATOM     34  O   UNL     1       7.299   4.451  12.401  0.00  0.00    +0.000 OA
ENDBRANCH  28  32
ENDBRANCH  22  24
ENDBRANCH  21  22
ENDBRANCH   1  21
TORSDOF 7
ENDMDL
MODEL 4
REMARK VINA RESULT:      -8.5      1.462      1.952
REMARK  Name = 
REMARK  8 active torsions:
REMARK  status: ('A' for Active; 'I' for Inactive)
REMARK    1  A    between atoms: C_1  and  C_2
REMARK    2  A    between atoms: C_2  and  C_3
REMARK    3  A    between atoms: C_3  and  O_4
REMARK    4  A    between atoms: O_4  and  C_5
REMARK    5  A    between atoms: C_8  and  N_9
REMARK    6  A    between atoms: C_12  and  O_13
REMARK    7  A    between atoms: O_13  and  C_14
REMARK    8  A    between atoms: C_28  and  N_29
REMARK                            x       y       z     vdW  Elec       q    Type
REMARK                         _______ _______ _______ _____ _____    ______ ____
ROOT
ATOM      1  C   UNL     1       3.171   6.996  18.383  0.00  0.00    +0.000 A 
ATOM      2  C   UNL     1       2.650   6.584  19.606  0.00  0.00    +0.000 A 
ATOM      3  C   UNL     1       1.690   7.350  20.260  0.00  0.00    +0.000 A 
ATOM      4  C   UNL     1       1.220   8.565  19.750  0.00  0.00    +0.000 A 
ATOM      5  C   UNL     1       1.730   8.951  18.501  0.00  0.00    +0.000 A 
ATOM      6  C   UNL     1       2.697   8.183  17.827  0.00  0.00    +0.000 A 
ENDROOT
BRANCH   4   7
ATOM      7  N   UNL     1       0.322   9.322  20.471  0.00  0.00    +0.000 N 
ATOM      8  C   UNL     1       0.091  10.732  20.142  0.00  0.00    +0.000 C 
ATOM      9  C   UNL     1       0.532  11.591  21.320  0.00  0.00    +0.000 C 
ATOM     10  C   UNL     1      -0.245  11.190  22.577  0.00  0.00    +0.000 C 
ATOM     11  C   UNL     1      -0.081   9.689  22.851  0.00  0.00    +0.000 C 
ATOM     12  C   UNL     1      -0.402   8.817  21.634  0.00  0.00    +0.000 C 
BRANCH  10  13
ATOM     13  O   UNL     1      -1.647  11.467  22.412  0.00  0.00    +0.000 OA
BRANCH  13  14
ATOM     14  C   UNL     1      -2.173  12.538  23.084  0.00  0.00    +0.000 A 
ATOM     15  C   UNL     1      -3.493  12.383  23.523  0.00  0.00    +0.000 A 
ATOM     16  C   UNL     1      -4.130  13.408  24.227  0.00  0.00    +0.000 A 
ATOM     17  C   UNL     1      -3.438  14.581  24.501  0.00  0.00    +0.000 A 
ATOM     18  F   UNL     1      -4.042  15.568  25.173  0.00  0.00    +0.000 F 
ATOM     19  C   UNL     1      -2.120  14.739  24.093  0.00  0.00    +0.000 A 
ATOM     20  C   UNL     1      -1.484  13.714  23.388  0.00  0.00    +0.000 A 
ENDBRANCH  13  14
ENDBRANCH  10  13
ENDBRANCH   4   7
BRANCH   1  21
ATOM     21  O   UNL     1       4.129   6.309  17.681  0.00  0.00    +0.000 OA
BRANCH  21  22
ATOM     22  C   UNL     1       5.467   6.758  17.926  0.00  0.00    +0.000 C 
BRANCH  22  24
ATOM     23  C   UNL     1       7.639   5.622  18.510  0.00  0.00    +0.000 C 
ATOM     24  C   UNL     1       6.513   5.731  17.486  0.00  0.00    +0.000 C 
ATOM     25  C   UNL     1       5.868   4.351  17.176  0.00  0.00    +0.000 C 
ATOM     26  N   UNL     1       6.121   4.256  15.762  0.00  0.00    +0.000 N 
ATOM     27  C   UNL     1       5.887   3.407  14.749  0.00  0.00    +0.000 A 
ATOM     28  C   UNL     1       6.483   4.051  13.665  0.00  0.00    +0.000 A 
ATOM     29  N   UNL     1       7.056   5.271  14.034  0.00  0.00    +0.000 NA
ATOM     30  C   UNL     1       6.805   5.325  15.310  0.00  0.00    +0.000 A 
ATOM     31  O   UNL     1       7.100   6.226  16.230  0.00  0.00    +0.000 OA
BRANCH  28  32
ATOM     32  N   UNL     1       6.549   3.577  12.299  0.00  0.00    +0.000 N 
ATOM     33  O   UNL     1       7.428   4.079  11.582  0.00  0.00    +0.000 OA
ATOM     34  O   UNL     1       5.734   2.717  11.943  0.00  0.00    +0.000 OA
ENDBRANCH  28  32
ENDBRANCH  22  24
ENDBRANCH  21  22
ENDBRANCH   1  21
TORSDOF 7
ENDMDL
MODEL 5
REMARK VINA RESULT:      -8.5      4.559     12.491
REMARK  Name = 
REMARK  8 active torsions:
REMARK  status: ('A' for Active; 'I' for Inactive)
REMARK    1  A    between atoms: C_1  and  C_2
REMARK    2  A    between atoms: C_2  and  C_3
REMARK    3  A    between atoms: C_3  and  O_4
REMARK    4  A    between atoms: O_4  and  C_5
REMARK    5  A    between atoms: C_8  and  N_9
REMARK    6  A    between atoms: C_12  and  O_13
REMARK    7  A    between atoms: O_13  and  C_14
REMARK    8  A    between atoms: C_28  and  N_29
REMARK                            x       y       z     vdW  Elec       q    Type
REMARK                         _______ _______ _______ _____ _____    ______ ____
ROOT
ATOM      1  C   UNL     1      -0.003  10.411  21.074  0.00  0.00    +0.000 A 
ATOM      2  C   UNL     1       0.612  10.260  19.835  0.00  0.00    +0.000 A 
ATOM      3  C   UNL     1       1.278   9.081  19.515  0.00  0.00    +0.000 A 
ATOM      4  C   UNL     1       1.388   8.012  20.409  0.00  0.00    +0.000 A 
ATOM      5  C   UNL     1       0.737   8.165  21.642  0.00  0.00    +0.000 A 
ATOM      6  C   UNL     1       0.054   9.349  21.976  0.00  0.00    +0.000 A 
ENDROOT
BRANCH   4   7
ATOM      7  N   UNL     1       2.121   6.894  20.071  0.00  0.00    +0.000 N 
ATOM      8  C   UNL     1       3.053   6.917  18.940  0.00  0.00    +0.000 C 
ATOM      9  C   UNL     1       2.570   5.932  17.884  0.00  0.00    +0.000 C 
ATOM     10  C   UNL     1       2.479   4.527  18.486  0.00  0.00    +0.000 C 
ATOM     11  C   UNL     1       1.584   4.536  19.733  0.00  0.00    +0.000 C 
ATOM     12  C   UNL     1       1.983   5.609  20.751  0.00  0.00    +0.000 C 
BRANCH  10  13
ATOM     13  O   UNL     1       3.783   4.058  18.871  0.00  0.00    +0.000 OA
BRANCH  13  14
ATOM     14  C   UNL     1       4.809   4.207  17.977  0.00  0.00    +0.000 A 
ATOM     15  C   UNL     1       4.525   3.808  16.665  0.00  0.00    +0.000 A 
ATOM     16  C   UNL     1       5.493   3.923  15.664  0.00  0.00    +0.000 A 
ATOM     17  C   UNL     1       6.741   4.449  15.978  0.00  0.00    +0.000 A 
ATOM     18  F   UNL     1       7.675   4.560  15.026  0.00  0.00    +0.000 F 
ATOM     19  C   UNL     1       7.028   4.871  17.270  0.00  0.00    +0.000 A 
ATOM     20  C   UNL     1       6.059   4.756  18.270  0.00  0.00    +0.000 A 
ENDBRANCH  13  14
ENDBRANCH  10  13
ENDBRANCH   4   7
BRANCH   1  21
ATOM     21  O   UNL     1      -0.667  11.543  21.475  0.00  0.00    +0.000 OA
BRANCH  21  22
ATOM     22  C   UNL     1      -1.713  11.952  20.586  0.00  0.00    +0.000 C 
BRANCH  22  24
ATOM     23  C   UNL     1      -1.723  14.414  21.123  0.00  0.00    +0.000 C 
ATOM     24  C   UNL     1      -2.529  13.118  21.148  0.00  0.00    +0.000 C 
ATOM     25  C   UNL     1      -3.896  13.265  20.422  0.00  0.00    +0.000 C 
ATOM     26  N   UNL     1      -4.799  12.957  21.502  0.00  0.00    +0.000 N 
ATOM     27  C   UNL     1      -6.120  12.851  21.713  0.00  0.00    +0.000 A 
ATOM     28  C   UNL     1      -6.187  12.526  23.068  0.00  0.00    +0.000 A 
ATOM     29  N   UNL     1      -4.919  12.436  23.647  0.00  0.00    +0.000 NA
ATOM     30  C   UNL     1      -4.133  12.713  22.647  0.00  0.00    +0.000 A 
ATOM     31  O   UNL     1      -2.818  12.801  22.556  0.00  0.00    +0.000 OA
BRANCH  28  32
ATOM     32  N   UNL     1      -7.384  12.303  23.852  0.00  0.00    +0.000 N 
ATOM     33  O   UNL     1      -7.789  11.132  23.920  0.00  0.00    +0.000 OA
ATOM     34  O   UNL     1      -7.916  13.282  24.391  0.00  0.00    +0.000 OA
ENDBRANCH  28  32
ENDBRANCH  22  24
ENDBRANCH  21  22
ENDBRANCH   1  21
TORSDOF 7
ENDMDL
MODEL 6
REMARK VINA RESULT:      -8.5      2.198      3.224
REMARK  Name = 
REMARK  8 active torsions:
REMARK  status: ('A' for Active; 'I' for Inactive)
REMARK    1  A    between atoms: C_1  and  C_2
REMARK    2  A    between atoms: C_2  and  C_3
REMARK    3  A    between atoms: C_3  and  O_4
REMARK    4  A    between atoms: O_4  and  C_5
REMARK    5  A    between atoms: C_8  and  N_9
REMARK    6  A    between atoms: C_12  and  O_13
REMARK    7  A    between atoms: O_13  and  C_14
REMARK    8  A    between atoms: C_28  and  N_29
REMARK                            x       y       z     vdW  Elec       q    Type
REMARK                         _______ _______ _______ _____ _____    ______ ____
ROOT
ATOM      1  C   UNL     1       1.579   8.372  20.028  0.00  0.00    +0.000 A 
ATOM      2  C   UNL     1       1.513   9.485  19.196  0.00  0.00    +0.000 A 
ATOM      3  C   UNL     1       0.783  10.608  19.571  0.00  0.00    +0.000 A 
ATOM      4  C   UNL     1       0.067  10.674  20.771  0.00  0.00    +0.000 A 
ATOM      5  C   UNL     1       0.168   9.558  21.615  0.00  0.00    +0.000 A 
ATOM      6  C   UNL     1       0.908   8.418  21.250  0.00  0.00    +0.000 A 
ENDROOT
BRANCH   4   7
ATOM      7  N   UNL     1      -0.701  11.781  21.064  0.00  0.00    +0.000 N 
ATOM      8  C   UNL     1      -0.771  12.309  22.429  0.00  0.00    +0.000 C 
ATOM      9  C   UNL     1      -2.203  12.180  22.933  0.00  0.00    +0.000 C 
ATOM     10  C   UNL     1      -3.152  12.942  22.005  0.00  0.00    +0.000 C 
ATOM     11  C   UNL     1      -2.993  12.453  20.558  0.00  0.00    +0.000 C 
ATOM     12  C   UNL     1      -1.538  12.460  20.079  0.00  0.00    +0.000 C 
BRANCH  10  13
ATOM     13  O   UNL     1      -2.866  14.351  22.038  0.00  0.00    +0.000 OA
BRANCH  13  14
ATOM     14  C   UNL     1      -3.532  15.120  22.955  0.00  0.00    +0.000 A 
ATOM     15  C   UNL     1      -2.723  15.941  23.750  0.00  0.00    +0.000 A 
ATOM     16  C   UNL     1      -3.294  16.776  24.715  0.00  0.00    +0.000 A 
ATOM     17  C   UNL     1      -4.674  16.795  24.871  0.00  0.00    +0.000 A 
ATOM     18  F   UNL     1      -5.228  17.590  25.794  0.00  0.00    +0.000 F 
ATOM     19  C   UNL     1      -5.490  16.003  24.073  0.00  0.00    +0.000 A 
ATOM     20  C   UNL     1      -4.919  15.169  23.109  0.00  0.00    +0.000 A 
ENDBRANCH  13  14
ENDBRANCH  10  13
ENDBRANCH   4   7
BRANCH   1  21
ATOM     21  O   UNL     1       2.263   7.221  19.728  0.00  0.00    +0.000 OA
BRANCH  21  22
ATOM     22  C   UNL     1       1.689   6.036  20.294  0.00  0.00    +0.000 C 
BRANCH  22  24
ATOM     23  C   UNL     1       1.318   3.568  19.946  0.00  0.00    +0.000 C 
ATOM     24  C   UNL     1       2.214   4.763  19.628  0.00  0.00    +0.000 C 
ATOM     25  C   UNL     1       2.412   4.955  18.098  0.00  0.00    +0.000 C 
ATOM     26  N   UNL     1       3.843   4.822  18.001  0.00  0.00    +0.000 N 
ATOM     27  C   UNL     1       4.799   4.866  17.061  0.00  0.00    +0.000 A 
ATOM     28  C   UNL     1       5.960   4.617  17.793  0.00  0.00    +0.000 A 
ATOM     29  N   UNL     1       5.690   4.435  19.152  0.00  0.00    +0.000 NA
ATOM     30  C   UNL     1       4.397   4.567  19.202  0.00  0.00    +0.000 A 
ATOM     31  O   UNL     1       3.540   4.490  20.205  0.00  0.00    +0.000 OA
BRANCH  28  32
ATOM     32  N   UNL     1       7.311   4.534  17.281  0.00  0.00    +0.000 N 
ATOM     33  O   UNL     1       7.449   4.690  16.058  0.00  0.00    +0.000 OA
ATOM     34  O   UNL     1       8.224   4.312  18.086  0.00  0.00    +0.000 OA
ENDBRANCH  28  32
ENDBRANCH  22  24
ENDBRANCH  21  22
ENDBRANCH   1  21
TORSDOF 7
ENDMDL
MODEL 7
REMARK VINA RESULT:      -8.4      1.178      1.347
REMARK  Name = 
REMARK  8 active torsions:
REMARK  status: ('A' for Active; 'I' for Inactive)
REMARK    1  A    between atoms: C_1  and  C_2
REMARK    2  A    between atoms: C_2  and  C_3
REMARK    3  A    between atoms: C_3  and  O_4
REMARK    4  A    between atoms: O_4  and  C_5
REMARK    5  A    between atoms: C_8  and  N_9
REMARK    6  A    between atoms: C_12  and  O_13
REMARK    7  A    between atoms: O_13  and  C_14
REMARK    8  A    between atoms: C_28  and  N_29
REMARK                            x       y       z     vdW  Elec       q    Type
REMARK                         _______ _______ _______ _____ _____    ______ ____
ROOT
ATOM      1  C   UNL     1       2.686   7.662  18.352  0.00  0.00    +0.000 A 
ATOM      2  C   UNL     1       2.059   8.775  17.801  0.00  0.00    +0.000 A 
ATOM      3  C   UNL     1       1.164   9.528  18.555  0.00  0.00    +0.000 A 
ATOM      4  C   UNL     1       0.831   9.205  19.873  0.00  0.00    +0.000 A 
ATOM      5  C   UNL     1       1.495   8.100  20.427  0.00  0.00    +0.000 A 
ATOM      6  C   UNL     1       2.406   7.333  19.678  0.00  0.00    +0.000 A 
ENDROOT
BRANCH   4   7
ATOM      7  N   UNL     1      -0.116   9.940  20.554  0.00  0.00    +0.000 N 
ATOM      8  C   UNL     1      -0.556  11.246  20.056  0.00  0.00    +0.000 C 
ATOM      9  C   UNL     1      -0.165  12.316  21.068  0.00  0.00    +0.000 C 
ATOM     10  C   UNL     1      -0.804  12.007  22.425  0.00  0.00    +0.000 C 
ATOM     11  C   UNL     1      -0.421  10.593  22.886  0.00  0.00    +0.000 C 
ATOM     12  C   UNL     1      -0.694   9.521  21.827  0.00  0.00    +0.000 C 
BRANCH  10  13
ATOM     13  O   UNL     1      -2.238  12.078  22.335  0.00  0.00    +0.000 OA
BRANCH  13  14
ATOM     14  C   UNL     1      -2.848  13.238  22.729  0.00  0.00    +0.000 A 
ATOM     15  C   UNL     1      -3.186  14.121  21.696  0.00  0.00    +0.000 A 
ATOM     16  C   UNL     1      -3.821  15.333  21.979  0.00  0.00    +0.000 A 
ATOM     17  C   UNL     1      -4.128  15.651  23.296  0.00  0.00    +0.000 A 
ATOM     18  F   UNL     1      -4.735  16.811  23.575  0.00  0.00    +0.000 F 
ATOM     19  C   UNL     1      -3.821  14.775  24.329  0.00  0.00    +0.000 A 
ATOM     20  C   UNL     1      -3.185  13.564  24.045  0.00  0.00    +0.000 A 
ENDBRANCH  13  14
ENDBRANCH  10  13
ENDBRANCH   4   7
BRANCH   1  21
ATOM     21  O   UNL     1       3.568   6.858  17.676  0.00  0.00    +0.000 OA
BRANCH  21  22
ATOM     22  C   UNL     1       3.390   5.458  17.922  0.00  0.00    +0.000 C 
BRANCH  22  24
ATOM     23  C   UNL     1       5.100   3.994  19.055  0.00  0.00    +0.000 C 
ATOM     24  C   UNL     1       4.689   4.668  17.749  0.00  0.00    +0.000 C 
ATOM     25  C   UNL     1       4.593   3.656  16.573  0.00  0.00    +0.000 C 
ATOM     26  N   UNL     1       5.568   4.211  15.670  0.00  0.00    +0.000 N 
ATOM     27  C   UNL     1       6.077   3.958  14.455  0.00  0.00    +0.000 A 
ATOM     28  C   UNL     1       7.015   4.979  14.297  0.00  0.00    +0.000 A 
ATOM     29  N   UNL     1       7.052   5.829  15.405  0.00  0.00    +0.000 NA
ATOM     30  C   UNL     1       6.159   5.303  16.193  0.00  0.00    +0.000 A 
ATOM     31  O   UNL     1       5.739   5.639  17.400  0.00  0.00    +0.000 OA
BRANCH  28  32
ATOM     32  N   UNL     1       7.884   5.195  13.160  0.00  0.00    +0.000 N 
ATOM     33  O   UNL     1       7.569   4.620  12.107  0.00  0.00    +0.000 OA
ATOM     34  O   UNL     1       8.871   5.925  13.315  0.00  0.00    +0.000 OA
ENDBRANCH  28  32
ENDBRANCH  22  24
ENDBRANCH  21  22
ENDBRANCH   1  21
TORSDOF 7
ENDMDL
MODEL 8
REMARK VINA RESULT:      -8.3      2.289      3.277
REMARK  Name = 
REMARK  8 active torsions:
REMARK  status: ('A' for Active; 'I' for Inactive)
REMARK    1  A    between atoms: C_1  and  C_2
REMARK    2  A    between atoms: C_2  and  C_3
REMARK    3  A    between atoms: C_3  and  O_4
REMARK    4  A    between atoms: O_4  and  C_5
REMARK    5  A    between atoms: C_8  and  N_9
REMARK    6  A    between atoms: C_12  and  O_13
REMARK    7  A    between atoms: O_13  and  C_14
REMARK    8  A    between atoms: C_28  and  N_29
REMARK                            x       y       z     vdW  Elec       q    Type
REMARK                         _______ _______ _______ _____ _____    ______ ____
ROOT
ATOM      1  C   UNL     1       1.479   8.429  20.280  0.00  0.00    +0.000 A 
ATOM      2  C   UNL     1       1.042   8.705  21.572  0.00  0.00    +0.000 A 
ATOM      3  C   UNL     1       0.259   9.826  21.829  0.00  0.00    +0.000 A 
ATOM      4  C   UNL     1      -0.106  10.735  20.832  0.00  0.00    +0.000 A 
ATOM      5  C   UNL     1       0.314  10.427  19.529  0.00  0.00    +0.000 A 
ATOM      6  C   UNL     1       1.101   9.294  19.254  0.00  0.00    +0.000 A 
ENDROOT
BRANCH   4   7
ATOM      7  N   UNL     1      -0.822  11.869  21.151  0.00  0.00    +0.000 N 
ATOM      8  C   UNL     1      -0.670  13.100  20.370  0.00  0.00    +0.000 C 
ATOM      9  C   UNL     1      -0.092  14.185  21.269  0.00  0.00    +0.000 C 
ATOM     10  C   UNL     1      -1.014  14.412  22.470  0.00  0.00    +0.000 C 
ATOM     11  C   UNL     1      -1.251  13.093  23.219  0.00  0.00    +0.000 C 
ATOM     12  C   UNL     1      -1.714  11.957  22.303  0.00  0.00    +0.000 C 
BRANCH  10  13
ATOM     13  O   UNL     1      -2.288  14.920  22.038  0.00  0.00    +0.000 OA
BRANCH  13  14
ATOM     14  C   UNL     1      -3.081  15.540  22.966  0.00  0.00    +0.000 A 
ATOM     15  C   UNL     1      -2.501  16.639  23.613  0.00  0.00    +0.000 A 
ATOM     16  C   UNL     1      -3.220  17.355  24.574  0.00  0.00    +0.000 A 
ATOM     17  C   UNL     1      -4.522  16.976  24.875  0.00  0.00    +0.000 A 
ATOM     18  F   UNL     1      -5.216  17.655  25.796  0.00  0.00    +0.000 F 
ATOM     19  C   UNL     1      -5.118  15.903  24.224  0.00  0.00    +0.000 A 
ATOM     20  C   UNL     1      -4.399  15.188  23.264  0.00  0.00    +0.000 A 
ENDBRANCH  13  14
ENDBRANCH  10  13
ENDBRANCH   4   7
BRANCH   1  21
ATOM     21  O   UNL     1       2.265   7.356  19.942  0.00  0.00    +0.000 OA
BRANCH  21  22
ATOM     22  C   UNL     1       1.789   6.102  20.447  0.00  0.00    +0.000 C 
BRANCH  22  24
ATOM     23  C   UNL     1       1.177   3.804  19.613  0.00  0.00    +0.000 C 
ATOM     24  C   UNL     1       2.213   4.924  19.568  0.00  0.00    +0.000 C 
ATOM     25  C   UNL     1       2.522   5.376  18.113  0.00  0.00    +0.000 C 
ATOM     26  N   UNL     1       3.934   5.097  18.047  0.00  0.00    +0.000 N 
ATOM     27  C   UNL     1       4.944   5.205  17.171  0.00  0.00    +0.000 A 
ATOM     28  C   UNL     1       6.026   4.690  17.885  0.00  0.00    +0.000 A 
ATOM     29  N   UNL     1       5.657   4.288  19.172  0.00  0.00    +0.000 NA
ATOM     30  C   UNL     1       4.384   4.558  19.197  0.00  0.00    +0.000 A 
ATOM     31  O   UNL     1       3.466   4.395  20.132  0.00  0.00    +0.000 OA
BRANCH  28  32
ATOM     32  N   UNL     1       7.389   4.547  17.420  0.00  0.00    +0.000 N 
ATOM     33  O   UNL     1       8.257   4.389  18.292  0.00  0.00    +0.000 OA
ATOM     34  O   UNL     1       7.593   4.594  16.200  0.00  0.00    +0.000 OA
ENDBRANCH  28  32
ENDBRANCH  22  24
ENDBRANCH  21  22
ENDBRANCH   1  21
TORSDOF 7
ENDMDL
MODEL 9
REMARK VINA RESULT:      -8.3      2.406      3.590
REMARK  Name = 
REMARK  8 active torsions:
REMARK  status: ('A' for Active; 'I' for Inactive)
REMARK    1  A    between atoms: C_1  and  C_2
REMARK    2  A    between atoms: C_2  and  C_3
REMARK    3  A    between atoms: C_3  and  O_4
REMARK    4  A    between atoms: O_4  and  C_5
REMARK    5  A    between atoms: C_8  and  N_9
REMARK    6  A    between atoms: C_12  and  O_13
REMARK    7  A    between atoms: O_13  and  C_14
REMARK    8  A    between atoms: C_28  and  N_29
REMARK                            x       y       z     vdW  Elec       q    Type
REMARK                         _______ _______ _______ _____ _____    ______ ____
ROOT
ATOM      1  C   UNL     1       1.288   8.401  20.502  0.00  0.00    +0.000 A 
ATOM      2  C   UNL     1       1.059   8.455  21.874  0.00  0.00    +0.000 A 
ATOM      3  C   UNL     1       0.405   9.546  22.439  0.00  0.00    +0.000 A 
ATOM      4  C   UNL     1      -0.030  10.638  21.682  0.00  0.00    +0.000 A 
ATOM      5  C   UNL     1       0.179  10.556  20.297  0.00  0.00    +0.000 A 
ATOM      6  C   UNL     1       0.833   9.457  19.712  0.00  0.00    +0.000 A 
ENDROOT
BRANCH   4   7
ATOM      7  N   UNL     1      -0.608  11.727  22.299  0.00  0.00    +0.000 N 
ATOM      8  C   UNL     1      -1.719  11.558  23.240  0.00  0.00    +0.000 C 
ATOM      9  C   UNL     1      -2.956  12.239  22.669  0.00  0.00    +0.000 C 
ATOM     10  C   UNL     1      -2.668  13.723  22.427  0.00  0.00    +0.000 C 
ATOM     11  C   UNL     1      -1.437  13.889  21.525  0.00  0.00    +0.000 C 
ATOM     12  C   UNL     1      -0.218  13.106  22.022  0.00  0.00    +0.000 C 
BRANCH  10  13
ATOM     13  O   UNL     1      -2.408  14.396  23.672  0.00  0.00    +0.000 OA
BRANCH  13  14
ATOM     14  C   UNL     1      -3.213  15.450  24.012  0.00  0.00    +0.000 A 
ATOM     15  C   UNL     1      -4.588  15.193  23.972  0.00  0.00    +0.000 A 
ATOM     16  C   UNL     1      -5.505  16.193  24.308  0.00  0.00    +0.000 A 
ATOM     17  C   UNL     1      -5.040  17.444  24.696  0.00  0.00    +0.000 A 
ATOM     18  F   UNL     1      -5.912  18.407  25.017  0.00  0.00    +0.000 F 
ATOM     19  C   UNL     1      -3.678  17.705  24.763  0.00  0.00    +0.000 A 
ATOM     20  C   UNL     1      -2.762  16.705  24.426  0.00  0.00    +0.000 A 
ENDBRANCH  13  14
ENDBRANCH  10  13
ENDBRANCH   4   7
BRANCH   1  21
ATOM     21  O   UNL     1       1.937   7.372  19.867  0.00  0.00    +0.000 OA
BRANCH  21  22
ATOM     22  C   UNL     1       1.764   6.096  20.496  0.00  0.00    +0.000 C 
BRANCH  22  24
ATOM     23  C   UNL     1       1.111   3.835  19.596  0.00  0.00    +0.000 C 
ATOM     24  C   UNL     1       2.165   4.939  19.579  0.00  0.00    +0.000 C 
ATOM     25  C   UNL     1       2.473   5.430  18.136  0.00  0.00    +0.000 C 
ATOM     26  N   UNL     1       3.880   5.131  18.054  0.00  0.00    +0.000 N 
ATOM     27  C   UNL     1       4.887   5.250  17.175  0.00  0.00    +0.000 A 
ATOM     28  C   UNL     1       5.964   4.695  17.867  0.00  0.00    +0.000 A 
ATOM     29  N   UNL     1       5.596   4.261  19.143  0.00  0.00    +0.000 NA
ATOM     30  C   UNL     1       4.328   4.550  19.183  0.00  0.00    +0.000 A 
ATOM     31  O   UNL     1       3.412   4.373  20.119  0.00  0.00    +0.000 OA
BRANCH  28  32
ATOM     32  N   UNL     1       7.322   4.545  17.388  0.00  0.00    +0.000 N 
ATOM     33  O   UNL     1       7.490   4.644  16.163  0.00  0.00    +0.000 OA
ATOM     34  O   UNL     1       8.210   4.327  18.222  0.00  0.00    +0.000 OA
ENDBRANCH  28  32
ENDBRANCH  22  24
ENDBRANCH  21  22
ENDBRANCH   1  21
TORSDOF 7
ENDMDL
