MODEL 1
REMARK VINA RESULT:      -8.3      0.000      0.000
REMARK  Name = 
REMARK  4 active torsions:
REMARK  status: ('A' for Active; 'I' for Inactive)
REMARK    1  A    between atoms: C_1  and  C_2
REMARK    2  A    between atoms: C_7  and  C_9
REMARK    3  A    between atoms: C_9  and  C_10
REMARK    4  A    between atoms: C_10  and  N_11
REMARK                            x       y       z     vdW  Elec       q    Type
REMARK                         _______ _______ _______ _____ _____    ______ ____
ROOT
ATOM      1  C   UNL     1       2.868   4.338  19.506  0.00  0.00    +0.000 C 
ATOM      2  C   UNL     1       1.449   4.203  18.895  0.00  0.00    +0.000 C 
ATOM      3  C   UNL     1       1.161   2.781  18.428  0.00  0.00    +0.000 C 
ATOM      4  O   UNL     1       1.252   1.881  19.525  0.00  0.00    +0.000 OA
ATOM      5  C   UNL     1       2.577   1.832  20.049  0.00  0.00    +0.000 C 
ATOM      6  C   UNL     1       2.989   3.199  20.572  0.00  0.00    +0.000 C 
ENDROOT
BRANCH   1   7
ATOM      7  N   UNL     1       3.919   4.237  18.443  0.00  0.00    +0.000 N 
ATOM      8  C   UNL     1       3.601   4.238  17.009  0.00  0.00    +0.000 C 
ATOM      9  C   UNL     1       4.925   4.396  16.348  0.00  0.00    +0.000 A 
ATOM     10  C   UNL     1       5.245   4.427  15.002  0.00  0.00    +0.000 A 
ATOM     11  C   UNL     1       6.584   4.632  14.647  0.00  0.00    +0.000 A 
ATOM     12  C   UNL     1       7.573   4.804  15.632  0.00  0.00    +0.000 A 
ATOM     13  C   UNL     1       7.238   4.770  16.987  0.00  0.00    +0.000 A 
ATOM     14  C   UNL     1       5.911   4.565  17.311  0.00  0.00    +0.000 A 
ATOM     15  C   UNL     1       5.279   4.507  18.634  0.00  0.00    +0.000 C 
ATOM     16  O   UNL     1       5.891   4.667  19.672  0.00  0.00    +0.000 OA
ENDBRANCH   1   7
BRANCH   1  17
ATOM     17  C   UNL     1       3.012   5.670  20.302  0.00  0.00    +0.000 C 
BRANCH  17  24
ATOM     18  C   UNL     1      -1.474  11.760  20.061  0.00  0.00    +0.000 C 
ATOM     19  C   UNL     1      -0.393  10.753  19.915  0.00  0.00    +0.000 A 
ATOM     20  C   UNL     1       0.489  10.588  18.869  0.00  0.00    +0.000 A 
ATOM     21  N   UNL     1       1.339   9.517  18.969  0.00  0.00    +0.000 NA
ATOM     22  C   UNL     1       1.135   8.893  20.105  0.00  0.00    +0.000 A 
ATOM     23  N   UNL     1       1.745   7.754  20.560  0.00  0.00    +0.000 N 
ATOM     24  C   UNL     1       2.435   6.932  19.688  0.00  0.00    +0.000 C 
ATOM     25  O   UNL     1       2.590   7.136  18.485  0.00  0.00    +0.000 OA
ATOM     26  S   UNL     1      -0.063   9.565  21.119  0.00  0.00    +0.000 S 
ATOM     27  H   UNL     1       1.579   7.508  21.520  0.00  0.00    +0.000 HD
ENDBRANCH  17  24
ENDBRANCH   1  17
TORSDOF 3
ENDMDL
MODEL 2
REMARK VINA RESULT:      -7.5      2.749      6.769
REMARK  Name = 
REMARK  4 active torsions:
REMARK  status: ('A' for Active; 'I' for Inactive)
REMARK    1  A    between atoms: C_1  and  C_2
REMARK    2  A    between atoms: C_7  and  C_9
REMARK    3  A    between atoms: C_9  and  C_10
REMARK    4  A    between atoms: C_10  and  N_11
REMARK                            x       y       z     vdW  Elec       q    Type
REMARK                         _______ _______ _______ _____ _____    ______ ____
ROOT
ATOM      1  C   UNL     1       4.085   4.258  18.985  0.00  0.00    +0.000 C 
ATOM      2  C   UNL     1       3.696   3.236  20.085  0.00  0.00    +0.000 C 
ATOM      3  C   UNL     1       2.363   2.558  19.791  0.00  0.00    +0.000 C 
ATOM      4  O   UNL     1       2.435   1.862  18.553  0.00  0.00    +0.000 OA
ATOM      5  C   UNL     1       2.637   2.759  17.463  0.00  0.00    +0.000 C 
ATOM      6  C   UNL     1       3.957   3.497  17.624  0.00  0.00    +0.000 C 
ENDROOT
BRANCH   1   7
ATOM      7  N   UNL     1       3.203   5.468  19.046  0.00  0.00    +0.000 N 
ATOM      8  C   UNL     1       2.548   5.913  20.283  0.00  0.00    +0.000 C 
ATOM      9  C   UNL     1       2.020   7.262  19.944  0.00  0.00    +0.000 A 
ATOM     10  C   UNL     1       1.280   8.143  20.714  0.00  0.00    +0.000 A 
ATOM     11  C   UNL     1       0.943   9.382  20.158  0.00  0.00    +0.000 A 
ATOM     12  C   UNL     1       1.347   9.722  18.854  0.00  0.00    +0.000 A 
ATOM     13  C   UNL     1       2.093   8.825  18.086  0.00  0.00    +0.000 A 
ATOM     14  C   UNL     1       2.412   7.609  18.658  0.00  0.00    +0.000 A 
ATOM     15  C   UNL     1       3.193   6.499  18.100  0.00  0.00    +0.000 C 
ATOM     16  O   UNL     1       3.705   6.534  16.998  0.00  0.00    +0.000 OA
ENDBRANCH   1   7
BRANCH   1  17
ATOM     17  C   UNL     1       5.585   4.661  19.097  0.00  0.00    +0.000 C 
BRANCH  17  24
ATOM     18  C   UNL     1       7.030   3.888  11.709  0.00  0.00    +0.000 C 
ATOM     19  C   UNL     1       6.896   4.337  13.118  0.00  0.00    +0.000 A 
ATOM     20  C   UNL     1       7.715   5.191  13.825  0.00  0.00    +0.000 A 
ATOM     21  N   UNL     1       7.391   5.369  15.146  0.00  0.00    +0.000 NA
ATOM     22  C   UNL     1       6.307   4.688  15.434  0.00  0.00    +0.000 A 
ATOM     23  N   UNL     1       5.688   4.564  16.649  0.00  0.00    +0.000 N 
ATOM     24  C   UNL     1       6.356   4.900  17.812  0.00  0.00    +0.000 C 
ATOM     25  O   UNL     1       7.501   5.344  17.876  0.00  0.00    +0.000 OA
ATOM     26  S   UNL     1       5.608   3.821  14.139  0.00  0.00    +0.000 S 
ATOM     27  H   UNL     1       4.781   4.133  16.649  0.00  0.00    +0.000 HD
ENDBRANCH  17  24
ENDBRANCH   1  17
TORSDOF 3
ENDMDL
MODEL 3
REMARK VINA RESULT:      -7.5      4.471      6.690
REMARK  Name = 
REMARK  4 active torsions:
REMARK  status: ('A' for Active; 'I' for Inactive)
REMARK    1  A    between atoms: C_1  and  C_2
REMARK    2  A    between atoms: C_7  and  C_9
REMARK    3  A    between atoms: C_9  and  C_10
REMARK    4  A    between atoms: C_10  and  N_11
REMARK                            x       y       z     vdW  Elec       q    Type
REMARK                         _______ _______ _______ _____ _____    ______ ____
ROOT
ATOM      1  C   UNL     1       6.439   5.613  17.476  0.00  0.00    +0.000 C 
ATOM      2  C   UNL     1       7.192   4.517  16.678  0.00  0.00    +0.000 C 
ATOM      3  C   UNL     1       6.392   4.037  15.473  0.00  0.00    +0.000 C 
ATOM      4  O   UNL     1       6.140   5.123  14.592  0.00  0.00    +0.000 OA
ATOM      5  C   UNL     1       5.315   6.111  15.207  0.00  0.00    +0.000 C 
ATOM      6  C   UNL     1       6.010   6.693  16.428  0.00  0.00    +0.000 C 
ENDROOT
BRANCH   1   7
ATOM      7  N   UNL     1       5.267   5.031  18.206  0.00  0.00    +0.000 N 
ATOM      8  C   UNL     1       5.320   3.729  18.885  0.00  0.00    +0.000 C 
ATOM      9  C   UNL     1       4.064   3.688  19.681  0.00  0.00    +0.000 A 
ATOM     10  C   UNL     1       3.560   2.685  20.491  0.00  0.00    +0.000 A 
ATOM     11  C   UNL     1       2.359   2.924  21.168  0.00  0.00    +0.000 A 
ATOM     12  C   UNL     1       1.684   4.151  21.029  0.00  0.00    +0.000 A 
ATOM     13  C   UNL     1       2.200   5.155  20.207  0.00  0.00    +0.000 A 
ATOM     14  C   UNL     1       3.387   4.894  19.550  0.00  0.00    +0.000 A 
ATOM     15  C   UNL     1       4.161   5.761  18.654  0.00  0.00    +0.000 C 
ATOM     16  O   UNL     1       3.833   6.901  18.386  0.00  0.00    +0.000 OA
ENDBRANCH   1   7
BRANCH   1  17
ATOM     17  C   UNL     1       7.396   6.347  18.463  0.00  0.00    +0.000 C 
BRANCH  17  24
ATOM     18  C   UNL     1      10.084  13.290  19.826  0.00  0.00    +0.000 C 
ATOM     19  C   UNL     1       9.715  11.965  19.264  0.00  0.00    +0.000 A 
ATOM     20  C   UNL     1       9.545  11.612  17.943  0.00  0.00    +0.000 A 
ATOM     21  N   UNL     1       9.124  10.326  17.719  0.00  0.00    +0.000 NA
ATOM     22  C   UNL     1       9.013   9.690  18.860  0.00  0.00    +0.000 A 
ATOM     23  N   UNL     1       8.578   8.408  19.071  0.00  0.00    +0.000 N 
ATOM     24  C   UNL     1       7.877   7.736  18.086  0.00  0.00    +0.000 C 
ATOM     25  O   UNL     1       7.606   8.180  16.972  0.00  0.00    +0.000 OA
ATOM     26  S   UNL     1       9.427  10.585  20.254  0.00  0.00    +0.000 S 
ATOM     27  H   UNL     1       8.709   8.035  19.994  0.00  0.00    +0.000 HD
ENDBRANCH  17  24
ENDBRANCH   1  17
TORSDOF 3
ENDMDL
MODEL 4
REMARK VINA RESULT:      -7.5      2.380      6.737
REMARK  Name = 
REMARK  4 active torsions:
REMARK  status: ('A' for Active; 'I' for Inactive)
REMARK    1  A    between atoms: C_1  and  C_2
REMARK    2  A    between atoms: C_7  and  C_9
REMARK    3  A    between atoms: C_9  and  C_10
REMARK    4  A    between atoms: C_10  and  N_11
REMARK                            x       y       z     vdW  Elec       q    Type
REMARK                         _______ _______ _______ _____ _____    ______ ____
ROOT
ATOM      1  C   UNL     1       3.188   5.079  19.478  0.00  0.00    +0.000 C 
ATOM      2  C   UNL     1       2.605   4.187  20.604  0.00  0.00    +0.000 C 
ATOM      3  C   UNL     1       1.232   3.633  20.241  0.00  0.00    +0.000 C 
ATOM      4  O   UNL     1       1.321   2.846  19.061  0.00  0.00    +0.000 OA
ATOM      5  C   UNL     1       1.705   3.634  17.937  0.00  0.00    +0.000 C 
ATOM      6  C   UNL     1       3.082   4.238  18.162  0.00  0.00    +0.000 C 
ENDROOT
BRANCH   1   7
ATOM      7  N   UNL     1       2.445   6.376  19.386  0.00  0.00    +0.000 N 
ATOM      8  C   UNL     1       1.789   7.000  20.543  0.00  0.00    +0.000 C 
ATOM      9  C   UNL     1       1.429   8.361  20.061  0.00  0.00    +0.000 A 
ATOM     10  C   UNL     1       0.758   9.383  20.710  0.00  0.00    +0.000 A 
ATOM     11  C   UNL     1       0.586  10.595  20.032  0.00  0.00    +0.000 A 
ATOM     12  C   UNL     1       1.082  10.768  18.727  0.00  0.00    +0.000 A 
ATOM     13  C   UNL     1       1.757   9.730  18.081  0.00  0.00    +0.000 A 
ATOM     14  C   UNL     1       1.914   8.544  18.772  0.00  0.00    +0.000 A 
ATOM     15  C   UNL     1       2.591   7.311  18.355  0.00  0.00    +0.000 C 
ATOM     16  O   UNL     1       3.152   7.190  17.283  0.00  0.00    +0.000 OA
ENDBRANCH   1   7
BRANCH   1  17
ATOM     17  C   UNL     1       4.711   5.328  19.691  0.00  0.00    +0.000 C 
BRANCH  17  24
ATOM     18  C   UNL     1       6.465   3.801  12.488  0.00  0.00    +0.000 C 
ATOM     19  C   UNL     1       6.425   4.244  13.905  0.00  0.00    +0.000 A 
ATOM     20  C   UNL     1       7.477   4.420  14.778  0.00  0.00    +0.000 A 
ATOM     21  N   UNL     1       7.136   4.765  16.061  0.00  0.00    +0.000 NA
ATOM     22  C   UNL     1       5.834   4.892  16.156  0.00  0.00    +0.000 A 
ATOM     23  N   UNL     1       5.096   5.179  17.273  0.00  0.00    +0.000 N 
ATOM     24  C   UNL     1       5.648   5.040  18.533  0.00  0.00    +0.000 C 
ATOM     25  O   UNL     1       6.803   4.690  18.772  0.00  0.00    +0.000 OA
ATOM     26  S   UNL     1       4.954   4.629  14.716  0.00  0.00    +0.000 S 
ATOM     27  H   UNL     1       4.125   5.393  17.127  0.00  0.00    +0.000 HD
ENDBRANCH  17  24
ENDBRANCH   1  17
TORSDOF 3
ENDMDL
MODEL 5
REMARK VINA RESULT:      -7.4      1.815      2.001
REMARK  Name = 
REMARK  4 active torsions:
REMARK  status: ('A' for Active; 'I' for Inactive)
REMARK    1  A    between atoms: C_1  and  C_2
REMARK    2  A    between atoms: C_7  and  C_9
REMARK    3  A    between atoms: C_9  and  C_10
REMARK    4  A    between atoms: C_10  and  N_11
REMARK                            x       y       z     vdW  Elec       q    Type
REMARK                         _______ _______ _______ _____ _____    ______ ____
ROOT
ATOM      1  C   UNL     1       2.813   4.381  19.127  0.00  0.00    +0.000 C 
ATOM      2  C   UNL     1       1.808   4.367  17.946  0.00  0.00    +0.000 C 
ATOM      3  C   UNL     1       2.179   3.329  16.893  0.00  0.00    +0.000 C 
ATOM      4  O   UNL     1       2.190   2.031  17.472  0.00  0.00    +0.000 OA
ATOM      5  C   UNL     1       3.203   1.916  18.470  0.00  0.00    +0.000 C 
ATOM      6  C   UNL     1       2.941   2.896  19.603  0.00  0.00    +0.000 C 
ENDROOT
BRANCH   1   7
ATOM      7  N   UNL     1       4.129   4.958  18.702  0.00  0.00    +0.000 N 
ATOM      8  C   UNL     1       4.239   6.059  17.736  0.00  0.00    +0.000 C 
ATOM      9  C   UNL     1       5.665   6.474  17.826  0.00  0.00    +0.000 A 
ATOM     10  C   UNL     1       6.352   7.445  17.117  0.00  0.00    +0.000 A 
ATOM     11  C   UNL     1       7.698   7.663  17.433  0.00  0.00    +0.000 A 
ATOM     12  C   UNL     1       8.333   6.918  18.442  0.00  0.00    +0.000 A 
ATOM     13  C   UNL     1       7.630   5.940  19.150  0.00  0.00    +0.000 A 
ATOM     14  C   UNL     1       6.303   5.743  18.820  0.00  0.00    +0.000 A 
ATOM     15  C   UNL     1       5.330   4.813  19.405  0.00  0.00    +0.000 C 
ATOM     16  O   UNL     1       5.594   4.071  20.330  0.00  0.00    +0.000 OA
ENDBRANCH   1   7
BRANCH   1  17
ATOM     17  C   UNL     1       2.236   5.160  20.347  0.00  0.00    +0.000 C 
BRANCH  17  24
ATOM     18  C   UNL     1      -0.760  11.815  22.351  0.00  0.00    +0.000 C 
ATOM     19  C   UNL     1       0.026  10.700  21.765  0.00  0.00    +0.000 A 
ATOM     20  C   UNL     1       0.642  10.641  20.534  0.00  0.00    +0.000 A 
ATOM     21  N   UNL     1       1.239   9.445  20.222  0.00  0.00    +0.000 NA
ATOM     22  C   UNL     1       1.114   8.612  21.227  0.00  0.00    +0.000 A 
ATOM     23  N   UNL     1       1.530   7.309  21.296  0.00  0.00    +0.000 N 
ATOM     24  C   UNL     1       1.849   6.613  20.144  0.00  0.00    +0.000 C 
ATOM     25  O   UNL     1       1.822   7.071  19.003  0.00  0.00    +0.000 OA
ATOM     26  S   UNL     1       0.301   9.219  22.601  0.00  0.00    +0.000 S 
ATOM     27  H   UNL     1       1.492   6.872  22.200  0.00  0.00    +0.000 HD
ENDBRANCH  17  24
ENDBRANCH   1  17
TORSDOF 3
ENDMDL
MODEL 6
REMARK VINA RESULT:      -7.3      4.549      6.641
REMARK  Name = 
REMARK  4 active torsions:
REMARK  status: ('A' for Active; 'I' for Inactive)
REMARK    1  A    between atoms: C_1  and  C_2
REMARK    2  A    between atoms: C_7  and  C_9
REMARK    3  A    between atoms: C_9  and  C_10
REMARK    4  A    between atoms: C_10  and  N_11
REMARK                            x       y       z     vdW  Elec       q    Type
REMARK                         _______ _______ _______ _____ _____    ______ ____
ROOT
ATOM      1  C   UNL     1       6.345   5.838  17.727  0.00  0.00    +0.000 C 
ATOM      2  C   UNL     1       6.814   4.627  16.880  0.00  0.00    +0.000 C 
ATOM      3  C   UNL     1       5.795   4.249  15.810  0.00  0.00    +0.000 C 
ATOM      4  O   UNL     1       5.585   5.345  14.929  0.00  0.00    +0.000 OA
ATOM      5  C   UNL     1       5.005   6.456  15.610  0.00  0.00    +0.000 C 
ATOM      6  C   UNL     1       5.937   6.950  16.704  0.00  0.00    +0.000 C 
ENDROOT
BRANCH   1   7
ATOM      7  N   UNL     1       5.212   5.452  18.629  0.00  0.00    +0.000 N 
ATOM      8  C   UNL     1       3.949   6.201  18.684  0.00  0.00    +0.000 C 
ATOM      9  C   UNL     1       3.048   5.326  19.480  0.00  0.00    +0.000 A 
ATOM     10  C   UNL     1       1.740   5.535  19.885  0.00  0.00    +0.000 A 
ATOM     11  C   UNL     1       1.100   4.516  20.600  0.00  0.00    +0.000 A 
ATOM     12  C   UNL     1       1.768   3.314  20.897  0.00  0.00    +0.000 A 
ATOM     13  C   UNL     1       3.087   3.114  20.485  0.00  0.00    +0.000 A 
ATOM     14  C   UNL     1       3.696   4.135  19.781  0.00  0.00    +0.000 A 
ATOM     15  C   UNL     1       5.048   4.191  19.212  0.00  0.00    +0.000 C 
ATOM     16  O   UNL     1       5.837   3.268  19.281  0.00  0.00    +0.000 OA
ENDBRANCH   1   7
BRANCH   1  17
ATOM     17  C   UNL     1       7.524   6.440  18.548  0.00  0.00    +0.000 C 
BRANCH  17  24
ATOM     18  C   UNL     1      10.106  13.431  19.865  0.00  0.00    +0.000 C 
ATOM     19  C   UNL     1       9.779  12.087  19.324  0.00  0.00    +0.000 A 
ATOM     20  C   UNL     1       9.709  11.688  18.007  0.00  0.00    +0.000 A 
ATOM     21  N   UNL     1       9.305  10.393  17.797  0.00  0.00    +0.000 NA
ATOM     22  C   UNL     1       9.108   9.797  18.949  0.00  0.00    +0.000 A 
ATOM     23  N   UNL     1       8.658   8.523  19.171  0.00  0.00    +0.000 N 
ATOM     24  C   UNL     1       8.032   7.816  18.161  0.00  0.00    +0.000 C 
ATOM     25  O   UNL     1       7.846   8.220  17.015  0.00  0.00    +0.000 OA
ATOM     26  S   UNL     1       9.418  10.742  20.338  0.00  0.00    +0.000 S 
ATOM     27  H   UNL     1       8.720   8.182  20.114  0.00  0.00    +0.000 HD
ENDBRANCH  17  24
ENDBRANCH   1  17
TORSDOF 3
ENDMDL
MODEL 7
REMARK VINA RESULT:      -7.3      1.181      1.222
REMARK  Name = 
REMARK  4 active torsions:
REMARK  status: ('A' for Active; 'I' for Inactive)
REMARK    1  A    between atoms: C_1  and  C_2
REMARK    2  A    between atoms: C_7  and  C_9
REMARK    3  A    between atoms: C_9  and  C_10
REMARK    4  A    between atoms: C_10  and  N_11
REMARK                            x       y       z     vdW  Elec       q    Type
REMARK                         _______ _______ _______ _____ _____    ______ ____
ROOT
ATOM      1  C   UNL     1       2.831   4.887  19.527  0.00  0.00    +0.000 C 
ATOM      2  C   UNL     1       1.404   4.836  18.923  0.00  0.00    +0.000 C 
ATOM      3  C   UNL     1       0.984   3.414  18.568  0.00  0.00    +0.000 C 
ATOM      4  O   UNL     1       0.994   2.599  19.732  0.00  0.00    +0.000 OA
ATOM      5  C   UNL     1       2.311   2.468  20.264  0.00  0.00    +0.000 C 
ATOM      6  C   UNL     1       2.850   3.828  20.680  0.00  0.00    +0.000 C 
ENDROOT
BRANCH   1   7
ATOM      7  N   UNL     1       3.865   4.606  18.480  0.00  0.00    +0.000 N 
ATOM      8  C   UNL     1       3.556   4.588  17.043  0.00  0.00    +0.000 C 
ATOM      9  C   UNL     1       4.892   4.545  16.390  0.00  0.00    +0.000 A 
ATOM     10  C   UNL     1       5.220   4.478  15.047  0.00  0.00    +0.000 A 
ATOM     11  C   UNL     1       6.575   4.492  14.697  0.00  0.00    +0.000 A 
ATOM     12  C   UNL     1       7.574   4.575  15.684  0.00  0.00    +0.000 A 
ATOM     13  C   UNL     1       7.232   4.641  17.036  0.00  0.00    +0.000 A 
ATOM     14  C   UNL     1       5.888   4.624  17.355  0.00  0.00    +0.000 A 
ATOM     15  C   UNL     1       5.247   4.704  18.673  0.00  0.00    +0.000 C 
ATOM     16  O   UNL     1       5.871   4.825  19.709  0.00  0.00    +0.000 OA
ENDBRANCH   1   7
BRANCH   1  17
ATOM     17  C   UNL     1       3.101   6.257  20.217  0.00  0.00    +0.000 C 
BRANCH  17  24
ATOM     18  C   UNL     1      -0.310  12.790  18.495  0.00  0.00    +0.000 C 
ATOM     19  C   UNL     1       0.044  11.393  18.854  0.00  0.00    +0.000 A 
ATOM     20  C   UNL     1      -0.681  10.491  19.601  0.00  0.00    +0.000 A 
ATOM     21  N   UNL     1      -0.069   9.286  19.841  0.00  0.00    +0.000 NA
ATOM     22  C   UNL     1       1.099   9.256  19.245  0.00  0.00    +0.000 A 
ATOM     23  N   UNL     1       2.034   8.256  19.279  0.00  0.00    +0.000 N 
ATOM     24  C   UNL     1       1.974   7.272  20.248  0.00  0.00    +0.000 C 
ATOM     25  O   UNL     1       1.110   7.179  21.118  0.00  0.00    +0.000 OA
ATOM     26  S   UNL     1       1.515  10.650  18.351  0.00  0.00    +0.000 S 
ATOM     27  H   UNL     1       2.802   8.337  18.635  0.00  0.00    +0.000 HD
ENDBRANCH  17  24
ENDBRANCH   1  17
TORSDOF 3
ENDMDL
MODEL 8
REMARK VINA RESULT:      -7.3      1.835      2.534
REMARK  Name = 
REMARK  4 active torsions:
REMARK  status: ('A' for Active; 'I' for Inactive)
REMARK    1  A    between atoms: C_1  and  C_2
REMARK    2  A    between atoms: C_7  and  C_9
REMARK    3  A    between atoms: C_9  and  C_10
REMARK    4  A    between atoms: C_10  and  N_11
REMARK                            x       y       z     vdW  Elec       q    Type
REMARK                         _______ _______ _______ _____ _____    ______ ____
ROOT
ATOM      1  C   UNL     1       4.201   5.392  17.523  0.00  0.00    +0.000 C 
ATOM      2  C   UNL     1       2.965   4.471  17.683  0.00  0.00    +0.000 C 
ATOM      3  C   UNL     1       3.348   3.077  18.168  0.00  0.00    +0.000 C 
ATOM      4  O   UNL     1       3.995   3.163  19.430  0.00  0.00    +0.000 OA
ATOM      5  C   UNL     1       5.231   3.869  19.335  0.00  0.00    +0.000 C 
ATOM      6  C   UNL     1       4.988   5.297  18.873  0.00  0.00    +0.000 C 
ENDROOT
BRANCH   1   7
ATOM      7  N   UNL     1       5.033   4.971  16.350  0.00  0.00    +0.000 N 
ATOM      8  C   UNL     1       4.526   4.083  15.294  0.00  0.00    +0.000 C 
ATOM      9  C   UNL     1       5.563   4.161  14.231  0.00  0.00    +0.000 A 
ATOM     10  C   UNL     1       5.637   3.504  13.015  0.00  0.00    +0.000 A 
ATOM     11  C   UNL     1       6.717   3.794  12.172  0.00  0.00    +0.000 A 
ATOM     12  C   UNL     1       7.697   4.729  12.552  0.00  0.00    +0.000 A 
ATOM     13  C   UNL     1       7.613   5.385  13.782  0.00  0.00    +0.000 A 
ATOM     14  C   UNL     1       6.539   5.080  14.595  0.00  0.00    +0.000 A 
ATOM     15  C   UNL     1       6.189   5.625  15.912  0.00  0.00    +0.000 C 
ATOM     16  O   UNL     1       6.841   6.487  16.469  0.00  0.00    +0.000 OA
ENDBRANCH   1   7
BRANCH   1  17
ATOM     17  C   UNL     1       3.777   6.885  17.392  0.00  0.00    +0.000 C 
BRANCH  17  24
ATOM     18  C   UNL     1      -0.317  12.302  20.734  0.00  0.00    +0.000 C 
ATOM     19  C   UNL     1       0.262  11.034  20.222  0.00  0.00    +0.000 A 
ATOM     20  C   UNL     1       0.221   9.781  20.794  0.00  0.00    +0.000 A 
ATOM     21  N   UNL     1       0.914   8.800  20.132  0.00  0.00    +0.000 NA
ATOM     22  C   UNL     1       1.446   9.293  19.039  0.00  0.00    +0.000 A 
ATOM     23  N   UNL     1       2.247   8.654  18.131  0.00  0.00    +0.000 N 
ATOM     24  C   UNL     1       2.867   7.462  18.460  0.00  0.00    +0.000 C 
ATOM     25  O   UNL     1       2.750   6.868  19.530  0.00  0.00    +0.000 OA
ATOM     26  S   UNL     1       1.127  10.943  18.735  0.00  0.00    +0.000 S 
ATOM     27  H   UNL     1       2.432   9.142  17.272  0.00  0.00    +0.000 HD
ENDBRANCH  17  24
ENDBRANCH   1  17
TORSDOF 3
ENDMDL
MODEL 9
REMARK VINA RESULT:      -7.2      1.516      1.758
REMARK  Name = 
REMARK  4 active torsions:
REMARK  status: ('A' for Active; 'I' for Inactive)
REMARK    1  A    between atoms: C_1  and  C_2
REMARK    2  A    between atoms: C_7  and  C_9
REMARK    3  A    between atoms: C_9  and  C_10
REMARK    4  A    between atoms: C_10  and  N_11
REMARK                            x       y       z     vdW  Elec       q    Type
REMARK                         _______ _______ _______ _____ _____    ______ ____
ROOT
ATOM      1  C   UNL     1       2.566   5.329  19.358  0.00  0.00    +0.000 C 
ATOM      2  C   UNL     1       1.212   4.721  18.910  0.00  0.00    +0.000 C 
ATOM      3  C   UNL     1       1.143   3.221  19.176  0.00  0.00    +0.000 C 
ATOM      4  O   UNL     1       1.298   2.966  20.565  0.00  0.00    +0.000 OA
ATOM      5  C   UNL     1       2.590   3.359  21.025  0.00  0.00    +0.000 C 
ATOM      6  C   UNL     1       2.786   4.854  20.833  0.00  0.00    +0.000 C 
ENDROOT
BRANCH   1   7
ATOM      7  N   UNL     1       3.674   4.892  18.449  0.00  0.00    +0.000 N 
ATOM      8  C   UNL     1       3.458   4.570  17.031  0.00  0.00    +0.000 C 
ATOM      9  C   UNL     1       4.834   4.460  16.475  0.00  0.00    +0.000 A 
ATOM     10  C   UNL     1       5.249   4.139  15.194  0.00  0.00    +0.000 A 
ATOM     11  C   UNL     1       6.622   4.148  14.924  0.00  0.00    +0.000 A 
ATOM     12  C   UNL     1       7.553   4.476  15.926  0.00  0.00    +0.000 A 
ATOM     13  C   UNL     1       7.123   4.798  17.215  0.00  0.00    +0.000 A 
ATOM     14  C   UNL     1       5.763   4.781  17.457  0.00  0.00    +0.000 A 
ATOM     15  C   UNL     1       5.037   5.094  18.693  0.00  0.00    +0.000 C 
ATOM     16  O   UNL     1       5.588   5.452  19.715  0.00  0.00    +0.000 OA
ENDBRANCH   1   7
BRANCH   1  17
ATOM     17  C   UNL     1       2.489   6.883  19.428  0.00  0.00    +0.000 C 
BRANCH  17  24
ATOM     18  C   UNL     1      -1.051  12.572  22.947  0.00  0.00    +0.000 C 
ATOM     19  C   UNL     1      -0.620  11.277  22.363  0.00  0.00    +0.000 A 
ATOM     20  C   UNL     1      -0.891  10.003  22.812  0.00  0.00    +0.000 A 
ATOM     21  N   UNL     1      -0.293   8.984  22.115  0.00  0.00    +0.000 NA
ATOM     22  C   UNL     1       0.397   9.477  21.114  0.00  0.00    +0.000 A 
ATOM     23  N   UNL     1       1.174   8.799  20.213  0.00  0.00    +0.000 N 
ATOM     24  C   UNL     1       1.582   7.504  20.475  0.00  0.00    +0.000 C 
ATOM     25  O   UNL     1       1.289   6.850  21.474  0.00  0.00    +0.000 OA
ATOM     26  S   UNL     1       0.349  11.175  20.942  0.00  0.00    +0.000 S 
ATOM     27  H   UNL     1       1.501   9.321  19.419  0.00  0.00    +0.000 HD
ENDBRANCH  17  24
ENDBRANCH   1  17
TORSDOF 3
ENDMDL
