MODEL 1
REMARK VINA RESULT:      -9.0      0.000      0.000
REMARK  Name = 
REMARK  3 active torsions:
REMARK  status: ('A' for Active; 'I' for Inactive)
REMARK    1  A    between atoms: C_2  and  C_3
REMARK    2  A    between atoms: C_6  and  C_7
REMARK    3  A    between atoms: C_10  and  C_11
REMARK                            x       y       z     vdW  Elec       q    Type
REMARK                         _______ _______ _______ _____ _____    ______ ____
ROOT
ATOM      1  C   UNL     1       0.776  11.876  20.124  0.00  0.00    +0.000 A 
ATOM      2  C   UNL     1       1.284  12.301  18.912  0.00  0.00    +0.000 A 
ATOM      3  C   UNL     1       1.830  11.171  18.262  0.00  0.00    +0.000 A 
ATOM      4  C   UNL     1       1.601  10.094  19.094  0.00  0.00    +0.000 A 
ATOM      5  O   UNL     1       0.973  10.534  20.229  0.00  0.00    +0.000 OA
ENDROOT
BRANCH   1   7
ATOM      6  O   UNL     1       0.800  13.308  21.979  0.00  0.00    +0.000 OA
ATOM      7  C   UNL     1       0.120  12.663  21.173  0.00  0.00    +0.000 C 
ATOM      8  N   UNL     1      -1.284  12.666  21.324  0.00  0.00    +0.000 N 
ATOM      9  C   UNL     1      -1.867  13.370  22.501  0.00  0.00    +0.000 C 
ATOM     10  C   UNL     1      -3.296  12.907  22.968  0.00  0.00    +0.000 C 
ATOM     11  C   UNL     1      -4.156  12.701  21.771  0.00  0.00    +0.000 A 
ATOM     12  C   UNL     1      -3.546  12.696  20.540  0.00  0.00    +0.000 A 
ATOM     13  N   UNL     1      -4.258  13.637  19.839  0.00  0.00    +0.000 N 
ATOM     14  C   UNL     1      -5.510  13.760  20.412  0.00  0.00    +0.000 A 
ATOM     15  C   UNL     1      -6.606  14.558  20.078  0.00  0.00    +0.000 A 
ATOM     16  C   UNL     1      -7.817  14.271  20.718  0.00  0.00    +0.000 A 
ATOM     17  C   UNL     1      -7.911  13.249  21.662  0.00  0.00    +0.000 A 
ATOM     18  C   UNL     1      -6.759  12.599  22.122  0.00  0.00    +0.000 A 
ATOM     19  C   UNL     1      -5.528  12.897  21.512  0.00  0.00    +0.000 A 
ATOM     20  C   UNL     1      -2.181  12.199  20.271  0.00  0.00    +0.000 C 
ATOM     21  H   UNL     1      -3.918  14.174  19.054  0.00  0.00    +0.000 HD
ENDBRANCH   1   7
BRANCH   4  22
ATOM     22  C   UNL     1       1.883   8.658  19.024  0.00  0.00    +0.000 A 
ATOM     23  C   UNL     1       1.798   7.839  20.157  0.00  0.00    +0.000 A 
ATOM     24  C   UNL     1       2.077   6.464  20.078  0.00  0.00    +0.000 A 
ATOM     25  C   UNL     1       2.449   5.852  18.867  0.00  0.00    +0.000 A 
ATOM     26  C   UNL     1       2.510   6.684  17.737  0.00  0.00    +0.000 A 
ATOM     27  C   UNL     1       2.242   8.056  17.814  0.00  0.00    +0.000 A 
BRANCH  25  28
ATOM     28  C   UNL     1       2.774   4.404  18.780  0.00  0.00    +0.000 A 
ATOM     29  C   UNL     1       3.712   3.799  19.637  0.00  0.00    +0.000 A 
ATOM     30  C   UNL     1       4.034   2.437  19.537  0.00  0.00    +0.000 A 
ATOM     31  C   UNL     1       3.417   1.640  18.579  0.00  0.00    +0.000 A 
ATOM     32  C   UNL     1       2.480   2.207  17.725  0.00  0.00    +0.000 A 
ATOM     33  C   UNL     1       2.165   3.569  17.824  0.00  0.00    +0.000 A 
ENDBRANCH  25  28
ENDBRANCH   4  22
TORSDOF 3
ENDMDL
MODEL 2
REMARK VINA RESULT:      -8.9      3.302      5.102
REMARK  Name = 
REMARK  3 active torsions:
REMARK  status: ('A' for Active; 'I' for Inactive)
REMARK    1  A    between atoms: C_2  and  C_3
REMARK    2  A    between atoms: C_6  and  C_7
REMARK    3  A    between atoms: C_10  and  C_11
REMARK                            x       y       z     vdW  Elec       q    Type
REMARK                         _______ _______ _______ _____ _____    ______ ____
ROOT
ATOM      1  C   UNL     1      -0.468  11.545  22.317  0.00  0.00    +0.000 A 
ATOM      2  C   UNL     1      -1.204  10.539  22.911  0.00  0.00    +0.000 A 
ATOM      3  C   UNL     1      -0.804   9.318  22.322  0.00  0.00    +0.000 A 
ATOM      4  C   UNL     1       0.187   9.629  21.414  0.00  0.00    +0.000 A 
ATOM      5  O   UNL     1       0.376  10.986  21.407  0.00  0.00    +0.000 OA
ENDROOT
BRANCH   1   7
ATOM      6  O   UNL     1      -0.613  13.417  23.720  0.00  0.00    +0.000 OA
ATOM      7  C   UNL     1      -0.518  12.989  22.564  0.00  0.00    +0.000 C 
ATOM      8  N   UNL     1      -0.512  13.921  21.502  0.00  0.00    +0.000 N 
ATOM      9  C   UNL     1      -0.712  15.362  21.824  0.00  0.00    +0.000 C 
ATOM     10  C   UNL     1      -1.261  16.276  20.668  0.00  0.00    +0.000 C 
ATOM     11  C   UNL     1      -0.566  15.926  19.399  0.00  0.00    +0.000 A 
ATOM     12  C   UNL     1       0.193  14.781  19.382  0.00  0.00    +0.000 A 
ATOM     13  N   UNL     1       1.412  15.226  18.936  0.00  0.00    +0.000 N 
ATOM     14  C   UNL     1       1.221  16.394  18.221  0.00  0.00    +0.000 A 
ATOM     15  C   UNL     1       2.120  17.229  17.554  0.00  0.00    +0.000 A 
ATOM     16  C   UNL     1       1.574  18.211  16.721  0.00  0.00    +0.000 A 
ATOM     17  C   UNL     1       0.194  18.357  16.584  0.00  0.00    +0.000 A 
ATOM     18  C   UNL     1      -0.681  17.643  17.412  0.00  0.00    +0.000 A 
ATOM     19  C   UNL     1      -0.148  16.674  18.279  0.00  0.00    +0.000 A 
ATOM     20  C   UNL     1      -0.104  13.554  20.149  0.00  0.00    +0.000 C 
ATOM     21  H   UNL     1       2.306  14.794  19.122  0.00  0.00    +0.000 HD
ENDBRANCH   1   7
BRANCH   4  22
ATOM     22  C   UNL     1       1.028   8.853  20.498  0.00  0.00    +0.000 A 
ATOM     23  C   UNL     1       1.357   9.332  19.224  0.00  0.00    +0.000 A 
ATOM     24  C   UNL     1       2.160   8.575  18.352  0.00  0.00    +0.000 A 
ATOM     25  C   UNL     1       2.667   7.314  18.719  0.00  0.00    +0.000 A 
ATOM     26  C   UNL     1       2.343   6.859  20.007  0.00  0.00    +0.000 A 
ATOM     27  C   UNL     1       1.536   7.606  20.874  0.00  0.00    +0.000 A 
BRANCH  25  28
ATOM     28  C   UNL     1       3.491   6.496  17.792  0.00  0.00    +0.000 A 
ATOM     29  C   UNL     1       4.402   7.079  16.892  0.00  0.00    +0.000 A 
ATOM     30  C   UNL     1       5.161   6.303  16.003  0.00  0.00    +0.000 A 
ATOM     31  C   UNL     1       5.035   4.918  15.997  0.00  0.00    +0.000 A 
ATOM     32  C   UNL     1       4.151   4.313  16.880  0.00  0.00    +0.000 A 
ATOM     33  C   UNL     1       3.389   5.091  17.763  0.00  0.00    +0.000 A 
ENDBRANCH  25  28
ENDBRANCH   4  22
TORSDOF 3
ENDMDL
MODEL 3
REMARK VINA RESULT:      -8.8      4.913     11.903
REMARK  Name = 
REMARK  3 active torsions:
REMARK  status: ('A' for Active; 'I' for Inactive)
REMARK    1  A    between atoms: C_2  and  C_3
REMARK    2  A    between atoms: C_6  and  C_7
REMARK    3  A    between atoms: C_10  and  C_11
REMARK                            x       y       z     vdW  Elec       q    Type
REMARK                         _______ _______ _______ _____ _____    ______ ____
ROOT
ATOM      1  C   UNL     1       3.619   5.178  19.736  0.00  0.00    +0.000 A 
ATOM      2  C   UNL     1       2.502   4.581  20.287  0.00  0.00    +0.000 A 
ATOM      3  C   UNL     1       1.534   5.592  20.480  0.00  0.00    +0.000 A 
ATOM      4  C   UNL     1       2.091   6.761  20.006  0.00  0.00    +0.000 A 
ATOM      5  O   UNL     1       3.363   6.504  19.568  0.00  0.00    +0.000 OA
ENDROOT
BRANCH   1   7
ATOM      6  O   UNL     1       5.559   3.949  20.203  0.00  0.00    +0.000 OA
ATOM      7  C   UNL     1       4.898   4.568  19.361  0.00  0.00    +0.000 C 
ATOM      8  N   UNL     1       5.433   4.711  18.061  0.00  0.00    +0.000 N 
ATOM      9  C   UNL     1       6.803   4.189  17.798  0.00  0.00    +0.000 C 
ATOM     10  C   UNL     1       7.587   4.829  16.593  0.00  0.00    +0.000 C 
ATOM     11  C   UNL     1       6.659   4.990  15.441  0.00  0.00    +0.000 A 
ATOM     12  C   UNL     1       5.316   4.812  15.672  0.00  0.00    +0.000 A 
ATOM     13  N   UNL     1       4.963   3.874  14.734  0.00  0.00    +0.000 N 
ATOM     14  C   UNL     1       5.872   3.927  13.693  0.00  0.00    +0.000 A 
ATOM     15  C   UNL     1       5.957   3.205  12.502  0.00  0.00    +0.000 A 
ATOM     16  C   UNL     1       6.867   3.667  11.545  0.00  0.00    +0.000 A 
ATOM     17  C   UNL     1       7.664   4.786  11.786  0.00  0.00    +0.000 A 
ATOM     18  C   UNL     1       7.702   5.370  13.059  0.00  0.00    +0.000 A 
ATOM     19  C   UNL     1       6.817   4.897  14.043  0.00  0.00    +0.000 A 
ATOM     20  C   UNL     1       4.619   5.149  16.930  0.00  0.00    +0.000 C 
ATOM     21  H   UNL     1       4.188   3.229  14.802  0.00  0.00    +0.000 HD
ENDBRANCH   1   7
BRANCH   4  22
ATOM     22  C   UNL     1       1.632   8.149  19.889  0.00  0.00    +0.000 A 
ATOM     23  C   UNL     1       1.721   8.848  18.679  0.00  0.00    +0.000 A 
ATOM     24  C   UNL     1       1.284  10.181  18.581  0.00  0.00    +0.000 A 
ATOM     25  C   UNL     1       0.738  10.865  19.683  0.00  0.00    +0.000 A 
ATOM     26  C   UNL     1       0.637  10.141  20.883  0.00  0.00    +0.000 A 
ATOM     27  C   UNL     1       1.082   8.817  20.986  0.00  0.00    +0.000 A 
BRANCH  25  28
ATOM     28  C   UNL     1       0.300  12.282  19.595  0.00  0.00    +0.000 A 
ATOM     29  C   UNL     1       1.034  13.246  18.879  0.00  0.00    +0.000 A 
ATOM     30  C   UNL     1       0.630  14.587  18.819  0.00  0.00    +0.000 A 
ATOM     31  C   UNL     1      -0.529  15.001  19.467  0.00  0.00    +0.000 A 
ATOM     32  C   UNL     1      -1.280  14.071  20.174  0.00  0.00    +0.000 A 
ATOM     33  C   UNL     1      -0.870  12.732  20.238  0.00  0.00    +0.000 A 
ENDBRANCH  25  28
ENDBRANCH   4  22
TORSDOF 3
ENDMDL
MODEL 4
REMARK VINA RESULT:      -8.7      1.160      1.572
REMARK  Name = 
REMARK  3 active torsions:
REMARK  status: ('A' for Active; 'I' for Inactive)
REMARK    1  A    between atoms: C_2  and  C_3
REMARK    2  A    between atoms: C_6  and  C_7
REMARK    3  A    between atoms: C_10  and  C_11
REMARK                            x       y       z     vdW  Elec       q    Type
REMARK                         _______ _______ _______ _____ _____    ______ ____
ROOT
ATOM      1  C   UNL     1       0.543  12.423  20.545  0.00  0.00    +0.000 A 
ATOM      2  C   UNL     1       0.822  12.815  19.250  0.00  0.00    +0.000 A 
ATOM      3  C   UNL     1       1.284  11.675  18.554  0.00  0.00    +0.000 A 
ATOM      4  C   UNL     1       1.236  10.625  19.448  0.00  0.00    +0.000 A 
ATOM      5  O   UNL     1       0.798  11.091  20.659  0.00  0.00    +0.000 OA
ENDROOT
BRANCH   1   7
ATOM      6  O   UNL     1       0.824  13.987  22.267  0.00  0.00    +0.000 OA
ATOM      7  C   UNL     1       0.053  13.232  21.665  0.00  0.00    +0.000 C 
ATOM      8  N   UNL     1      -1.282  13.135  22.117  0.00  0.00    +0.000 N 
ATOM      9  C   UNL     1      -1.667  13.877  23.350  0.00  0.00    +0.000 C 
ATOM     10  C   UNL     1      -2.916  13.338  24.141  0.00  0.00    +0.000 C 
ATOM     11  C   UNL     1      -3.985  12.975  23.173  0.00  0.00    +0.000 A 
ATOM     12  C   UNL     1      -3.651  12.925  21.841  0.00  0.00    +0.000 A 
ATOM     13  N   UNL     1      -4.580  13.752  21.259  0.00  0.00    +0.000 N 
ATOM     14  C   UNL     1      -5.689  13.818  22.082  0.00  0.00    +0.000 A 
ATOM     15  C   UNL     1      -6.900  14.499  21.949  0.00  0.00    +0.000 A 
ATOM     16  C   UNL     1      -7.916  14.166  22.851  0.00  0.00    +0.000 A 
ATOM     17  C   UNL     1      -7.713  13.213  23.849  0.00  0.00    +0.000 A 
ATOM     18  C   UNL     1      -6.434  12.693  24.084  0.00  0.00    +0.000 A 
ATOM     19  C   UNL     1      -5.394  13.041  23.206  0.00  0.00    +0.000 A 
ATOM     20  C   UNL     1      -2.333  12.520  21.311  0.00  0.00    +0.000 C 
ATOM     21  H   UNL     1      -4.465  14.254  20.390  0.00  0.00    +0.000 HD
ENDBRANCH   1   7
BRANCH   4  22
ATOM     22  C   UNL     1       1.547   9.195  19.377  0.00  0.00    +0.000 A 
ATOM     23  C   UNL     1       2.028   8.609  18.199  0.00  0.00    +0.000 A 
ATOM     24  C   UNL     1       2.318   7.234  18.142  0.00  0.00    +0.000 A 
ATOM     25  C   UNL     1       2.143   6.393  19.257  0.00  0.00    +0.000 A 
ATOM     26  C   UNL     1       1.680   7.002  20.435  0.00  0.00    +0.000 A 
ATOM     27  C   UNL     1       1.381   8.368  20.492  0.00  0.00    +0.000 A 
BRANCH  25  28
ATOM     28  C   UNL     1       2.419   4.934  19.196  0.00  0.00    +0.000 A 
ATOM     29  C   UNL     1       3.418   4.399  18.362  0.00  0.00    +0.000 A 
ATOM     30  C   UNL     1       3.659   3.019  18.290  0.00  0.00    +0.000 A 
ATOM     31  C   UNL     1       2.911   2.135  19.061  0.00  0.00    +0.000 A 
ATOM     32  C   UNL     1       1.925   2.634  19.901  0.00  0.00    +0.000 A 
ATOM     33  C   UNL     1       1.682   4.013  19.966  0.00  0.00    +0.000 A 
ENDBRANCH  25  28
ENDBRANCH   4  22
TORSDOF 3
ENDMDL
MODEL 5
REMARK VINA RESULT:      -8.7      1.825      2.490
REMARK  Name = 
REMARK  3 active torsions:
REMARK  status: ('A' for Active; 'I' for Inactive)
REMARK    1  A    between atoms: C_2  and  C_3
REMARK    2  A    between atoms: C_6  and  C_7
REMARK    3  A    between atoms: C_10  and  C_11
REMARK                            x       y       z     vdW  Elec       q    Type
REMARK                         _______ _______ _______ _____ _____    ______ ____
ROOT
ATOM      1  C   UNL     1      -0.215  11.321  21.913  0.00  0.00    +0.000 A 
ATOM      2  C   UNL     1      -0.726  10.365  22.769  0.00  0.00    +0.000 A 
ATOM      3  C   UNL     1      -0.273   9.106  22.315  0.00  0.00    +0.000 A 
ATOM      4  C   UNL     1       0.524   9.351  21.216  0.00  0.00    +0.000 A 
ATOM      5  O   UNL     1       0.543  10.698  20.970  0.00  0.00    +0.000 OA
ENDROOT
BRANCH   1   7
ATOM      6  O   UNL     1       0.577  13.524  22.014  0.00  0.00    +0.000 OA
ATOM      7  C   UNL     1      -0.403  12.775  21.941  0.00  0.00    +0.000 C 
ATOM      8  N   UNL     1      -1.692  13.353  21.940  0.00  0.00    +0.000 N 
ATOM      9  C   UNL     1      -1.806  14.828  22.118  0.00  0.00    +0.000 C 
ATOM     10  C   UNL     1      -3.174  15.372  22.673  0.00  0.00    +0.000 C 
ATOM     11  C   UNL     1      -4.291  14.653  22.002  0.00  0.00    +0.000 A 
ATOM     12  C   UNL     1      -3.979  13.541  21.257  0.00  0.00    +0.000 A 
ATOM     13  N   UNL     1      -4.550  13.816  20.039  0.00  0.00    +0.000 N 
ATOM     14  C   UNL     1      -5.574  14.725  20.226  0.00  0.00    +0.000 A 
ATOM     15  C   UNL     1      -6.466  15.313  19.327  0.00  0.00    +0.000 A 
ATOM     16  C   UNL     1      -7.545  16.015  19.874  0.00  0.00    +0.000 A 
ATOM     17  C   UNL     1      -7.704  16.138  21.254  0.00  0.00    +0.000 A 
ATOM     18  C   UNL     1      -6.693  15.712  22.125  0.00  0.00    +0.000 A 
ATOM     19  C   UNL     1      -5.586  15.032  21.590  0.00  0.00    +0.000 A 
ATOM     20  C   UNL     1      -2.883  12.598  21.557  0.00  0.00    +0.000 C 
ATOM     21  H   UNL     1      -4.254  13.442  19.148  0.00  0.00    +0.000 HD
ENDBRANCH   1   7
BRANCH   4  22
ATOM     22  C   UNL     1       1.305   8.514  20.301  0.00  0.00    +0.000 A 
ATOM     23  C   UNL     1       1.743   7.236  20.672  0.00  0.00    +0.000 A 
ATOM     24  C   UNL     1       2.497   6.445  19.787  0.00  0.00    +0.000 A 
ATOM     25  C   UNL     1       2.840   6.896  18.499  0.00  0.00    +0.000 A 
ATOM     26  C   UNL     1       2.375   8.171  18.136  0.00  0.00    +0.000 A 
ATOM     27  C   UNL     1       1.633   8.965  19.019  0.00  0.00    +0.000 A 
BRANCH  25  28
ATOM     28  C   UNL     1       3.661   6.078  17.569  0.00  0.00    +0.000 A 
ATOM     29  C   UNL     1       3.541   4.677  17.504  0.00  0.00    +0.000 A 
ATOM     30  C   UNL     1       4.335   3.907  16.641  0.00  0.00    +0.000 A 
ATOM     31  C   UNL     1       5.267   4.520  15.811  0.00  0.00    +0.000 A 
ATOM     32  C   UNL     1       5.402   5.902  15.846  0.00  0.00    +0.000 A 
ATOM     33  C   UNL     1       4.612   6.668  16.713  0.00  0.00    +0.000 A 
ENDBRANCH  25  28
ENDBRANCH   4  22
TORSDOF 3
ENDMDL
MODEL 6
REMARK VINA RESULT:      -8.7      3.369      5.172
REMARK  Name = 
REMARK  3 active torsions:
REMARK  status: ('A' for Active; 'I' for Inactive)
REMARK    1  A    between atoms: C_2  and  C_3
REMARK    2  A    between atoms: C_6  and  C_7
REMARK    3  A    between atoms: C_10  and  C_11
REMARK                            x       y       z     vdW  Elec       q    Type
REMARK                         _______ _______ _______ _____ _____    ______ ____
ROOT
ATOM      1  C   UNL     1      -0.394  11.635  22.305  0.00  0.00    +0.000 A 
ATOM      2  C   UNL     1      -1.090  10.639  22.962  0.00  0.00    +0.000 A 
ATOM      3  C   UNL     1      -0.702   9.406  22.391  0.00  0.00    +0.000 A 
ATOM      4  C   UNL     1       0.242   9.701  21.429  0.00  0.00    +0.000 A 
ATOM      5  O   UNL     1       0.413  11.058  21.374  0.00  0.00    +0.000 OA
ENDROOT
BRANCH   1   7
ATOM      6  O   UNL     1      -0.578  13.544  23.652  0.00  0.00    +0.000 OA
ATOM      7  C   UNL     1      -0.451  13.086  22.511  0.00  0.00    +0.000 C 
ATOM      8  N   UNL     1      -0.416  13.988  21.424  0.00  0.00    +0.000 N 
ATOM      9  C   UNL     1      -0.625  15.437  21.701  0.00  0.00    +0.000 C 
ATOM     10  C   UNL     1      -1.143  16.319  20.506  0.00  0.00    +0.000 C 
ATOM     11  C   UNL     1      -0.414  15.935  19.266  0.00  0.00    +0.000 A 
ATOM     12  C   UNL     1       0.345  14.790  19.301  0.00  0.00    +0.000 A 
ATOM     13  N   UNL     1       1.576  15.224  18.876  0.00  0.00    +0.000 N 
ATOM     14  C   UNL     1       1.405  16.372  18.124  0.00  0.00    +0.000 A 
ATOM     15  C   UNL     1       2.321  17.189  17.460  0.00  0.00    +0.000 A 
ATOM     16  C   UNL     1       1.798  18.147  16.585  0.00  0.00    +0.000 A 
ATOM     17  C   UNL     1       0.422  18.289  16.408  0.00  0.00    +0.000 A 
ATOM     18  C   UNL     1      -0.476  17.597  17.231  0.00  0.00    +0.000 A 
ATOM     19  C   UNL     1       0.035  16.652  18.138  0.00  0.00    +0.000 A 
ATOM     20  C   UNL     1       0.028  13.585  20.093  0.00  0.00    +0.000 C 
ATOM     21  H   UNL     1       2.465  14.797  19.097  0.00  0.00    +0.000 HD
ENDBRANCH   1   7
BRANCH   4  22
ATOM     22  C   UNL     1       1.049   8.906  20.499  0.00  0.00    +0.000 A 
ATOM     23  C   UNL     1       1.536   7.641  20.850  0.00  0.00    +0.000 A 
ATOM     24  C   UNL     1       2.314   6.891  19.950  0.00  0.00    +0.000 A 
ATOM     25  C   UNL     1       2.633   7.372  18.667  0.00  0.00    +0.000 A 
ATOM     26  C   UNL     1       2.120   8.634  18.325  0.00  0.00    +0.000 A 
ATOM     27  C   UNL     1       1.353   9.388  19.222  0.00  0.00    +0.000 A 
BRANCH  25  28
ATOM     28  C   UNL     1       3.480   6.599  17.722  0.00  0.00    +0.000 A 
ATOM     29  C   UNL     1       3.432   5.194  17.656  0.00  0.00    +0.000 A 
ATOM     30  C   UNL     1       4.249   4.467  16.779  0.00  0.00    +0.000 A 
ATOM     31  C   UNL     1       5.134   5.128  15.934  0.00  0.00    +0.000 A 
ATOM     32  C   UNL     1       5.198   6.515  15.969  0.00  0.00    +0.000 A 
ATOM     33  C   UNL     1       4.384   7.238  16.851  0.00  0.00    +0.000 A 
ENDBRANCH  25  28
ENDBRANCH   4  22
TORSDOF 3
ENDMDL
MODEL 7
REMARK VINA RESULT:      -8.7      0.561      1.086
REMARK  Name = 
REMARK  3 active torsions:
REMARK  status: ('A' for Active; 'I' for Inactive)
REMARK    1  A    between atoms: C_2  and  C_3
REMARK    2  A    between atoms: C_6  and  C_7
REMARK    3  A    between atoms: C_10  and  C_11
REMARK                            x       y       z     vdW  Elec       q    Type
REMARK                         _______ _______ _______ _____ _____    ______ ____
ROOT
ATOM      1  C   UNL     1       0.748  12.082  20.177  0.00  0.00    +0.000 A 
ATOM      2  C   UNL     1       1.257  12.510  18.966  0.00  0.00    +0.000 A 
ATOM      3  C   UNL     1       1.785  11.377  18.306  0.00  0.00    +0.000 A 
ATOM      4  C   UNL     1       1.545  10.298  19.131  0.00  0.00    +0.000 A 
ATOM      5  O   UNL     1       0.927  10.736  20.271  0.00  0.00    +0.000 OA
ENDROOT
BRANCH   1   7
ATOM      6  O   UNL     1       0.796  13.544  22.008  0.00  0.00    +0.000 OA
ATOM      7  C   UNL     1       0.107  12.870  21.235  0.00  0.00    +0.000 C 
ATOM      8  N   UNL     1      -1.292  12.840  21.433  0.00  0.00    +0.000 N 
ATOM      9  C   UNL     1      -1.853  13.549  22.617  0.00  0.00    +0.000 C 
ATOM     10  C   UNL     1      -3.254  13.058  23.139  0.00  0.00    +0.000 C 
ATOM     11  C   UNL     1      -4.147  12.810  21.974  0.00  0.00    +0.000 A 
ATOM     12  C   UNL     1      -3.578  12.800  20.724  0.00  0.00    +0.000 A 
ATOM     13  N   UNL     1      -4.336  13.712  20.032  0.00  0.00    +0.000 N 
ATOM     14  C   UNL     1      -5.571  13.814  20.644  0.00  0.00    +0.000 A 
ATOM     15  C   UNL     1      -6.698  14.578  20.335  0.00  0.00    +0.000 A 
ATOM     16  C   UNL     1      -7.879  14.272  21.019  0.00  0.00    +0.000 A 
ATOM     17  C   UNL     1      -7.916  13.263  21.980  0.00  0.00    +0.000 A 
ATOM     18  C   UNL     1      -6.733  12.649  22.412  0.00  0.00    +0.000 A 
ATOM     19  C   UNL     1      -5.532  12.968  21.757  0.00  0.00    +0.000 A 
ATOM     20  C   UNL     1      -2.210  12.333  20.417  0.00  0.00    +0.000 C 
ATOM     21  H   UNL     1      -4.036  14.245  19.228  0.00  0.00    +0.000 HD
ENDBRANCH   1   7
BRANCH   4  22
ATOM     22  C   UNL     1       1.808   8.858  19.048  0.00  0.00    +0.000 A 
ATOM     23  C   UNL     1       2.283   8.268  17.870  0.00  0.00    +0.000 A 
ATOM     24  C   UNL     1       2.526   6.885  17.801  0.00  0.00    +0.000 A 
ATOM     25  C   UNL     1       2.308   6.039  18.904  0.00  0.00    +0.000 A 
ATOM     26  C   UNL     1       1.851   6.651  20.083  0.00  0.00    +0.000 A 
ATOM     27  C   UNL     1       1.599   8.026  20.152  0.00  0.00    +0.000 A 
BRANCH  25  28
ATOM     28  C   UNL     1       2.534   4.572  18.831  0.00  0.00    +0.000 A 
ATOM     29  C   UNL     1       1.694   3.655  19.489  0.00  0.00    +0.000 A 
ATOM     30  C   UNL     1       1.926   2.272  19.437  0.00  0.00    +0.000 A 
ATOM     31  C   UNL     1       3.002   1.768  18.715  0.00  0.00    +0.000 A 
ATOM     32  C   UNL     1       3.843   2.648  18.047  0.00  0.00    +0.000 A 
ATOM     33  C   UNL     1       3.613   4.029  18.106  0.00  0.00    +0.000 A 
ENDBRANCH  25  28
ENDBRANCH   4  22
TORSDOF 3
ENDMDL
MODEL 8
REMARK VINA RESULT:      -8.6      4.907     11.872
REMARK  Name = 
REMARK  3 active torsions:
REMARK  status: ('A' for Active; 'I' for Inactive)
REMARK    1  A    between atoms: C_2  and  C_3
REMARK    2  A    between atoms: C_6  and  C_7
REMARK    3  A    between atoms: C_10  and  C_11
REMARK                            x       y       z     vdW  Elec       q    Type
REMARK                         _______ _______ _______ _____ _____    ______ ____
ROOT
ATOM      1  C   UNL     1       3.593   5.114  19.730  0.00  0.00    +0.000 A 
ATOM      2  C   UNL     1       2.445   4.476  20.158  0.00  0.00    +0.000 A 
ATOM      3  C   UNL     1       1.476   5.474  20.408  0.00  0.00    +0.000 A 
ATOM      4  C   UNL     1       2.065   6.679  20.089  0.00  0.00    +0.000 A 
ATOM      5  O   UNL     1       3.356   6.453  19.692  0.00  0.00    +0.000 OA
ENDROOT
BRANCH   1   7
ATOM      6  O   UNL     1       5.555   3.922  20.201  0.00  0.00    +0.000 OA
ATOM      7  C   UNL     1       4.886   4.530  19.359  0.00  0.00    +0.000 C 
ATOM      8  N   UNL     1       5.422   4.688  18.061  0.00  0.00    +0.000 N 
ATOM      9  C   UNL     1       6.803   4.193  17.801  0.00  0.00    +0.000 C 
ATOM     10  C   UNL     1       7.578   4.852  16.601  0.00  0.00    +0.000 C 
ATOM     11  C   UNL     1       6.650   4.998  15.446  0.00  0.00    +0.000 A 
ATOM     12  C   UNL     1       5.311   4.793  15.672  0.00  0.00    +0.000 A 
ATOM     13  N   UNL     1       4.980   3.851  14.730  0.00  0.00    +0.000 N 
ATOM     14  C   UNL     1       5.890   3.924  13.692  0.00  0.00    +0.000 A 
ATOM     15  C   UNL     1       5.994   3.207  12.499  0.00  0.00    +0.000 A 
ATOM     16  C   UNL     1       6.897   3.690  11.546  0.00  0.00    +0.000 A 
ATOM     17  C   UNL     1       7.671   4.824  11.793  0.00  0.00    +0.000 A 
ATOM     18  C   UNL     1       7.694   5.405  13.068  0.00  0.00    +0.000 A 
ATOM     19  C   UNL     1       6.815   4.912  14.048  0.00  0.00    +0.000 A 
ATOM     20  C   UNL     1       4.603   5.112  16.928  0.00  0.00    +0.000 C 
ATOM     21  H   UNL     1       4.217   3.190  14.793  0.00  0.00    +0.000 HD
ENDBRANCH   1   7
BRANCH   4  22
ATOM     22  C   UNL     1       1.624   8.077  20.097  0.00  0.00    +0.000 A 
ATOM     23  C   UNL     1       1.240   8.716  21.282  0.00  0.00    +0.000 A 
ATOM     24  C   UNL     1       0.813  10.056  21.276  0.00  0.00    +0.000 A 
ATOM     25  C   UNL     1       0.755  10.809  20.088  0.00  0.00    +0.000 A 
ATOM     26  C   UNL     1       1.162  10.158  18.912  0.00  0.00    +0.000 A 
ATOM     27  C   UNL     1       1.579   8.821  18.914  0.00  0.00    +0.000 A 
BRANCH  25  28
ATOM     28  C   UNL     1       0.277  12.216  20.068  0.00  0.00    +0.000 A 
ATOM     29  C   UNL     1       0.000  12.926  21.252  0.00  0.00    +0.000 A 
ATOM     30  C   UNL     1      -0.474  14.246  21.227  0.00  0.00    +0.000 A 
ATOM     31  C   UNL     1      -0.676  14.896  20.015  0.00  0.00    +0.000 A 
ATOM     32  C   UNL     1      -0.403  14.224  18.831  0.00  0.00    +0.000 A 
ATOM     33  C   UNL     1       0.064  12.904  18.858  0.00  0.00    +0.000 A 
ENDBRANCH  25  28
ENDBRANCH   4  22
TORSDOF 3
ENDMDL
MODEL 9
REMARK VINA RESULT:      -8.5      2.008      2.590
REMARK  Name = 
REMARK  3 active torsions:
REMARK  status: ('A' for Active; 'I' for Inactive)
REMARK    1  A    between atoms: C_2  and  C_3
REMARK    2  A    between atoms: C_6  and  C_7
REMARK    3  A    between atoms: C_10  and  C_11
REMARK                            x       y       z     vdW  Elec       q    Type
REMARK                         _______ _______ _______ _____ _____    ______ ____
ROOT
ATOM      1  C   UNL     1      -0.214  11.091  22.038  0.00  0.00    +0.000 A 
ATOM      2  C   UNL     1      -0.738  10.089  22.830  0.00  0.00    +0.000 A 
ATOM      3  C   UNL     1      -0.256   8.858  22.329  0.00  0.00    +0.000 A 
ATOM      4  C   UNL     1       0.571   9.165  21.269  0.00  0.00    +0.000 A 
ATOM      5  O   UNL     1       0.581  10.523  21.090  0.00  0.00    +0.000 OA
ENDROOT
BRANCH   1   7
ATOM      6  O   UNL     1       0.533  13.311  21.978  0.00  0.00    +0.000 OA
ATOM      7  C   UNL     1      -0.420  12.540  22.131  0.00  0.00    +0.000 C 
ATOM      8  N   UNL     1      -1.684  13.087  22.446  0.00  0.00    +0.000 N 
ATOM      9  C   UNL     1      -1.783  14.557  22.667  0.00  0.00    +0.000 C 
ATOM     10  C   UNL     1      -2.989  15.063  23.540  0.00  0.00    +0.000 C 
ATOM     11  C   UNL     1      -4.219  14.324  23.146  0.00  0.00    +0.000 A 
ATOM     12  C   UNL     1      -4.071  13.227  22.333  0.00  0.00    +0.000 A 
ATOM     13  N   UNL     1      -4.922  13.498  21.290  0.00  0.00    +0.000 N 
ATOM     14  C   UNL     1      -5.891  14.381  21.730  0.00  0.00    +0.000 A 
ATOM     15  C   UNL     1      -6.984  14.955  21.079  0.00  0.00    +0.000 A 
ATOM     16  C   UNL     1      -7.916  15.627  21.878  0.00  0.00    +0.000 A 
ATOM     17  C   UNL     1      -7.742  15.734  23.257  0.00  0.00    +0.000 A 
ATOM     18  C   UNL     1      -6.543  15.325  23.856  0.00  0.00    +0.000 A 
ATOM     19  C   UNL     1      -5.582  14.676  23.062  0.00  0.00    +0.000 A 
ATOM     20  C   UNL     1      -2.915  12.307  22.349  0.00  0.00    +0.000 C 
ATOM     21  H   UNL     1      -4.841  13.139  20.349  0.00  0.00    +0.000 HD
ENDBRANCH   1   7
BRANCH   4  22
ATOM     22  C   UNL     1       1.390   8.382  20.339  0.00  0.00    +0.000 A 
ATOM     23  C   UNL     1       1.926   7.141  20.705  0.00  0.00    +0.000 A 
ATOM     24  C   UNL     1       2.716   6.402  19.806  0.00  0.00    +0.000 A 
ATOM     25  C   UNL     1       2.997   6.870  18.508  0.00  0.00    +0.000 A 
ATOM     26  C   UNL     1       2.434   8.107  18.153  0.00  0.00    +0.000 A 
ATOM     27  C   UNL     1       1.656   8.850  19.049  0.00  0.00    +0.000 A 
BRANCH  25  28
ATOM     28  C   UNL     1       3.854   6.109  17.563  0.00  0.00    +0.000 A 
ATOM     29  C   UNL     1       4.945   6.703  16.903  0.00  0.00    +0.000 A 
ATOM     30  C   UNL     1       5.737   5.987  15.993  0.00  0.00    +0.000 A 
ATOM     31  C   UNL     1       5.463   4.651  15.725  0.00  0.00    +0.000 A 
ATOM     32  C   UNL     1       4.398   4.034  16.368  0.00  0.00    +0.000 A 
ATOM     33  C   UNL     1       3.604   4.754  17.272  0.00  0.00    +0.000 A 
ENDBRANCH  25  28
ENDBRANCH   4  22
TORSDOF 3
ENDMDL
