MODEL 1
REMARK VINA RESULT:      -6.9      0.000      0.000
REMARK  Name = 
REMARK  11 active torsions:
REMARK  status: ('A' for Active; 'I' for Inactive)
REMARK    1  A    between atoms: C_1  and  N_2
REMARK    2  A    between atoms: N_2  and  C_3
REMARK    3  A    between atoms: N_2  and  C_4
REMARK    4  A    between atoms: C_4  and  C_5
REMARK    5  A    between atoms: C_5  and  N_6
REMARK    6  A    between atoms: N_6  and  C_7
REMARK    7  A    between atoms: N_15  and  C_16
REMARK    8  A    between atoms: N_18  and  C_19
REMARK    9  A    between atoms: C_19  and  C_20
REMARK   10  A    between atoms: C_26  and  C_27
REMARK   11  A    between atoms: C_27  and  O_28
REMARK                            x       y       z     vdW  Elec       q    Type
REMARK                         _______ _______ _______ _____ _____    ______ ____
ROOT
ATOM      1  C   UNL     1       2.067   7.452  19.752  0.00  0.00    +0.000 A 
ATOM      2  N   UNL     1       2.268   7.654  18.420  0.00  0.00    +0.000 NA
ATOM      3  C   UNL     1       1.922   8.838  17.879  0.00  0.00    +0.000 A 
ATOM      4  N   UNL     1       1.428   9.919  18.505  0.00  0.00    +0.000 NA
ATOM      5  C   UNL     1       1.219   9.681  19.806  0.00  0.00    +0.000 A 
ATOM      6  C   UNL     1       1.469   8.497  20.487  0.00  0.00    +0.000 A 
ATOM      7  N   UNL     1       1.104   8.614  21.811  0.00  0.00    +0.000 NA
ATOM      8  C   UNL     1       0.686   9.856  21.938  0.00  0.00    +0.000 A 
ATOM      9  N   UNL     1       0.756  10.556  20.757  0.00  0.00    +0.000 N 
ENDROOT
BRANCH   9  10
ATOM     10  C   UNL     1       0.652  12.004  20.620  0.00  0.00    +0.000 C 
ATOM     11  C   UNL     1      -0.129  12.599  19.415  0.00  0.00    +0.000 C 
ATOM     12  N   UNL     1      -1.601  12.622  19.542  0.00  0.00    +0.000 NA
ATOM     13  C   UNL     1      -1.927  13.284  20.815  0.00  0.00    +0.000 C 
ATOM     14  C   UNL     1      -1.155  12.814  22.071  0.00  0.00    +0.000 C 
ATOM     15  O   UNL     1       0.256  12.608  21.871  0.00  0.00    +0.000 OA
BRANCH  12  16
ATOM     16  C   UNL     1      -2.170  11.276  19.374  0.00  0.00    +0.000 C 
BRANCH  16  17
ATOM     17  C   UNL     1      -2.557  10.911  17.965  0.00  0.00    +0.000 A 
ATOM     18  C   UNL     1      -1.918  10.101  17.052  0.00  0.00    +0.000 A 
ATOM     19  C   UNL     1      -2.658   9.953  15.843  0.00  0.00    +0.000 A 
ATOM     20  C   UNL     1      -3.841  10.658  15.872  0.00  0.00    +0.000 A 
ATOM     21  S   UNL     1      -4.042  11.511  17.339  0.00  0.00    +0.000 S 
ENDBRANCH  16  17
ENDBRANCH  12  16
BRANCH  14  22
ATOM     22  C   UNL     1      -1.802  11.638  22.813  0.00  0.00    +0.000 C 
BRANCH  22  23
ATOM     23  O   UNL     1      -3.141  11.953  23.171  0.00  0.00    +0.000 OA
ATOM     24  H   UNL     1      -3.259  12.909  23.030  0.00  0.00    +0.000 HD
ENDBRANCH  22  23
ENDBRANCH  14  22
ENDBRANCH   9  10
BRANCH   1  25
ATOM     25  N   UNL     1       2.459   6.247  20.348  0.00  0.00    +0.000 N 
ATOM     26  H   UNL     1       2.897   6.439  21.252  0.00  0.00    +0.000 HD
BRANCH  25  27
ATOM     27  C   UNL     1       3.285   5.379  19.506  0.00  0.00    +0.000 C 
BRANCH  27  28
ATOM     28  C   UNL     1       2.991   3.880  19.771  0.00  0.00    +0.000 C 
BRANCH  28  30
ATOM     29  C   UNL     1       0.895   2.781  19.169  0.00  0.00    +0.000 C 
ATOM     30  N   UNL     1       1.598   3.578  20.179  0.00  0.00    +0.000 NA
ATOM     31  C   UNL     1       1.602   2.849  21.453  0.00  0.00    +0.000 C 
ENDBRANCH  28  30
ENDBRANCH  27  28
ENDBRANCH  25  27
ENDBRANCH   1  25
TORSDOF 9
ENDMDL
MODEL 2
REMARK VINA RESULT:      -6.9      0.824      1.123
REMARK  Name = 
REMARK  11 active torsions:
REMARK  status: ('A' for Active; 'I' for Inactive)
REMARK    1  A    between atoms: C_1  and  N_2
REMARK    2  A    between atoms: N_2  and  C_3
REMARK    3  A    between atoms: N_2  and  C_4
REMARK    4  A    between atoms: C_4  and  C_5
REMARK    5  A    between atoms: C_5  and  N_6
REMARK    6  A    between atoms: N_6  and  C_7
REMARK    7  A    between atoms: N_15  and  C_16
REMARK    8  A    between atoms: N_18  and  C_19
REMARK    9  A    between atoms: C_19  and  C_20
REMARK   10  A    between atoms: C_26  and  C_27
REMARK   11  A    between atoms: C_27  and  O_28
REMARK                            x       y       z     vdW  Elec       q    Type
REMARK                         _______ _______ _______ _____ _____    ______ ____
ROOT
ATOM      1  C   UNL     1       2.137   7.174  19.754  0.00  0.00    +0.000 A 
ATOM      2  N   UNL     1       2.325   7.323  18.413  0.00  0.00    +0.000 NA
ATOM      3  C   UNL     1       2.023   8.502  17.838  0.00  0.00    +0.000 A 
ATOM      4  N   UNL     1       1.586   9.624  18.434  0.00  0.00    +0.000 NA
ATOM      5  C   UNL     1       1.387   9.438  19.745  0.00  0.00    +0.000 A 
ATOM      6  C   UNL     1       1.595   8.268  20.461  0.00  0.00    +0.000 A 
ATOM      7  N   UNL     1       1.256   8.445  21.786  0.00  0.00    +0.000 NA
ATOM      8  C   UNL     1       0.895   9.707  21.877  0.00  0.00    +0.000 A 
ATOM      9  N   UNL     1       0.977  10.364  20.672  0.00  0.00    +0.000 N 
ENDROOT
BRANCH   9  10
ATOM     10  C   UNL     1       0.934  11.810  20.488  0.00  0.00    +0.000 C 
ATOM     11  C   UNL     1       0.162  12.399  19.274  0.00  0.00    +0.000 C 
ATOM     12  N   UNL     1      -1.305  12.490  19.419  0.00  0.00    +0.000 NA
ATOM     13  C   UNL     1      -1.583  13.208  20.673  0.00  0.00    +0.000 C 
ATOM     14  C   UNL     1      -0.815  12.746  21.934  0.00  0.00    +0.000 C 
ATOM     15  O   UNL     1       0.583  12.471  21.723  0.00  0.00    +0.000 OA
BRANCH  12  16
ATOM     16  C   UNL     1      -1.934  11.166  19.304  0.00  0.00    +0.000 C 
BRANCH  16  17
ATOM     17  C   UNL     1      -2.453  10.816  17.934  0.00  0.00    +0.000 A 
ATOM     18  C   UNL     1      -1.924   9.983  16.971  0.00  0.00    +0.000 A 
ATOM     19  C   UNL     1      -2.769   9.864  15.830  0.00  0.00    +0.000 A 
ATOM     20  C   UNL     1      -3.919  10.611  15.958  0.00  0.00    +0.000 A 
ATOM     21  S   UNL     1      -3.963  11.470  17.434  0.00  0.00    +0.000 S 
ENDBRANCH  16  17
ENDBRANCH  12  16
BRANCH  14  22
ATOM     22  C   UNL     1      -1.502  11.624  22.723  0.00  0.00    +0.000 C 
BRANCH  22  23
ATOM     23  O   UNL     1      -2.857  11.961  22.988  0.00  0.00    +0.000 OA
ATOM     24  H   UNL     1      -3.362  11.129  23.006  0.00  0.00    +0.000 HD
ENDBRANCH  22  23
ENDBRANCH  14  22
ENDBRANCH   9  10
BRANCH   1  25
ATOM     25  N   UNL     1       2.485   5.973  20.385  0.00  0.00    +0.000 N 
ATOM     26  H   UNL     1       3.295   5.562  19.915  0.00  0.00    +0.000 HD
BRANCH  25  27
ATOM     27  C   UNL     1       1.388   5.013  20.538  0.00  0.00    +0.000 C 
BRANCH  27  28
ATOM     28  C   UNL     1       1.408   3.942  19.419  0.00  0.00    +0.000 C 
BRANCH  28  30
ATOM     29  C   UNL     1       3.245   2.335  19.325  0.00  0.00    +0.000 C 
ATOM     30  N   UNL     1       2.751   3.636  18.867  0.00  0.00    +0.000 NA
ATOM     31  C   UNL     1       2.697   3.645  17.400  0.00  0.00    +0.000 C 
ENDBRANCH  28  30
ENDBRANCH  27  28
ENDBRANCH  25  27
ENDBRANCH   1  25
TORSDOF 9
ENDMDL
MODEL 3
REMARK VINA RESULT:      -6.7      1.130      1.655
REMARK  Name = 
REMARK  11 active torsions:
REMARK  status: ('A' for Active; 'I' for Inactive)
REMARK    1  A    between atoms: C_1  and  N_2
REMARK    2  A    between atoms: N_2  and  C_3
REMARK    3  A    between atoms: N_2  and  C_4
REMARK    4  A    between atoms: C_4  and  C_5
REMARK    5  A    between atoms: C_5  and  N_6
REMARK    6  A    between atoms: N_6  and  C_7
REMARK    7  A    between atoms: N_15  and  C_16
REMARK    8  A    between atoms: N_18  and  C_19
REMARK    9  A    between atoms: C_19  and  C_20
REMARK   10  A    between atoms: C_26  and  C_27
REMARK   11  A    between atoms: C_27  and  O_28
REMARK                            x       y       z     vdW  Elec       q    Type
REMARK                         _______ _______ _______ _____ _____    ______ ____
ROOT
ATOM      1  C   UNL     1       2.159   7.374  19.697  0.00  0.00    +0.000 A 
ATOM      2  N   UNL     1       2.324   7.608  18.365  0.00  0.00    +0.000 NA
ATOM      3  C   UNL     1       1.959   8.801  17.861  0.00  0.00    +0.000 A 
ATOM      4  N   UNL     1       1.475   9.865  18.524  0.00  0.00    +0.000 NA
ATOM      5  C   UNL     1       1.301   9.596  19.824  0.00  0.00    +0.000 A 
ATOM      6  C   UNL     1       1.574   8.399  20.471  0.00  0.00    +0.000 A 
ATOM      7  N   UNL     1       1.243   8.485  21.806  0.00  0.00    +0.000 NA
ATOM      8  C   UNL     1       0.822   9.721  21.972  0.00  0.00    +0.000 A 
ATOM      9  N   UNL     1       0.858  10.447  20.806  0.00  0.00    +0.000 N 
ENDROOT
BRANCH   9  10
ATOM     10  C   UNL     1       0.743  11.898  20.704  0.00  0.00    +0.000 C 
ATOM     11  C   UNL     1      -0.033  12.516  19.508  0.00  0.00    +0.000 C 
ATOM     12  N   UNL     1      -1.506  12.524  19.623  0.00  0.00    +0.000 NA
ATOM     13  C   UNL     1      -1.847  13.152  20.910  0.00  0.00    +0.000 C 
ATOM     14  C   UNL     1      -1.081  12.656  22.159  0.00  0.00    +0.000 C 
ATOM     15  O   UNL     1       0.333  12.467  21.966  0.00  0.00    +0.000 OA
BRANCH  12  16
ATOM     16  C   UNL     1      -2.063  11.179  19.418  0.00  0.00    +0.000 C 
BRANCH  16  17
ATOM     17  C   UNL     1      -2.495  10.868  18.009  0.00  0.00    +0.000 A 
ATOM     18  C   UNL     1      -1.891  10.089  17.046  0.00  0.00    +0.000 A 
ATOM     19  C   UNL     1      -2.669   9.992  15.857  0.00  0.00    +0.000 A 
ATOM     20  C   UNL     1      -3.846  10.702  15.949  0.00  0.00    +0.000 A 
ATOM     21  S   UNL     1      -3.995  11.501  17.451  0.00  0.00    +0.000 S 
ENDBRANCH  16  17
ENDBRANCH  12  16
BRANCH  14  22
ATOM     22  C   UNL     1      -1.724  11.457  22.867  0.00  0.00    +0.000 C 
BRANCH  22  23
ATOM     23  O   UNL     1      -3.006  11.807  23.374  0.00  0.00    +0.000 OA
ATOM     24  H   UNL     1      -2.980  11.672  24.338  0.00  0.00    +0.000 HD
ENDBRANCH  22  23
ENDBRANCH  14  22
ENDBRANCH   9  10
BRANCH   1  25
ATOM     25  N   UNL     1       2.572   6.159  20.256  0.00  0.00    +0.000 N 
ATOM     26  H   UNL     1       3.301   6.332  20.952  0.00  0.00    +0.000 HD
BRANCH  25  27
ATOM     27  C   UNL     1       2.966   5.133  19.286  0.00  0.00    +0.000 C 
BRANCH  27  28
ATOM     28  C   UNL     1       4.497   4.895  19.299  0.00  0.00    +0.000 C 
BRANCH  28  30
ATOM     29  C   UNL     1       4.060   3.972  17.081  0.00  0.00    +0.000 C 
ATOM     30  N   UNL     1       5.080   4.490  17.997  0.00  0.00    +0.000 NA
ATOM     31  C   UNL     1       5.749   5.640  17.376  0.00  0.00    +0.000 C 
ENDBRANCH  28  30
ENDBRANCH  27  28
ENDBRANCH  25  27
ENDBRANCH   1  25
TORSDOF 9
ENDMDL
MODEL 4
REMARK VINA RESULT:      -6.6      0.780      1.089
REMARK  Name = 
REMARK  11 active torsions:
REMARK  status: ('A' for Active; 'I' for Inactive)
REMARK    1  A    between atoms: C_1  and  N_2
REMARK    2  A    between atoms: N_2  and  C_3
REMARK    3  A    between atoms: N_2  and  C_4
REMARK    4  A    between atoms: C_4  and  C_5
REMARK    5  A    between atoms: C_5  and  N_6
REMARK    6  A    between atoms: N_6  and  C_7
REMARK    7  A    between atoms: N_15  and  C_16
REMARK    8  A    between atoms: N_18  and  C_19
REMARK    9  A    between atoms: C_19  and  C_20
REMARK   10  A    between atoms: C_26  and  C_27
REMARK   11  A    between atoms: C_27  and  O_28
REMARK                            x       y       z     vdW  Elec       q    Type
REMARK                         _______ _______ _______ _____ _____    ______ ____
ROOT
ATOM      1  C   UNL     1       2.064   7.660  19.599  0.00  0.00    +0.000 A 
ATOM      2  N   UNL     1       2.225   7.934  18.275  0.00  0.00    +0.000 NA
ATOM      3  C   UNL     1       1.835   9.134  17.804  0.00  0.00    +0.000 A 
ATOM      4  N   UNL     1       1.329  10.168  18.497  0.00  0.00    +0.000 NA
ATOM      5  C   UNL     1       1.160   9.859  19.789  0.00  0.00    +0.000 A 
ATOM      6  C   UNL     1       1.458   8.649  20.401  0.00  0.00    +0.000 A 
ATOM      7  N   UNL     1       1.124   8.690  21.738  0.00  0.00    +0.000 NA
ATOM      8  C   UNL     1       0.678   9.911  21.939  0.00  0.00    +0.000 A 
ATOM      9  N   UNL     1       0.699  10.672  20.794  0.00  0.00    +0.000 N 
ENDROOT
BRANCH   9  10
ATOM     10  C   UNL     1       0.554  12.122  20.734  0.00  0.00    +0.000 C 
ATOM     11  C   UNL     1      -0.279  12.755  19.584  0.00  0.00    +0.000 C 
ATOM     12  N   UNL     1      -1.746  12.732  19.755  0.00  0.00    +0.000 NA
ATOM     13  C   UNL     1      -2.049  13.321  21.070  0.00  0.00    +0.000 C 
ATOM     14  C   UNL     1      -1.227  12.809  22.276  0.00  0.00    +0.000 C 
ATOM     15  O   UNL     1       0.182  12.651  22.024  0.00  0.00    +0.000 OA
BRANCH  12  16
ATOM     16  C   UNL     1      -2.286  11.381  19.537  0.00  0.00    +0.000 C 
BRANCH  16  17
ATOM     17  C   UNL     1      -2.889  11.140  18.178  0.00  0.00    +0.000 A 
ATOM     18  C   UNL     1      -4.044  11.643  17.618  0.00  0.00    +0.000 A 
ATOM     19  C   UNL     1      -4.223  11.223  16.269  0.00  0.00    +0.000 A 
ATOM     20  C   UNL     1      -3.196  10.410  15.840  0.00  0.00    +0.000 A 
ATOM     21  S   UNL     1      -2.041  10.137  17.068  0.00  0.00    +0.000 S 
ENDBRANCH  16  17
ENDBRANCH  12  16
BRANCH  14  22
ATOM     22  C   UNL     1      -1.821  11.580  22.976  0.00  0.00    +0.000 C 
BRANCH  22  23
ATOM     23  O   UNL     1      -3.140  11.855  23.429  0.00  0.00    +0.000 OA
ATOM     24  H   UNL     1      -3.495  12.565  22.866  0.00  0.00    +0.000 HD
ENDBRANCH  22  23
ENDBRANCH  14  22
ENDBRANCH   9  10
BRANCH   1  25
ATOM     25  N   UNL     1       2.502   6.437  20.123  0.00  0.00    +0.000 N 
ATOM     26  H   UNL     1       3.390   6.573  20.613  0.00  0.00    +0.000 HD
BRANCH  25  27
ATOM     27  C   UNL     1       2.565   5.336  19.159  0.00  0.00    +0.000 C 
BRANCH  27  28
ATOM     28  C   UNL     1       1.851   4.069  19.693  0.00  0.00    +0.000 C 
BRANCH  28  30
ATOM     29  C   UNL     1       1.594   2.598  21.626  0.00  0.00    +0.000 C 
ATOM     30  N   UNL     1       2.528   3.401  20.832  0.00  0.00    +0.000 NA
ATOM     31  C   UNL     1       3.604   2.537  20.330  0.00  0.00    +0.000 C 
ENDBRANCH  28  30
ENDBRANCH  27  28
ENDBRANCH  25  27
ENDBRANCH   1  25
TORSDOF 9
ENDMDL
MODEL 5
REMARK VINA RESULT:      -6.6      0.845      1.119
REMARK  Name = 
REMARK  11 active torsions:
REMARK  status: ('A' for Active; 'I' for Inactive)
REMARK    1  A    between atoms: C_1  and  N_2
REMARK    2  A    between atoms: N_2  and  C_3
REMARK    3  A    between atoms: N_2  and  C_4
REMARK    4  A    between atoms: C_4  and  C_5
REMARK    5  A    between atoms: C_5  and  N_6
REMARK    6  A    between atoms: N_6  and  C_7
REMARK    7  A    between atoms: N_15  and  C_16
REMARK    8  A    between atoms: N_18  and  C_19
REMARK    9  A    between atoms: C_19  and  C_20
REMARK   10  A    between atoms: C_26  and  C_27
REMARK   11  A    between atoms: C_27  and  O_28
REMARK                            x       y       z     vdW  Elec       q    Type
REMARK                         _______ _______ _______ _____ _____    ______ ____
ROOT
ATOM      1  C   UNL     1       2.123   7.175  19.733  0.00  0.00    +0.000 A 
ATOM      2  N   UNL     1       2.337   7.352  18.399  0.00  0.00    +0.000 NA
ATOM      3  C   UNL     1       2.059   8.547  17.845  0.00  0.00    +0.000 A 
ATOM      4  N   UNL     1       1.623   9.660  18.459  0.00  0.00    +0.000 NA
ATOM      5  C   UNL     1       1.399   9.448  19.762  0.00  0.00    +0.000 A 
ATOM      6  C   UNL     1       1.581   8.259  20.455  0.00  0.00    +0.000 A 
ATOM      7  N   UNL     1       1.221   8.410  21.777  0.00  0.00    +0.000 NA
ATOM      8  C   UNL     1       0.872   9.674  21.891  0.00  0.00    +0.000 A 
ATOM      9  N   UNL     1       0.983  10.357  20.703  0.00  0.00    +0.000 N 
ENDROOT
BRANCH   9  10
ATOM     10  C   UNL     1       0.959  11.807  20.551  0.00  0.00    +0.000 C 
ATOM     11  C   UNL     1       0.271  12.429  19.303  0.00  0.00    +0.000 C 
ATOM     12  N   UNL     1      -1.202  12.527  19.354  0.00  0.00    +0.000 NA
ATOM     13  C   UNL     1      -1.558  13.217  20.604  0.00  0.00    +0.000 C 
ATOM     14  C   UNL     1      -0.876  12.720  21.901  0.00  0.00    +0.000 C 
ATOM     15  O   UNL     1       0.531  12.442  21.775  0.00  0.00    +0.000 OA
BRANCH  12  16
ATOM     16  C   UNL     1      -1.829  11.210  19.167  0.00  0.00    +0.000 C 
BRANCH  16  17
ATOM     17  C   UNL     1      -2.857  11.136  18.068  0.00  0.00    +0.000 A 
ATOM     18  C   UNL     1      -4.165  11.570  18.046  0.00  0.00    +0.000 A 
ATOM     19  C   UNL     1      -4.782  11.376  16.777  0.00  0.00    +0.000 A 
ATOM     20  C   UNL     1      -3.923  10.799  15.867  0.00  0.00    +0.000 A 
ATOM     21  S   UNL     1      -2.393  10.470  16.552  0.00  0.00    +0.000 S 
ENDBRANCH  16  17
ENDBRANCH  12  16
BRANCH  14  22
ATOM     22  C   UNL     1      -1.618  11.585  22.616  0.00  0.00    +0.000 C 
BRANCH  22  23
ATOM     23  O   UNL     1      -2.671  12.107  23.417  0.00  0.00    +0.000 OA
ATOM     24  H   UNL     1      -2.960  11.393  24.012  0.00  0.00    +0.000 HD
ENDBRANCH  22  23
ENDBRANCH  14  22
ENDBRANCH   9  10
BRANCH   1  25
ATOM     25  N   UNL     1       2.447   5.957  20.342  0.00  0.00    +0.000 N 
ATOM     26  H   UNL     1       2.681   6.117  21.325  0.00  0.00    +0.000 HD
BRANCH  25  27
ATOM     27  C   UNL     1       3.471   5.170  19.651  0.00  0.00    +0.000 C 
BRANCH  27  28
ATOM     28  C   UNL     1       3.091   3.670  19.587  0.00  0.00    +0.000 C 
BRANCH  28  30
ATOM     29  C   UNL     1       2.545   2.329  17.619  0.00  0.00    +0.000 C 
ATOM     30  N   UNL     1       2.059   3.326  18.578  0.00  0.00    +0.000 NA
ATOM     31  C   UNL     1       0.862   2.808  19.250  0.00  0.00    +0.000 C 
ENDBRANCH  28  30
ENDBRANCH  27  28
ENDBRANCH  25  27
ENDBRANCH   1  25
TORSDOF 9
ENDMDL
MODEL 6
REMARK VINA RESULT:      -6.6      4.113      8.452
REMARK  Name = 
REMARK  11 active torsions:
REMARK  status: ('A' for Active; 'I' for Inactive)
REMARK    1  A    between atoms: C_1  and  N_2
REMARK    2  A    between atoms: N_2  and  C_3
REMARK    3  A    between atoms: N_2  and  C_4
REMARK    4  A    between atoms: C_4  and  C_5
REMARK    5  A    between atoms: C_5  and  N_6
REMARK    6  A    between atoms: N_6  and  C_7
REMARK    7  A    between atoms: N_15  and  C_16
REMARK    8  A    between atoms: N_18  and  C_19
REMARK    9  A    between atoms: C_19  and  C_20
REMARK   10  A    between atoms: C_26  and  C_27
REMARK   11  A    between atoms: C_27  and  O_28
REMARK                            x       y       z     vdW  Elec       q    Type
REMARK                         _______ _______ _______ _____ _____    ______ ____
ROOT
ATOM      1  C   UNL     1       1.416   9.033  19.952  0.00  0.00    +0.000 A 
ATOM      2  N   UNL     1       1.721   9.598  18.751  0.00  0.00    +0.000 NA
ATOM      3  C   UNL     1       2.165   8.811  17.753  0.00  0.00    +0.000 A 
ATOM      4  N   UNL     1       2.312   7.475  17.758  0.00  0.00    +0.000 NA
ATOM      5  C   UNL     1       2.029   6.954  18.958  0.00  0.00    +0.000 A 
ATOM      6  C   UNL     1       1.621   7.645  20.091  0.00  0.00    +0.000 A 
ATOM      7  N   UNL     1       1.449   6.779  21.149  0.00  0.00    +0.000 NA
ATOM      8  C   UNL     1       1.704   5.585  20.655  0.00  0.00    +0.000 A 
ATOM      9  N   UNL     1       2.039   5.630  19.323  0.00  0.00    +0.000 N 
ENDROOT
BRANCH   9  10
ATOM     10  C   UNL     1       2.090   4.486  18.420  0.00  0.00    +0.000 C 
ATOM     11  C   UNL     1       3.379   4.228  17.592  0.00  0.00    +0.000 C 
ATOM     12  N   UNL     1       4.490   3.566  18.307  0.00  0.00    +0.000 NA
ATOM     13  C   UNL     1       3.953   2.341  18.922  0.00  0.00    +0.000 C 
ATOM     14  C   UNL     1       2.631   2.473  19.715  0.00  0.00    +0.000 C 
ATOM     15  O   UNL     1       1.628   3.291  19.085  0.00  0.00    +0.000 OA
BRANCH  12  16
ATOM     16  C   UNL     1       5.152   4.494  19.237  0.00  0.00    +0.000 C 
BRANCH  16  17
ATOM     17  C   UNL     1       6.039   5.527  18.593  0.00  0.00    +0.000 A 
ATOM     18  C   UNL     1       5.777   6.404  17.564  0.00  0.00    +0.000 A 
ATOM     19  C   UNL     1       6.871   7.277  17.300  0.00  0.00    +0.000 A 
ATOM     20  C   UNL     1       7.937   7.038  18.139  0.00  0.00    +0.000 A 
ATOM     21  S   UNL     1       7.626   5.751  19.218  0.00  0.00    +0.000 S 
ENDBRANCH  16  17
ENDBRANCH  12  16
BRANCH  14  22
ATOM     22  C   UNL     1       2.810   2.831  21.196  0.00  0.00    +0.000 C 
BRANCH  22  23
ATOM     23  O   UNL     1       1.686   2.397  21.951  0.00  0.00    +0.000 OA
ATOM     24  H   UNL     1       1.544   3.052  22.657  0.00  0.00    +0.000 HD
ENDBRANCH  22  23
ENDBRANCH  14  22
ENDBRANCH   9  10
BRANCH   1  25
ATOM     25  N   UNL     1       0.909   9.822  20.992  0.00  0.00    +0.000 N 
ATOM     26  H   UNL     1       0.010   9.446  21.301  0.00  0.00    +0.000 HD
BRANCH  25  27
ATOM     27  C   UNL     1       0.838  11.257  20.704  0.00  0.00    +0.000 C 
BRANCH  27  28
ATOM     28  C   UNL     1      -0.623  11.771  20.727  0.00  0.00    +0.000 C 
BRANCH  28  30
ATOM     29  C   UNL     1      -2.701  12.219  19.523  0.00  0.00    +0.000 C 
ATOM     30  N   UNL     1      -1.320  11.739  19.418  0.00  0.00    +0.000 NA
ATOM     31  C   UNL     1      -0.592  12.568  18.450  0.00  0.00    +0.000 C 
ENDBRANCH  28  30
ENDBRANCH  27  28
ENDBRANCH  25  27
ENDBRANCH   1  25
TORSDOF 9
ENDMDL
MODEL 7
REMARK VINA RESULT:      -6.5      4.052      8.475
REMARK  Name = 
REMARK  11 active torsions:
REMARK  status: ('A' for Active; 'I' for Inactive)
REMARK    1  A    between atoms: C_1  and  N_2
REMARK    2  A    between atoms: N_2  and  C_3
REMARK    3  A    between atoms: N_2  and  C_4
REMARK    4  A    between atoms: C_4  and  C_5
REMARK    5  A    between atoms: C_5  and  N_6
REMARK    6  A    between atoms: N_6  and  C_7
REMARK    7  A    between atoms: N_15  and  C_16
REMARK    8  A    between atoms: N_18  and  C_19
REMARK    9  A    between atoms: C_19  and  C_20
REMARK   10  A    between atoms: C_26  and  C_27
REMARK   11  A    between atoms: C_27  and  O_28
REMARK                            x       y       z     vdW  Elec       q    Type
REMARK                         _______ _______ _______ _____ _____    ______ ____
ROOT
ATOM      1  C   UNL     1       1.406   9.158  20.052  0.00  0.00    +0.000 A 
ATOM      2  N   UNL     1       1.710   9.750  18.863  0.00  0.00    +0.000 NA
ATOM      3  C   UNL     1       2.168   8.988  17.852  0.00  0.00    +0.000 A 
ATOM      4  N   UNL     1       2.331   7.654  17.832  0.00  0.00    +0.000 NA
ATOM      5  C   UNL     1       2.049   7.106  19.020  0.00  0.00    +0.000 A 
ATOM      6  C   UNL     1       1.627   7.770  20.164  0.00  0.00    +0.000 A 
ATOM      7  N   UNL     1       1.461   6.881  21.205  0.00  0.00    +0.000 NA
ATOM      8  C   UNL     1       1.733   5.701  20.689  0.00  0.00    +0.000 A 
ATOM      9  N   UNL     1       2.073   5.776  19.359  0.00  0.00    +0.000 N 
ENDROOT
BRANCH   9  10
ATOM     10  C   UNL     1       2.142   4.650  18.435  0.00  0.00    +0.000 C 
ATOM     11  C   UNL     1       3.469   4.371  17.675  0.00  0.00    +0.000 C 
ATOM     12  N   UNL     1       4.517   3.660  18.436  0.00  0.00    +0.000 NA
ATOM     13  C   UNL     1       3.911   2.439  18.991  0.00  0.00    +0.000 C 
ATOM     14  C   UNL     1       2.550   2.594  19.711  0.00  0.00    +0.000 C 
ATOM     15  O   UNL     1       1.608   3.455  19.045  0.00  0.00    +0.000 OA
BRANCH  12  16
ATOM     16  C   UNL     1       5.152   4.547  19.422  0.00  0.00    +0.000 C 
BRANCH  16  17
ATOM     17  C   UNL     1       6.167   5.510  18.864  0.00  0.00    +0.000 A 
ATOM     18  C   UNL     1       7.439   5.809  19.301  0.00  0.00    +0.000 A 
ATOM     19  C   UNL     1       8.106   6.730  18.443  0.00  0.00    +0.000 A 
ATOM     20  C   UNL     1       7.320   7.106  17.376  0.00  0.00    +0.000 A 
ATOM     21  S   UNL     1       5.779   6.371  17.427  0.00  0.00    +0.000 S 
ENDBRANCH  16  17
ENDBRANCH  12  16
BRANCH  14  22
ATOM     22  C   UNL     1       2.654   2.915  21.207  0.00  0.00    +0.000 C 
BRANCH  22  23
ATOM     23  O   UNL     1       1.523   2.409  21.904  0.00  0.00    +0.000 OA
ATOM     24  H   UNL     1       1.831   1.665  22.451  0.00  0.00    +0.000 HD
ENDBRANCH  22  23
ENDBRANCH  14  22
ENDBRANCH   9  10
BRANCH   1  25
ATOM     25  N   UNL     1       0.886   9.920  21.105  0.00  0.00    +0.000 N 
ATOM     26  H   UNL     1       0.735   9.321  21.920  0.00  0.00    +0.000 HD
BRANCH  25  27
ATOM     27  C   UNL     1      -0.303  10.709  20.771  0.00  0.00    +0.000 C 
BRANCH  27  28
ATOM     28  C   UNL     1      -0.208  12.149  21.335  0.00  0.00    +0.000 C 
BRANCH  28  30
ATOM     29  C   UNL     1      -1.017  13.635  23.096  0.00  0.00    +0.000 C 
ATOM     30  N   UNL     1      -0.551  12.284  22.771  0.00  0.00    +0.000 NA
ATOM     31  C   UNL     1      -1.594  11.314  23.125  0.00  0.00    +0.000 C 
ENDBRANCH  28  30
ENDBRANCH  27  28
ENDBRANCH  25  27
ENDBRANCH   1  25
TORSDOF 9
ENDMDL
MODEL 8
REMARK VINA RESULT:      -6.5      1.107      1.387
REMARK  Name = 
REMARK  11 active torsions:
REMARK  status: ('A' for Active; 'I' for Inactive)
REMARK    1  A    between atoms: C_1  and  N_2
REMARK    2  A    between atoms: N_2  and  C_3
REMARK    3  A    between atoms: N_2  and  C_4
REMARK    4  A    between atoms: C_4  and  C_5
REMARK    5  A    between atoms: C_5  and  N_6
REMARK    6  A    between atoms: N_6  and  C_7
REMARK    7  A    between atoms: N_15  and  C_16
REMARK    8  A    between atoms: N_18  and  C_19
REMARK    9  A    between atoms: C_19  and  C_20
REMARK   10  A    between atoms: C_26  and  C_27
REMARK   11  A    between atoms: C_27  and  O_28
REMARK                            x       y       z     vdW  Elec       q    Type
REMARK                         _______ _______ _______ _____ _____    ______ ____
ROOT
ATOM      1  C   UNL     1       2.131   6.747  19.935  0.00  0.00    +0.000 A 
ATOM      2  N   UNL     1       2.502   6.783  18.624  0.00  0.00    +0.000 NA
ATOM      3  C   UNL     1       2.381   7.936  17.942  0.00  0.00    +0.000 A 
ATOM      4  N   UNL     1       1.971   9.130  18.403  0.00  0.00    +0.000 NA
ATOM      5  C   UNL     1       1.591   9.057  19.685  0.00  0.00    +0.000 A 
ATOM      6  C   UNL     1       1.602   7.929  20.494  0.00  0.00    +0.000 A 
ATOM      7  N   UNL     1       1.113   8.229  21.747  0.00  0.00    +0.000 NA
ATOM      8  C   UNL     1       0.855   9.519  21.711  0.00  0.00    +0.000 A 
ATOM      9  N   UNL     1       1.148  10.078  20.490  0.00  0.00    +0.000 N 
ENDROOT
BRANCH   9  10
ATOM     10  C   UNL     1       1.256  11.505  20.212  0.00  0.00    +0.000 C 
ATOM     11  C   UNL     1       0.671  12.067  18.886  0.00  0.00    +0.000 C 
ATOM     12  N   UNL     1      -0.789  12.292  18.863  0.00  0.00    +0.000 NA
ATOM     13  C   UNL     1      -1.129  13.119  20.032  0.00  0.00    +0.000 C 
ATOM     14  C   UNL     1      -0.541  12.685  21.395  0.00  0.00    +0.000 C 
ATOM     15  O   UNL     1       0.840  12.281  21.356  0.00  0.00    +0.000 OA
BRANCH  12  16
ATOM     16  C   UNL     1      -1.521  11.020  18.763  0.00  0.00    +0.000 C 
BRANCH  16  17
ATOM     17  C   UNL     1      -2.688  11.021  17.811  0.00  0.00    +0.000 A 
ATOM     18  C   UNL     1      -3.956  11.540  17.962  0.00  0.00    +0.000 A 
ATOM     19  C   UNL     1      -4.747  11.397  16.787  0.00  0.00    +0.000 A 
ATOM     20  C   UNL     1      -4.056  10.771  15.772  0.00  0.00    +0.000 A 
ATOM     21  S   UNL     1      -2.474  10.338  16.247  0.00  0.00    +0.000 S 
ENDBRANCH  16  17
ENDBRANCH  12  16
BRANCH  14  22
ATOM     22  C   UNL     1      -1.405  11.685  22.173  0.00  0.00    +0.000 C 
BRANCH  22  23
ATOM     23  O   UNL     1      -1.326  11.940  23.570  0.00  0.00    +0.000 OA
ATOM     24  H   UNL     1      -0.838  12.776  23.682  0.00  0.00    +0.000 HD
ENDBRANCH  22  23
ENDBRANCH  14  22
ENDBRANCH   9  10
BRANCH   1  25
ATOM     25  N   UNL     1       2.289   5.572  20.680  0.00  0.00    +0.000 N 
ATOM     26  H   UNL     1       3.174   5.125  20.430  0.00  0.00    +0.000 HD
BRANCH  25  27
ATOM     27  C   UNL     1       1.160   4.640  20.614  0.00  0.00    +0.000 C 
BRANCH  27  28
ATOM     28  C   UNL     1       1.607   3.183  20.894  0.00  0.00    +0.000 C 
BRANCH  28  30
ATOM     29  C   UNL     1       1.194   2.870  18.507  0.00  0.00    +0.000 C 
ATOM     30  N   UNL     1       1.912   2.378  19.687  0.00  0.00    +0.000 NA
ATOM     31  C   UNL     1       3.355   2.409  19.422  0.00  0.00    +0.000 C 
ENDBRANCH  28  30
ENDBRANCH  27  28
ENDBRANCH  25  27
ENDBRANCH   1  25
TORSDOF 9
ENDMDL
MODEL 9
REMARK VINA RESULT:      -6.5      4.214      8.488
REMARK  Name = 
REMARK  11 active torsions:
REMARK  status: ('A' for Active; 'I' for Inactive)
REMARK    1  A    between atoms: C_1  and  N_2
REMARK    2  A    between atoms: N_2  and  C_3
REMARK    3  A    between atoms: N_2  and  C_4
REMARK    4  A    between atoms: C_4  and  C_5
REMARK    5  A    between atoms: C_5  and  N_6
REMARK    6  A    between atoms: N_6  and  C_7
REMARK    7  A    between atoms: N_15  and  C_16
REMARK    8  A    between atoms: N_18  and  C_19
REMARK    9  A    between atoms: C_19  and  C_20
REMARK   10  A    between atoms: C_26  and  C_27
REMARK   11  A    between atoms: C_27  and  O_28
REMARK                            x       y       z     vdW  Elec       q    Type
REMARK                         _______ _______ _______ _____ _____    ______ ____
ROOT
ATOM      1  C   UNL     1       1.455   9.037  19.957  0.00  0.00    +0.000 A 
ATOM      2  N   UNL     1       1.756   9.605  18.755  0.00  0.00    +0.000 NA
ATOM      3  C   UNL     1       2.189   8.819  17.751  0.00  0.00    +0.000 A 
ATOM      4  N   UNL     1       2.329   7.483  17.750  0.00  0.00    +0.000 NA
ATOM      5  C   UNL     1       2.051   6.958  18.951  0.00  0.00    +0.000 A 
ATOM      6  C   UNL     1       1.654   7.647  20.088  0.00  0.00    +0.000 A 
ATOM      7  N   UNL     1       1.485   6.778  21.145  0.00  0.00    +0.000 NA
ATOM      8  C   UNL     1       1.730   5.585  20.645  0.00  0.00    +0.000 A 
ATOM      9  N   UNL     1       2.056   5.634  19.310  0.00  0.00    +0.000 N 
ENDROOT
BRANCH   9  10
ATOM     10  C   UNL     1       2.095   4.492  18.403  0.00  0.00    +0.000 C 
ATOM     11  C   UNL     1       3.382   4.225  17.573  0.00  0.00    +0.000 C 
ATOM     12  N   UNL     1       4.486   3.549  18.285  0.00  0.00    +0.000 NA
ATOM     13  C   UNL     1       3.937   2.327  18.896  0.00  0.00    +0.000 C 
ATOM     14  C   UNL     1       2.617   2.469  19.690  0.00  0.00    +0.000 C 
ATOM     15  O   UNL     1       1.622   3.299  19.063  0.00  0.00    +0.000 OA
BRANCH  12  16
ATOM     16  C   UNL     1       5.158   4.465  19.218  0.00  0.00    +0.000 C 
BRANCH  16  17
ATOM     17  C   UNL     1       6.034   5.509  18.577  0.00  0.00    +0.000 A 
ATOM     18  C   UNL     1       5.754   6.406  17.569  0.00  0.00    +0.000 A 
ATOM     19  C   UNL     1       6.844   7.282  17.300  0.00  0.00    +0.000 A 
ATOM     20  C   UNL     1       7.926   7.026  18.114  0.00  0.00    +0.000 A 
ATOM     21  S   UNL     1       7.633   5.720  19.175  0.00  0.00    +0.000 S 
ENDBRANCH  16  17
ENDBRANCH  12  16
BRANCH  14  22
ATOM     22  C   UNL     1       2.800   2.819  21.171  0.00  0.00    +0.000 C 
BRANCH  22  23
ATOM     23  O   UNL     1       1.678   2.382  21.928  0.00  0.00    +0.000 OA
ATOM     24  H   UNL     1       0.945   2.244  21.302  0.00  0.00    +0.000 HD
ENDBRANCH  22  23
ENDBRANCH  14  22
ENDBRANCH   9  10
BRANCH   1  25
ATOM     25  N   UNL     1       0.960   9.825  21.003  0.00  0.00    +0.000 N 
ATOM     26  H   UNL     1       0.217   9.319  21.490  0.00  0.00    +0.000 HD
BRANCH  25  27
ATOM     27  C   UNL     1       0.549  11.178  20.620  0.00  0.00    +0.000 C 
BRANCH  27  28
ATOM     28  C   UNL     1      -0.985  11.364  20.744  0.00  0.00    +0.000 C 
BRANCH  28  30
ATOM     29  C   UNL     1      -1.904  11.815  22.961  0.00  0.00    +0.000 C 
ATOM     30  N   UNL     1      -1.414  12.403  21.711  0.00  0.00    +0.000 NA
ATOM     31  C   UNL     1      -0.291  13.300  22.005  0.00  0.00    +0.000 C 
ENDBRANCH  28  30
ENDBRANCH  27  28
ENDBRANCH  25  27
ENDBRANCH   1  25
TORSDOF 9
ENDMDL
