MODEL 1
REMARK VINA RESULT:      -7.4      0.000      0.000
REMARK  Name = 
REMARK  5 active torsions:
REMARK  status: ('A' for Active; 'I' for Inactive)
REMARK    1  A    between atoms: C_1  and  C_2
REMARK    2  A    between atoms: N_7  and  C_8
REMARK    3  A    between atoms: C_8  and  C_9
REMARK    4  A    between atoms: C_19  and  C_20
REMARK    5  A    between atoms: N_25  and  C_26
REMARK                            x       y       z     vdW  Elec       q    Type
REMARK                         _______ _______ _______ _____ _____    ______ ____
ROOT
ATOM      1  C   UNL     1       3.318  18.536  21.112  0.00  0.00    +0.000 C 
ATOM      2  C   UNL     1       4.316  17.796  20.273  0.00  0.00    +0.000 A 
ATOM      3  N   UNL     1       5.615  18.049  20.608  0.00  0.00    +0.000 NA
ATOM      4  C   UNL     1       6.583  17.383  19.942  0.00  0.00    +0.000 A 
ATOM      5  C   UNL     1       7.942  17.582  20.415  0.00  0.00    +0.000 A 
ATOM      6  C   UNL     1       8.924  16.841  19.894  0.00  0.00    +0.000 A 
ATOM      7  N   UNL     1       8.701  15.923  18.881  0.00  0.00    +0.000 N 
ATOM      8  C   UNL     1       7.436  15.738  18.307  0.00  0.00    +0.000 A 
ATOM      9  O   UNL     1       7.196  14.962  17.380  0.00  0.00    +0.000 OA
ATOM     10  C   UNL     1       6.325  16.518  18.894  0.00  0.00    +0.000 A 
ATOM     11  C   UNL     1       5.006  16.344  18.488  0.00  0.00    +0.000 A 
ATOM     12  C   UNL     1       3.967  16.917  19.236  0.00  0.00    +0.000 A 
ENDROOT
BRANCH  12  13
ATOM     13  C   UNL     1       2.549  16.603  18.895  0.00  0.00    +0.000 C 
ATOM     14  O   UNL     1       2.019  17.250  17.994  0.00  0.00    +0.000 OA
ATOM     15  N   UNL     1       1.886  15.568  19.556  0.00  0.00    +0.000 N 
ATOM     16  C   UNL     1       0.561  15.137  19.074  0.00  0.00    +0.000 C 
ATOM     17  C   UNL     1       0.444  13.594  19.046  0.00  0.00    +0.000 C 
ATOM     18  N   UNL     1       0.782  13.063  20.385  0.00  0.00    +0.000 N 
ATOM     19  C   UNL     1       2.136  13.459  20.845  0.00  0.00    +0.000 C 
ATOM     20  C   UNL     1       2.228  14.995  20.873  0.00  0.00    +0.000 C 
BRANCH  18  21
ATOM     21  C   UNL     1       0.380  11.793  20.783  0.00  0.00    +0.000 A 
ATOM     22  C   UNL     1      -0.139  11.484  22.048  0.00  0.00    +0.000 A 
ATOM     23  C   UNL     1      -0.531  10.175  22.370  0.00  0.00    +0.000 A 
ATOM     24  C   UNL     1      -0.391   9.160  21.430  0.00  0.00    +0.000 A 
ATOM     25  F   UNL     1      -0.766   7.911  21.736  0.00  0.00    +0.000 F 
ATOM     26  C   UNL     1       0.137   9.425  20.179  0.00  0.00    +0.000 A 
ATOM     27  C   UNL     1       0.522  10.730  19.869  0.00  0.00    +0.000 A 
ENDBRANCH  18  21
ENDBRANCH  12  13
BRANCH   7  28
ATOM     28  C   UNL     1       9.830  15.161  18.353  0.00  0.00    +0.000 C 
BRANCH  28  29
ATOM     29  C   UNL     1       9.844  13.701  18.753  0.00  0.00    +0.000 A 
ATOM     30  C   UNL     1       9.818  12.697  17.774  0.00  0.00    +0.000 A 
ATOM     31  C   UNL     1       9.975  11.354  18.127  0.00  0.00    +0.000 A 
ATOM     32  C   UNL     1      10.139  10.998  19.464  0.00  0.00    +0.000 A 
ATOM     33  C   UNL     1      10.113  11.979  20.453  0.00  0.00    +0.000 A 
ATOM     34  C   UNL     1       9.957  13.324  20.100  0.00  0.00    +0.000 A 
ENDBRANCH  28  29
ENDBRANCH   7  28
TORSDOF 4
ENDMDL
MODEL 2
REMARK VINA RESULT:      -7.3      6.024      8.040
REMARK  Name = 
REMARK  5 active torsions:
REMARK  status: ('A' for Active; 'I' for Inactive)
REMARK    1  A    between atoms: C_1  and  C_2
REMARK    2  A    between atoms: N_7  and  C_8
REMARK    3  A    between atoms: C_8  and  C_9
REMARK    4  A    between atoms: C_19  and  C_20
REMARK    5  A    between atoms: N_25  and  C_26
REMARK                            x       y       z     vdW  Elec       q    Type
REMARK                         _______ _______ _______ _____ _____    ______ ____
ROOT
ATOM      1  C   UNL     1      -1.138   9.865  21.927  0.00  0.00    +0.000 C 
ATOM      2  C   UNL     1      -0.128   9.449  20.902  0.00  0.00    +0.000 A 
ATOM      3  N   UNL     1       0.579   8.331  21.244  0.00  0.00    +0.000 NA
ATOM      4  C   UNL     1       1.475   7.850  20.356  0.00  0.00    +0.000 A 
ATOM      5  C   UNL     1       2.110   6.590  20.702  0.00  0.00    +0.000 A 
ATOM      6  C   UNL     1       2.892   5.990  19.800  0.00  0.00    +0.000 A 
ATOM      7  N   UNL     1       3.160   6.552  18.562  0.00  0.00    +0.000 N 
ATOM      8  C   UNL     1       2.660   7.807  18.188  0.00  0.00    +0.000 A 
ATOM      9  O   UNL     1       2.902   8.363  17.114  0.00  0.00    +0.000 OA
ATOM     10  C   UNL     1       1.760   8.472  19.154  0.00  0.00    +0.000 A 
ATOM     11  C   UNL     1       1.111   9.667  18.856  0.00  0.00    +0.000 A 
ATOM     12  C   UNL     1       0.086  10.129  19.693  0.00  0.00    +0.000 A 
ENDROOT
BRANCH  12  13
ATOM     13  C   UNL     1      -0.714  11.323  19.294  0.00  0.00    +0.000 C 
ATOM     14  O   UNL     1      -1.429  11.228  18.298  0.00  0.00    +0.000 OA
ATOM     15  N   UNL     1      -0.677  12.480  20.074  0.00  0.00    +0.000 N 
ATOM     16  C   UNL     1      -1.620  13.575  19.786  0.00  0.00    +0.000 C 
ATOM     17  C   UNL     1      -2.234  14.150  21.085  0.00  0.00    +0.000 C 
ATOM     18  N   UNL     1      -1.139  14.545  21.998  0.00  0.00    +0.000 N 
ATOM     19  C   UNL     1      -0.220  13.427  22.326  0.00  0.00    +0.000 C 
ATOM     20  C   UNL     1       0.384  12.876  21.021  0.00  0.00    +0.000 C 
BRANCH  18  21
ATOM     21  C   UNL     1      -1.350  15.448  23.035  0.00  0.00    +0.000 A 
ATOM     22  C   UNL     1      -1.744  16.781  22.859  0.00  0.00    +0.000 A 
ATOM     23  C   UNL     1      -1.945  17.627  23.961  0.00  0.00    +0.000 A 
ATOM     24  C   UNL     1      -1.736  17.148  25.249  0.00  0.00    +0.000 A 
ATOM     25  F   UNL     1      -1.930  17.954  26.301  0.00  0.00    +0.000 F 
ATOM     26  C   UNL     1      -1.327  15.842  25.458  0.00  0.00    +0.000 A 
ATOM     27  C   UNL     1      -1.132  15.010  24.356  0.00  0.00    +0.000 A 
ENDBRANCH  18  21
ENDBRANCH  12  13
BRANCH   7  28
ATOM     28  C   UNL     1       4.037   5.841  17.636  0.00  0.00    +0.000 C 
BRANCH  28  29
ATOM     29  C   UNL     1       5.516   6.070  17.872  0.00  0.00    +0.000 A 
ATOM     30  C   UNL     1       6.195   7.087  17.185  0.00  0.00    +0.000 A 
ATOM     31  C   UNL     1       7.520   7.397  17.501  0.00  0.00    +0.000 A 
ATOM     32  C   UNL     1       8.188   6.681  18.493  0.00  0.00    +0.000 A 
ATOM     33  C   UNL     1       7.543   5.632  19.146  0.00  0.00    +0.000 A 
ATOM     34  C   UNL     1       6.216   5.322  18.831  0.00  0.00    +0.000 A 
ENDBRANCH  28  29
ENDBRANCH   7  28
TORSDOF 4
ENDMDL
MODEL 3
REMARK VINA RESULT:      -7.2      3.263      9.257
REMARK  Name = 
REMARK  5 active torsions:
REMARK  status: ('A' for Active; 'I' for Inactive)
REMARK    1  A    between atoms: C_1  and  C_2
REMARK    2  A    between atoms: N_7  and  C_8
REMARK    3  A    between atoms: C_8  and  C_9
REMARK    4  A    between atoms: C_19  and  C_20
REMARK    5  A    between atoms: N_25  and  C_26
REMARK                            x       y       z     vdW  Elec       q    Type
REMARK                         _______ _______ _______ _____ _____    ______ ____
ROOT
ATOM      1  C   UNL     1       2.952  17.261  16.797  0.00  0.00    +0.000 C 
ATOM      2  C   UNL     1       2.604  16.529  18.056  0.00  0.00    +0.000 A 
ATOM      3  N   UNL     1       1.379  15.924  18.023  0.00  0.00    +0.000 NA
ATOM      4  C   UNL     1       1.003  15.194  19.095  0.00  0.00    +0.000 A 
ATOM      5  C   UNL     1      -0.246  14.463  18.968  0.00  0.00    +0.000 A 
ATOM      6  C   UNL     1      -0.597  13.609  19.934  0.00  0.00    +0.000 A 
ATOM      7  N   UNL     1       0.164  13.432  21.078  0.00  0.00    +0.000 N 
ATOM      8  C   UNL     1       1.333  14.166  21.318  0.00  0.00    +0.000 A 
ATOM      9  O   UNL     1       2.021  14.071  22.337  0.00  0.00    +0.000 OA
ATOM     10  C   UNL     1       1.763  15.089  20.246  0.00  0.00    +0.000 A 
ATOM     11  C   UNL     1       2.963  15.791  20.314  0.00  0.00    +0.000 A 
ATOM     12  C   UNL     1       3.445  16.455  19.177  0.00  0.00    +0.000 A 
ENDROOT
BRANCH  12  13
ATOM     13  C   UNL     1       4.802  17.075  19.202  0.00  0.00    +0.000 C 
ATOM     14  O   UNL     1       4.918  18.179  19.729  0.00  0.00    +0.000 OA
ATOM     15  N   UNL     1       5.896  16.380  18.685  0.00  0.00    +0.000 N 
ATOM     16  C   UNL     1       7.255  16.912  18.896  0.00  0.00    +0.000 C 
ATOM     17  C   UNL     1       8.245  15.792  19.297  0.00  0.00    +0.000 C 
ATOM     18  N   UNL     1       8.189  14.717  18.283  0.00  0.00    +0.000 N 
ATOM     19  C   UNL     1       6.828  14.149  18.109  0.00  0.00    +0.000 C 
ATOM     20  C   UNL     1       5.862  15.277  17.703  0.00  0.00    +0.000 C 
BRANCH  18  21
ATOM     21  C   UNL     1       9.225  13.800  18.140  0.00  0.00    +0.000 A 
ATOM     22  C   UNL     1      10.424  14.056  17.463  0.00  0.00    +0.000 A 
ATOM     23  C   UNL     1      11.426  13.077  17.371  0.00  0.00    +0.000 A 
ATOM     24  C   UNL     1      11.227  11.826  17.945  0.00  0.00    +0.000 A 
ATOM     25  F   UNL     1      12.184  10.893  17.859  0.00  0.00    +0.000 F 
ATOM     26  C   UNL     1      10.047  11.533  18.604  0.00  0.00    +0.000 A 
ATOM     27  C   UNL     1       9.058  12.513  18.690  0.00  0.00    +0.000 A 
ENDBRANCH  18  21
ENDBRANCH  12  13
BRANCH   7  28
ATOM     28  C   UNL     1      -0.296  12.490  22.096  0.00  0.00    +0.000 C 
BRANCH  28  29
ATOM     29  C   UNL     1      -1.502  12.957  22.884  0.00  0.00    +0.000 A 
ATOM     30  C   UNL     1      -2.633  12.135  23.002  0.00  0.00    +0.000 A 
ATOM     31  C   UNL     1      -3.690  12.495  23.842  0.00  0.00    +0.000 A 
ATOM     32  C   UNL     1      -3.636  13.689  24.559  0.00  0.00    +0.000 A 
ATOM     33  C   UNL     1      -2.543  14.540  24.411  0.00  0.00    +0.000 A 
ATOM     34  C   UNL     1      -1.484  14.180  23.570  0.00  0.00    +0.000 A 
ENDBRANCH  28  29
ENDBRANCH   7  28
TORSDOF 4
ENDMDL
MODEL 4
REMARK VINA RESULT:      -7.2      5.618     10.389
REMARK  Name = 
REMARK  5 active torsions:
REMARK  status: ('A' for Active; 'I' for Inactive)
REMARK    1  A    between atoms: C_1  and  C_2
REMARK    2  A    between atoms: N_7  and  C_8
REMARK    3  A    between atoms: C_8  and  C_9
REMARK    4  A    between atoms: C_19  and  C_20
REMARK    5  A    between atoms: N_25  and  C_26
REMARK                            x       y       z     vdW  Elec       q    Type
REMARK                         _______ _______ _______ _____ _____    ______ ____
ROOT
ATOM      1  C   UNL     1       2.177  13.398  20.425  0.00  0.00    +0.000 C 
ATOM      2  C   UNL     1       0.806  13.203  20.998  0.00  0.00    +0.000 A 
ATOM      3  N   UNL     1       0.585  13.900  22.152  0.00  0.00    +0.000 NA
ATOM      4  C   UNL     1      -0.642  13.828  22.711  0.00  0.00    +0.000 A 
ATOM      5  C   UNL     1      -0.875  14.684  23.862  0.00  0.00    +0.000 A 
ATOM      6  C   UNL     1      -2.109  14.768  24.367  0.00  0.00    +0.000 A 
ATOM      7  N   UNL     1      -3.167  14.028  23.863  0.00  0.00    +0.000 N 
ATOM      8  C   UNL     1      -3.005  13.112  22.815  0.00  0.00    +0.000 A 
ATOM      9  O   UNL     1      -3.907  12.406  22.360  0.00  0.00    +0.000 OA
ATOM     10  C   UNL     1      -1.657  13.031  22.213  0.00  0.00    +0.000 A 
ATOM     11  C   UNL     1      -1.394  12.243  21.097  0.00  0.00    +0.000 A 
ATOM     12  C   UNL     1      -0.177  12.387  20.416  0.00  0.00    +0.000 A 
ENDROOT
BRANCH  12  13
ATOM     13  C   UNL     1       0.044  11.659  19.133  0.00  0.00    +0.000 C 
ATOM     14  O   UNL     1      -0.055  12.298  18.087  0.00  0.00    +0.000 OA
ATOM     15  N   UNL     1       0.403  10.311  19.148  0.00  0.00    +0.000 N 
ATOM     16  C   UNL     1       0.814   9.659  17.891  0.00  0.00    +0.000 C 
ATOM     17  C   UNL     1       2.061   8.766  18.098  0.00  0.00    +0.000 C 
ATOM     18  N   UNL     1       1.788   7.808  19.193  0.00  0.00    +0.000 N 
ATOM     19  C   UNL     1       1.423   8.470  20.470  0.00  0.00    +0.000 C 
ATOM     20  C   UNL     1       0.178   9.346  20.243  0.00  0.00    +0.000 C 
BRANCH  18  21
ATOM     21  C   UNL     1       2.527   6.639  19.334  0.00  0.00    +0.000 A 
ATOM     22  C   UNL     1       3.694   6.346  18.617  0.00  0.00    +0.000 A 
ATOM     23  C   UNL     1       4.389   5.143  18.824  0.00  0.00    +0.000 A 
ATOM     24  C   UNL     1       3.908   4.216  19.742  0.00  0.00    +0.000 A 
ATOM     25  F   UNL     1       4.571   3.069  19.941  0.00  0.00    +0.000 F 
ATOM     26  C   UNL     1       2.747   4.464  20.452  0.00  0.00    +0.000 A 
ATOM     27  C   UNL     1       2.065   5.662  20.239  0.00  0.00    +0.000 A 
ENDBRANCH  18  21
ENDBRANCH  12  13
BRANCH   7  28
ATOM     28  C   UNL     1      -4.483  14.165  24.481  0.00  0.00    +0.000 C 
BRANCH  28  29
ATOM     29  C   UNL     1      -5.358  15.236  23.864  0.00  0.00    +0.000 A 
ATOM     30  C   UNL     1      -6.339  14.895  22.921  0.00  0.00    +0.000 A 
ATOM     31  C   UNL     1      -7.242  15.854  22.456  0.00  0.00    +0.000 A 
ATOM     32  C   UNL     1      -7.164  17.168  22.912  0.00  0.00    +0.000 A 
ATOM     33  C   UNL     1      -6.161  17.533  23.809  0.00  0.00    +0.000 A 
ATOM     34  C   UNL     1      -5.257  16.574  24.276  0.00  0.00    +0.000 A 
ENDBRANCH  28  29
ENDBRANCH   7  28
TORSDOF 4
ENDMDL
MODEL 5
REMARK VINA RESULT:      -7.1      6.501      8.872
REMARK  Name = 
REMARK  5 active torsions:
REMARK  status: ('A' for Active; 'I' for Inactive)
REMARK    1  A    between atoms: C_1  and  C_2
REMARK    2  A    between atoms: N_7  and  C_8
REMARK    3  A    between atoms: C_8  and  C_9
REMARK    4  A    between atoms: C_19  and  C_20
REMARK    5  A    between atoms: N_25  and  C_26
REMARK                            x       y       z     vdW  Elec       q    Type
REMARK                         _______ _______ _______ _____ _____    ______ ____
ROOT
ATOM      1  C   UNL     1      -1.106  10.529  22.023  0.00  0.00    +0.000 C 
ATOM      2  C   UNL     1      -0.160  10.002  20.989  0.00  0.00    +0.000 A 
ATOM      3  N   UNL     1       0.445   8.829  21.340  0.00  0.00    +0.000 NA
ATOM      4  C   UNL     1       1.274   8.249  20.445  0.00  0.00    +0.000 A 
ATOM      5  C   UNL     1       1.794   6.941  20.804  0.00  0.00    +0.000 A 
ATOM      6  C   UNL     1       2.498   6.254  19.900  0.00  0.00    +0.000 A 
ATOM      7  N   UNL     1       2.794   6.767  18.647  0.00  0.00    +0.000 N 
ATOM      8  C   UNL     1       2.409   8.057  18.258  0.00  0.00    +0.000 A 
ATOM      9  O   UNL     1       2.682   8.569  17.171  0.00  0.00    +0.000 OA
ATOM     10  C   UNL     1       1.594   8.821  19.227  0.00  0.00    +0.000 A 
ATOM     11  C   UNL     1       1.056  10.067  18.918  0.00  0.00    +0.000 A 
ATOM     12  C   UNL     1       0.095  10.638  19.764  0.00  0.00    +0.000 A 
ENDROOT
BRANCH  12  13
ATOM     13  C   UNL     1      -0.596  11.896  19.356  0.00  0.00    +0.000 C 
ATOM     14  O   UNL     1      -1.309  11.860  18.355  0.00  0.00    +0.000 OA
ATOM     15  N   UNL     1      -0.464  13.047  20.134  0.00  0.00    +0.000 N 
ATOM     16  C   UNL     1      -1.307  14.220  19.836  0.00  0.00    +0.000 C 
ATOM     17  C   UNL     1      -1.878  14.849  21.129  0.00  0.00    +0.000 C 
ATOM     18  N   UNL     1      -0.759  15.151  22.049  0.00  0.00    +0.000 N 
ATOM     19  C   UNL     1       0.057  13.958  22.386  0.00  0.00    +0.000 C 
ATOM     20  C   UNL     1       0.620  13.353  21.088  0.00  0.00    +0.000 C 
BRANCH  18  21
ATOM     21  C   UNL     1      -0.899  16.071  23.082  0.00  0.00    +0.000 A 
ATOM     22  C   UNL     1      -0.814  17.461  22.925  0.00  0.00    +0.000 A 
ATOM     23  C   UNL     1      -0.975  18.325  24.020  0.00  0.00    +0.000 A 
ATOM     24  C   UNL     1      -1.207  17.801  25.286  0.00  0.00    +0.000 A 
ATOM     25  F   UNL     1      -1.363  18.624  26.331  0.00  0.00    +0.000 F 
ATOM     26  C   UNL     1      -1.277  16.433  25.481  0.00  0.00    +0.000 A 
ATOM     27  C   UNL     1      -1.116  15.583  24.386  0.00  0.00    +0.000 A 
ENDBRANCH  18  21
ENDBRANCH  12  13
BRANCH   7  28
ATOM     28  C   UNL     1       3.583   5.960  17.720  0.00  0.00    +0.000 C 
BRANCH  28  29
ATOM     29  C   UNL     1       3.525   4.469  17.980  0.00  0.00    +0.000 A 
ATOM     30  C   UNL     1       4.399   3.874  18.902  0.00  0.00    +0.000 A 
ATOM     31  C   UNL     1       4.257   2.529  19.251  0.00  0.00    +0.000 A 
ATOM     32  C   UNL     1       3.253   1.758  18.670  0.00  0.00    +0.000 A 
ATOM     33  C   UNL     1       2.411   2.321  17.713  0.00  0.00    +0.000 A 
ATOM     34  C   UNL     1       2.552   3.668  17.363  0.00  0.00    +0.000 A 
ENDBRANCH  28  29
ENDBRANCH   7  28
TORSDOF 4
ENDMDL
MODEL 6
REMARK VINA RESULT:      -7.1      2.789      3.392
REMARK  Name = 
REMARK  5 active torsions:
REMARK  status: ('A' for Active; 'I' for Inactive)
REMARK    1  A    between atoms: C_1  and  C_2
REMARK    2  A    between atoms: N_7  and  C_8
REMARK    3  A    between atoms: C_8  and  C_9
REMARK    4  A    between atoms: C_19  and  C_20
REMARK    5  A    between atoms: N_25  and  C_26
REMARK                            x       y       z     vdW  Elec       q    Type
REMARK                         _______ _______ _______ _____ _____    ______ ____
ROOT
ATOM      1  C   UNL     1       2.097  17.006  19.692  0.00  0.00    +0.000 C 
ATOM      2  C   UNL     1       3.264  16.254  20.254  0.00  0.00    +0.000 A 
ATOM      3  N   UNL     1       4.475  16.685  19.791  0.00  0.00    +0.000 NA
ATOM      4  C   UNL     1       5.588  16.101  20.285  0.00  0.00    +0.000 A 
ATOM      5  C   UNL     1       6.855  16.675  19.865  0.00  0.00    +0.000 A 
ATOM      6  C   UNL     1       7.983  16.238  20.433  0.00  0.00    +0.000 A 
ATOM      7  N   UNL     1       7.993  15.220  21.373  0.00  0.00    +0.000 N 
ATOM      8  C   UNL     1       6.824  14.552  21.762  0.00  0.00    +0.000 A 
ATOM      9  O   UNL     1       6.788  13.617  22.565  0.00  0.00    +0.000 OA
ATOM     10  C   UNL     1       5.558  15.045  21.178  0.00  0.00    +0.000 A 
ATOM     11  C   UNL     1       4.320  14.541  21.567  0.00  0.00    +0.000 A 
ATOM     12  C   UNL     1       3.147  15.201  21.175  0.00  0.00    +0.000 A 
ENDROOT
BRANCH  12  13
ATOM     13  C   UNL     1       1.831  14.756  21.718  0.00  0.00    +0.000 C 
ATOM     14  O   UNL     1       1.379  15.357  22.691  0.00  0.00    +0.000 OA
ATOM     15  N   UNL     1       1.131  13.724  21.092  0.00  0.00    +0.000 N 
ATOM     16  C   UNL     1      -0.251  13.430  21.512  0.00  0.00    +0.000 C 
ATOM     17  C   UNL     1      -1.175  13.193  20.293  0.00  0.00    +0.000 C 
ATOM     18  N   UNL     1      -0.584  12.136  19.443  0.00  0.00    +0.000 N 
ATOM     19  C   UNL     1       0.789  12.459  18.981  0.00  0.00    +0.000 C 
ATOM     20  C   UNL     1       1.691  12.683  20.208  0.00  0.00    +0.000 C 
BRANCH  18  21
ATOM     21  C   UNL     1      -1.355  11.427  18.528  0.00  0.00    +0.000 A 
ATOM     22  C   UNL     1      -0.914  10.298  17.825  0.00  0.00    +0.000 A 
ATOM     23  C   UNL     1      -1.759   9.632  16.922  0.00  0.00    +0.000 A 
ATOM     24  C   UNL     1      -3.049  10.103  16.705  0.00  0.00    +0.000 A 
ATOM     25  F   UNL     1      -3.856   9.467  15.847  0.00  0.00    +0.000 F 
ATOM     26  C   UNL     1      -3.510  11.227  17.368  0.00  0.00    +0.000 A 
ATOM     27  C   UNL     1      -2.662  11.881  18.262  0.00  0.00    +0.000 A 
ENDBRANCH  18  21
ENDBRANCH  12  13
BRANCH   7  28
ATOM     28  C   UNL     1       9.269  14.788  21.935  0.00  0.00    +0.000 C 
BRANCH  28  29
ATOM     29  C   UNL     1      10.032  13.801  21.077  0.00  0.00    +0.000 A 
ATOM     30  C   UNL     1      11.087  14.237  20.261  0.00  0.00    +0.000 A 
ATOM     31  C   UNL     1      11.885  13.317  19.578  0.00  0.00    +0.000 A 
ATOM     32  C   UNL     1      11.628  11.952  19.686  0.00  0.00    +0.000 A 
ATOM     33  C   UNL     1      10.550  11.507  20.450  0.00  0.00    +0.000 A 
ATOM     34  C   UNL     1       9.751  12.428  21.135  0.00  0.00    +0.000 A 
ENDBRANCH  28  29
ENDBRANCH   7  28
TORSDOF 4
ENDMDL
MODEL 7
REMARK VINA RESULT:      -6.9      5.730      8.365
REMARK  Name = 
REMARK  5 active torsions:
REMARK  status: ('A' for Active; 'I' for Inactive)
REMARK    1  A    between atoms: C_1  and  C_2
REMARK    2  A    between atoms: N_7  and  C_8
REMARK    3  A    between atoms: C_8  and  C_9
REMARK    4  A    between atoms: C_19  and  C_20
REMARK    5  A    between atoms: N_25  and  C_26
REMARK                            x       y       z     vdW  Elec       q    Type
REMARK                         _______ _______ _______ _____ _____    ______ ____
ROOT
ATOM      1  C   UNL     1       2.121  13.302  18.040  0.00  0.00    +0.000 C 
ATOM      2  C   UNL     1       1.850  12.014  18.755  0.00  0.00    +0.000 A 
ATOM      3  N   UNL     1       2.122  10.901  18.010  0.00  0.00    +0.000 NA
ATOM      4  C   UNL     1       1.960   9.693  18.592  0.00  0.00    +0.000 A 
ATOM      5  C   UNL     1       2.383   8.542  17.812  0.00  0.00    +0.000 A 
ATOM      6  C   UNL     1       2.385   7.336  18.387  0.00  0.00    +0.000 A 
ATOM      7  N   UNL     1       1.951   7.135  19.688  0.00  0.00    +0.000 N 
ATOM      8  C   UNL     1       1.442   8.177  20.474  0.00  0.00    +0.000 A 
ATOM      9  O   UNL     1       1.010   8.040  21.621  0.00  0.00    +0.000 OA
ATOM     10  C   UNL     1       1.466   9.529  19.873  0.00  0.00    +0.000 A 
ATOM     11  C   UNL     1       1.093  10.662  20.590  0.00  0.00    +0.000 A 
ATOM     12  C   UNL     1       1.365  11.934  20.069  0.00  0.00    +0.000 A 
ENDROOT
BRANCH  12  13
ATOM     13  C   UNL     1       1.109  13.145  20.902  0.00  0.00    +0.000 C 
ATOM     14  O   UNL     1       1.888  14.090  20.795  0.00  0.00    +0.000 OA
ATOM     15  N   UNL     1      -0.016  13.199  21.727  0.00  0.00    +0.000 N 
ATOM     16  C   UNL     1      -0.366  14.470  22.387  0.00  0.00    +0.000 C 
ATOM     17  C   UNL     1      -1.886  14.751  22.304  0.00  0.00    +0.000 C 
ATOM     18  N   UNL     1      -2.618  13.586  22.848  0.00  0.00    +0.000 N 
ATOM     19  C   UNL     1      -2.300  12.317  22.148  0.00  0.00    +0.000 C 
ATOM     20  C   UNL     1      -0.787  12.054  22.250  0.00  0.00    +0.000 C 
BRANCH  18  21
ATOM     21  C   UNL     1      -3.935  13.697  23.283  0.00  0.00    +0.000 A 
ATOM     22  C   UNL     1      -4.692  12.638  23.799  0.00  0.00    +0.000 A 
ATOM     23  C   UNL     1      -6.016  12.835  24.225  0.00  0.00    +0.000 A 
ATOM     24  C   UNL     1      -6.596  14.094  24.123  0.00  0.00    +0.000 A 
ATOM     25  F   UNL     1      -7.857  14.283  24.531  0.00  0.00    +0.000 F 
ATOM     26  C   UNL     1      -5.883  15.158  23.599  0.00  0.00    +0.000 A 
ATOM     27  C   UNL     1      -4.569  14.951  23.179  0.00  0.00    +0.000 A 
ENDBRANCH  18  21
ENDBRANCH  12  13
BRANCH   7  28
ATOM     28  C   UNL     1       1.970   5.783  20.240  0.00  0.00    +0.000 C 
BRANCH  28  29
ATOM     29  C   UNL     1       2.626   4.750  19.347  0.00  0.00    +0.000 A 
ATOM     30  C   UNL     1       1.859   4.015  18.431  0.00  0.00    +0.000 A 
ATOM     31  C   UNL     1       2.474   3.165  17.508  0.00  0.00    +0.000 A 
ATOM     32  C   UNL     1       3.861   3.027  17.502  0.00  0.00    +0.000 A 
ATOM     33  C   UNL     1       4.631   3.710  18.441  0.00  0.00    +0.000 A 
ATOM     34  C   UNL     1       4.016   4.562  19.365  0.00  0.00    +0.000 A 
ENDBRANCH  28  29
ENDBRANCH   7  28
TORSDOF 4
ENDMDL
MODEL 8
REMARK VINA RESULT:      -6.9      6.749      8.590
REMARK  Name = 
REMARK  5 active torsions:
REMARK  status: ('A' for Active; 'I' for Inactive)
REMARK    1  A    between atoms: C_1  and  C_2
REMARK    2  A    between atoms: N_7  and  C_8
REMARK    3  A    between atoms: C_8  and  C_9
REMARK    4  A    between atoms: C_19  and  C_20
REMARK    5  A    between atoms: N_25  and  C_26
REMARK                            x       y       z     vdW  Elec       q    Type
REMARK                         _______ _______ _______ _____ _____    ______ ____
ROOT
ATOM      1  C   UNL     1       0.858  12.091  19.120  0.00  0.00    +0.000 C 
ATOM      2  C   UNL     1       1.131  10.635  19.348  0.00  0.00    +0.000 A 
ATOM      3  N   UNL     1       1.799  10.031  18.322  0.00  0.00    +0.000 NA
ATOM      4  C   UNL     1       2.137   8.731  18.463  0.00  0.00    +0.000 A 
ATOM      5  C   UNL     1       2.959   8.163  17.408  0.00  0.00    +0.000 A 
ATOM      6  C   UNL     1       3.447   6.928  17.562  0.00  0.00    +0.000 A 
ATOM      7  N   UNL     1       3.156   6.150  18.671  0.00  0.00    +0.000 N 
ATOM      8  C   UNL     1       2.298   6.590  19.687  0.00  0.00    +0.000 A 
ATOM      9  O   UNL     1       1.981   5.921  20.672  0.00  0.00    +0.000 OA
ATOM     10  C   UNL     1       1.777   7.968  19.559  0.00  0.00    +0.000 A 
ATOM     11  C   UNL     1       1.006   8.562  20.554  0.00  0.00    +0.000 A 
ATOM     12  C   UNL     1       0.746   9.938  20.504  0.00  0.00    +0.000 A 
ENDROOT
BRANCH  12  13
ATOM     13  C   UNL     1       0.055  10.603  21.647  0.00  0.00    +0.000 C 
ATOM     14  O   UNL     1       0.627  10.613  22.735  0.00  0.00    +0.000 OA
ATOM     15  N   UNL     1      -1.174  11.233  21.448  0.00  0.00    +0.000 N 
ATOM     16  C   UNL     1      -1.747  12.056  22.529  0.00  0.00    +0.000 C 
ATOM     17  C   UNL     1      -2.324  13.384  21.984  0.00  0.00    +0.000 C 
ATOM     18  N   UNL     1      -3.290  13.080  20.905  0.00  0.00    +0.000 N 
ATOM     19  C   UNL     1      -2.696  12.294  19.794  0.00  0.00    +0.000 C 
ATOM     20  C   UNL     1      -2.136  10.976  20.357  0.00  0.00    +0.000 C 
BRANCH  18  21
ATOM     21  C   UNL     1      -4.254  14.003  20.514  0.00  0.00    +0.000 A 
ATOM     22  C   UNL     1      -4.221  15.368  20.827  0.00  0.00    +0.000 A 
ATOM     23  C   UNL     1      -5.231  16.237  20.386  0.00  0.00    +0.000 A 
ATOM     24  C   UNL     1      -6.295  15.740  19.641  0.00  0.00    +0.000 A 
ATOM     25  F   UNL     1      -7.258  16.569  19.218  0.00  0.00    +0.000 F 
ATOM     26  C   UNL     1      -6.370  14.394  19.331  0.00  0.00    +0.000 A 
ATOM     27  C   UNL     1      -5.360  13.539  19.773  0.00  0.00    +0.000 A 
ENDBRANCH  18  21
ENDBRANCH  12  13
BRANCH   7  28
ATOM     28  C   UNL     1       3.717   4.804  18.758  0.00  0.00    +0.000 C 
BRANCH  28  29
ATOM     29  C   UNL     1       4.910   4.562  17.858  0.00  0.00    +0.000 A 
ATOM     30  C   UNL     1       4.728   4.081  16.553  0.00  0.00    +0.000 A 
ATOM     31  C   UNL     1       5.808   3.991  15.671  0.00  0.00    +0.000 A 
ATOM     32  C   UNL     1       7.085   4.361  16.089  0.00  0.00    +0.000 A 
ATOM     33  C   UNL     1       7.290   4.790  17.399  0.00  0.00    +0.000 A 
ATOM     34  C   UNL     1       6.209   4.882  18.283  0.00  0.00    +0.000 A 
ENDBRANCH  28  29
ENDBRANCH   7  28
TORSDOF 4
ENDMDL
MODEL 9
REMARK VINA RESULT:      -6.9      6.169      8.158
REMARK  Name = 
REMARK  5 active torsions:
REMARK  status: ('A' for Active; 'I' for Inactive)
REMARK    1  A    between atoms: C_1  and  C_2
REMARK    2  A    between atoms: N_7  and  C_8
REMARK    3  A    between atoms: C_8  and  C_9
REMARK    4  A    between atoms: C_19  and  C_20
REMARK    5  A    between atoms: N_25  and  C_26
REMARK                            x       y       z     vdW  Elec       q    Type
REMARK                         _______ _______ _______ _____ _____    ______ ____
ROOT
ATOM      1  C   UNL     1      -1.251  10.288  22.369  0.00  0.00    +0.000 C 
ATOM      2  C   UNL     1      -0.327   9.873  21.265  0.00  0.00    +0.000 A 
ATOM      3  N   UNL     1       0.393   8.746  21.542  0.00  0.00    +0.000 NA
ATOM      4  C   UNL     1       1.213   8.265  20.583  0.00  0.00    +0.000 A 
ATOM      5  C   UNL     1       1.860   6.996  20.868  0.00  0.00    +0.000 A 
ATOM      6  C   UNL     1       2.565   6.397  19.903  0.00  0.00    +0.000 A 
ATOM      7  N   UNL     1       2.742   6.969  18.653  0.00  0.00    +0.000 N 
ATOM      8  C   UNL     1       2.228   8.231  18.330  0.00  0.00    +0.000 A 
ATOM      9  O   UNL     1       2.392   8.796  17.246  0.00  0.00    +0.000 OA
ATOM     10  C   UNL     1       1.411   8.896  19.368  0.00  0.00    +0.000 A 
ATOM     11  C   UNL     1       0.754  10.099  19.132  0.00  0.00    +0.000 A 
ATOM     12  C   UNL     1      -0.200  10.562  20.049  0.00  0.00    +0.000 A 
ENDROOT
BRANCH  12  13
ATOM     13  C   UNL     1      -1.016  11.768  19.724  0.00  0.00    +0.000 C 
ATOM     14  O   UNL     1      -1.814  11.686  18.792  0.00  0.00    +0.000 OA
ATOM     15  N   UNL     1      -0.898  12.921  20.501  0.00  0.00    +0.000 N 
ATOM     16  C   UNL     1      -1.849  14.029  20.298  0.00  0.00    +0.000 C 
ATOM     17  C   UNL     1      -2.343  14.606  21.646  0.00  0.00    +0.000 C 
ATOM     18  N   UNL     1      -1.169  14.984  22.464  0.00  0.00    +0.000 N 
ATOM     19  C   UNL     1      -0.240  13.853  22.709  0.00  0.00    +0.000 C 
ATOM     20  C   UNL     1       0.245  13.300  21.356  0.00  0.00    +0.000 C 
BRANCH  18  21
ATOM     21  C   UNL     1      -1.280  15.884  23.518  0.00  0.00    +0.000 A 
ATOM     22  C   UNL     1      -0.253  16.177  24.424  0.00  0.00    +0.000 A 
ATOM     23  C   UNL     1      -0.443  17.108  25.458  0.00  0.00    +0.000 A 
ATOM     24  C   UNL     1      -1.672  17.741  25.602  0.00  0.00    +0.000 A 
ATOM     25  F   UNL     1      -1.853  18.631  26.586  0.00  0.00    +0.000 F 
ATOM     26  C   UNL     1      -2.715  17.461  24.737  0.00  0.00    +0.000 A 
ATOM     27  C   UNL     1      -2.515  16.535  23.713  0.00  0.00    +0.000 A 
ENDBRANCH  18  21
ENDBRANCH  12  13
BRANCH   7  28
ATOM     28  C   UNL     1       3.539   6.258  17.657  0.00  0.00    +0.000 C 
BRANCH  28  29
ATOM     29  C   UNL     1       5.030   6.264  17.924  0.00  0.00    +0.000 A 
ATOM     30  C   UNL     1       5.579   5.416  18.898  0.00  0.00    +0.000 A 
ATOM     31  C   UNL     1       6.964   5.312  19.051  0.00  0.00    +0.000 A 
ATOM     32  C   UNL     1       7.815   6.068  18.247  0.00  0.00    +0.000 A 
ATOM     33  C   UNL     1       7.282   6.954  17.312  0.00  0.00    +0.000 A 
ATOM     34  C   UNL     1       5.896   7.058  17.157  0.00  0.00    +0.000 A 
ENDBRANCH  28  29
ENDBRANCH   7  28
TORSDOF 4
ENDMDL
