MODEL 1
REMARK VINA RESULT:      -7.1      0.000      0.000
REMARK  Name = 
REMARK  9 active torsions:
REMARK  status: ('A' for Active; 'I' for Inactive)
REMARK    1  A    between atoms: C_1  and  C_2
REMARK    2  A    between atoms: C_2  and  C_3
REMARK    3  A    between atoms: C_3  and  C_4
REMARK    4  A    between atoms: C_3  and  N_5
REMARK    5  A    between atoms: C_6  and  C_8
REMARK    6  A    between atoms: C_9  and  C_10
REMARK    7  A    between atoms: C_13  and  C_14
REMARK    8  A    between atoms: C_14  and  C_15
REMARK    9  A    between atoms: C_14  and  C_16
REMARK                            x       y       z     vdW  Elec       q    Type
REMARK                         _______ _______ _______ _____ _____    ______ ____
ROOT
ATOM      1  C   UNL     1       6.072   4.951  15.620  0.00  0.00    +0.000 C 
ATOM      2  C   UNL     1       5.505   3.911  16.253  0.00  0.00    +0.000 C 
ENDROOT
BRANCH   2   3
ATOM      3  C   UNL     1       4.726   4.035  17.493  0.00  0.00    +0.000 A 
ATOM      4  C   UNL     1       4.884   5.124  18.360  0.00  0.00    +0.000 A 
ATOM      5  C   UNL     1       4.092   5.248  19.505  0.00  0.00    +0.000 A 
ATOM      6  C   UNL     1       3.108   4.297  19.806  0.00  0.00    +0.000 A 
ATOM      7  C   UNL     1       2.953   3.208  18.938  0.00  0.00    +0.000 A 
ATOM      8  C   UNL     1       3.746   3.084  17.789  0.00  0.00    +0.000 A 
BRANCH   6   9
ATOM      9  C   UNL     1       2.223   4.490  21.025  0.00  0.00    +0.000 C 
ATOM     10  C   UNL     1       1.383   5.766  20.910  0.00  0.00    +0.000 C 
ATOM     11  C   UNL     1       1.328   3.280  21.296  0.00  0.00    +0.000 C 
ENDBRANCH   6   9
ENDBRANCH   2   3
BRANCH   1  13
ATOM     12  N   UNL     1       6.200   3.747  13.568  0.00  0.00    +0.000 N 
ATOM     13  C   UNL     1       6.782   4.728  14.337  0.00  0.00    +0.000 C 
ATOM     14  O   UNL     1       7.788   5.346  14.023  0.00  0.00    +0.000 OA
ATOM     15  H   UNL     1       5.314   3.348  13.846  0.00  0.00    +0.000 HD
BRANCH  12  16
ATOM     16  C   UNL     1       6.762   3.364  12.281  0.00  0.00    +0.000 C 
ATOM     17  C   UNL     1       7.171   4.612  11.498  0.00  0.00    +0.000 C 
BRANCH  16  19
ATOM     18  C   UNL     1       4.372   3.122  11.425  0.00  0.00    +0.000 C 
ATOM     19  C   UNL     1       5.770   2.518  11.470  0.00  0.00    +0.000 C 
ENDBRANCH  16  19
ENDBRANCH  12  16
ENDBRANCH   1  13
TORSDOF 5
ENDMDL
MODEL 2
REMARK VINA RESULT:      -7.1      7.090      8.660
REMARK  Name = 
REMARK  9 active torsions:
REMARK  status: ('A' for Active; 'I' for Inactive)
REMARK    1  A    between atoms: C_1  and  C_2
REMARK    2  A    between atoms: C_2  and  C_3
REMARK    3  A    between atoms: C_3  and  C_4
REMARK    4  A    between atoms: C_3  and  N_5
REMARK    5  A    between atoms: C_6  and  C_8
REMARK    6  A    between atoms: C_9  and  C_10
REMARK    7  A    between atoms: C_13  and  C_14
REMARK    8  A    between atoms: C_14  and  C_15
REMARK    9  A    between atoms: C_14  and  C_16
REMARK                            x       y       z     vdW  Elec       q    Type
REMARK                         _______ _______ _______ _____ _____    ______ ____
ROOT
ATOM      1  C   UNL     1       8.043   8.524  17.786  0.00  0.00    +0.000 C 
ATOM      2  C   UNL     1       8.768   8.937  18.837  0.00  0.00    +0.000 C 
ENDROOT
BRANCH   2   3
ATOM      3  C   UNL     1       9.223  10.322  19.023  0.00  0.00    +0.000 A 
ATOM      4  C   UNL     1       9.196  11.256  17.979  0.00  0.00    +0.000 A 
ATOM      5  C   UNL     1       9.582  12.582  18.195  0.00  0.00    +0.000 A 
ATOM      6  C   UNL     1       9.988  13.016  19.463  0.00  0.00    +0.000 A 
ATOM      7  C   UNL     1      10.014  12.080  20.506  0.00  0.00    +0.000 A 
ATOM      8  C   UNL     1       9.627  10.751  20.291  0.00  0.00    +0.000 A 
BRANCH   6   9
ATOM      9  C   UNL     1      10.344  14.477  19.681  0.00  0.00    +0.000 C 
ATOM     10  C   UNL     1      10.231  14.866  21.158  0.00  0.00    +0.000 C 
ATOM     11  C   UNL     1      11.729  14.828  19.137  0.00  0.00    +0.000 C 
ENDBRANCH   6   9
ENDBRANCH   2   3
BRANCH   1  13
ATOM     12  N   UNL     1       7.053   6.781  16.499  0.00  0.00    +0.000 N 
ATOM     13  C   UNL     1       7.576   7.117  17.725  0.00  0.00    +0.000 C 
ATOM     14  O   UNL     1       7.639   6.359  18.681  0.00  0.00    +0.000 OA
ATOM     15  H   UNL     1       7.123   7.428  15.726  0.00  0.00    +0.000 HD
BRANCH  12  16
ATOM     16  C   UNL     1       6.519   5.450  16.246  0.00  0.00    +0.000 C 
ATOM     17  C   UNL     1       7.002   4.944  14.886  0.00  0.00    +0.000 C 
BRANCH  16  19
ATOM     18  C   UNL     1       4.416   4.107  16.772  0.00  0.00    +0.000 C 
ATOM     19  C   UNL     1       4.985   5.443  16.311  0.00  0.00    +0.000 C 
ENDBRANCH  16  19
ENDBRANCH  12  16
ENDBRANCH   1  13
TORSDOF 5
ENDMDL
MODEL 3
REMARK VINA RESULT:      -7.1      7.446      9.108
REMARK  Name = 
REMARK  9 active torsions:
REMARK  status: ('A' for Active; 'I' for Inactive)
REMARK    1  A    between atoms: C_1  and  C_2
REMARK    2  A    between atoms: C_2  and  C_3
REMARK    3  A    between atoms: C_3  and  C_4
REMARK    4  A    between atoms: C_3  and  N_5
REMARK    5  A    between atoms: C_6  and  C_8
REMARK    6  A    between atoms: C_9  and  C_10
REMARK    7  A    between atoms: C_13  and  C_14
REMARK    8  A    between atoms: C_14  and  C_15
REMARK    9  A    between atoms: C_14  and  C_16
REMARK                            x       y       z     vdW  Elec       q    Type
REMARK                         _______ _______ _______ _____ _____    ______ ____
ROOT
ATOM      1  C   UNL     1       8.297   8.826  17.805  0.00  0.00    +0.000 C 
ATOM      2  C   UNL     1       8.868   9.352  18.900  0.00  0.00    +0.000 C 
ENDROOT
BRANCH   2   3
ATOM      3  C   UNL     1       9.365  10.734  18.979  0.00  0.00    +0.000 A 
ATOM      4  C   UNL     1      10.231  11.151  19.998  0.00  0.00    +0.000 A 
ATOM      5  C   UNL     1      10.733  12.456  20.020  0.00  0.00    +0.000 A 
ATOM      6  C   UNL     1      10.399  13.373  19.016  0.00  0.00    +0.000 A 
ATOM      7  C   UNL     1       9.532  12.953  17.998  0.00  0.00    +0.000 A 
ATOM      8  C   UNL     1       9.028  11.646  17.974  0.00  0.00    +0.000 A 
BRANCH   6   9
ATOM      9  C   UNL     1      11.008  14.764  19.034  0.00  0.00    +0.000 C 
ATOM     10  C   UNL     1      10.232  15.726  18.129  0.00  0.00    +0.000 C 
ATOM     11  C   UNL     1      11.124  15.333  20.449  0.00  0.00    +0.000 C 
ENDBRANCH   6   9
ENDBRANCH   2   3
BRANCH   1  13
ATOM     12  N   UNL     1       6.954   7.146  16.781  0.00  0.00    +0.000 N 
ATOM     13  C   UNL     1       7.768   7.441  17.849  0.00  0.00    +0.000 C 
ATOM     14  O   UNL     1       8.023   6.665  18.758  0.00  0.00    +0.000 OA
ATOM     15  H   UNL     1       6.866   7.803  16.018  0.00  0.00    +0.000 HD
BRANCH  12  16
ATOM     16  C   UNL     1       6.317   5.843  16.654  0.00  0.00    +0.000 C 
ATOM     17  C   UNL     1       6.944   5.066  15.497  0.00  0.00    +0.000 C 
BRANCH  16  19
ATOM     18  C   UNL     1       4.153   6.928  17.457  0.00  0.00    +0.000 C 
ATOM     19  C   UNL     1       4.801   5.981  16.454  0.00  0.00    +0.000 C 
ENDBRANCH  16  19
ENDBRANCH  12  16
ENDBRANCH   1  13
TORSDOF 5
ENDMDL
MODEL 4
REMARK VINA RESULT:      -7.1      7.190      8.791
REMARK  Name = 
REMARK  9 active torsions:
REMARK  status: ('A' for Active; 'I' for Inactive)
REMARK    1  A    between atoms: C_1  and  C_2
REMARK    2  A    between atoms: C_2  and  C_3
REMARK    3  A    between atoms: C_3  and  C_4
REMARK    4  A    between atoms: C_3  and  N_5
REMARK    5  A    between atoms: C_6  and  C_8
REMARK    6  A    between atoms: C_9  and  C_10
REMARK    7  A    between atoms: C_13  and  C_14
REMARK    8  A    between atoms: C_14  and  C_15
REMARK    9  A    between atoms: C_14  and  C_16
REMARK                            x       y       z     vdW  Elec       q    Type
REMARK                         _______ _______ _______ _____ _____    ______ ____
ROOT
ATOM      1  C   UNL     1       8.036   8.610  17.843  0.00  0.00    +0.000 C 
ATOM      2  C   UNL     1       8.870   9.011  18.815  0.00  0.00    +0.000 C 
ENDROOT
BRANCH   2   3
ATOM      3  C   UNL     1       9.304  10.403  18.998  0.00  0.00    +0.000 A 
ATOM      4  C   UNL     1       9.445  10.973  20.270  0.00  0.00    +0.000 A 
ATOM      5  C   UNL     1       9.912  12.282  20.420  0.00  0.00    +0.000 A 
ATOM      6  C   UNL     1      10.268  13.052  19.305  0.00  0.00    +0.000 A 
ATOM      7  C   UNL     1      10.125  12.479  18.033  0.00  0.00    +0.000 A 
ATOM      8  C   UNL     1       9.658  11.167  17.882  0.00  0.00    +0.000 A 
BRANCH   6   9
ATOM      9  C   UNL     1      10.829  14.449  19.502  0.00  0.00    +0.000 C 
ATOM     10  C   UNL     1      10.607  14.943  20.936  0.00  0.00    +0.000 C 
ATOM     11  C   UNL     1      12.307  14.546  19.123  0.00  0.00    +0.000 C 
ENDBRANCH   6   9
ENDBRANCH   2   3
BRANCH   1  13
ATOM     12  N   UNL     1       7.134   6.827  16.547  0.00  0.00    +0.000 N 
ATOM     13  C   UNL     1       7.607   7.192  17.785  0.00  0.00    +0.000 C 
ATOM     14  O   UNL     1       7.655   6.446  18.753  0.00  0.00    +0.000 OA
ATOM     15  H   UNL     1       7.215   7.466  15.768  0.00  0.00    +0.000 HD
BRANCH  12  16
ATOM     16  C   UNL     1       6.643   5.480  16.292  0.00  0.00    +0.000 C 
ATOM     17  C   UNL     1       6.962   5.071  14.854  0.00  0.00    +0.000 C 
BRANCH  16  19
ATOM     18  C   UNL     1       4.619   3.944  16.513  0.00  0.00    +0.000 C 
ATOM     19  C   UNL     1       5.135   5.377  16.562  0.00  0.00    +0.000 C 
ENDBRANCH  16  19
ENDBRANCH  12  16
ENDBRANCH   1  13
TORSDOF 5
ENDMDL
MODEL 5
REMARK VINA RESULT:      -7.0      7.440      9.211
REMARK  Name = 
REMARK  9 active torsions:
REMARK  status: ('A' for Active; 'I' for Inactive)
REMARK    1  A    between atoms: C_1  and  C_2
REMARK    2  A    between atoms: C_2  and  C_3
REMARK    3  A    between atoms: C_3  and  C_4
REMARK    4  A    between atoms: C_3  and  N_5
REMARK    5  A    between atoms: C_6  and  C_8
REMARK    6  A    between atoms: C_9  and  C_10
REMARK    7  A    between atoms: C_13  and  C_14
REMARK    8  A    between atoms: C_14  and  C_15
REMARK    9  A    between atoms: C_14  and  C_16
REMARK                            x       y       z     vdW  Elec       q    Type
REMARK                         _______ _______ _______ _____ _____    ______ ____
ROOT
ATOM      1  C   UNL     1       8.152   8.897  17.863  0.00  0.00    +0.000 C 
ATOM      2  C   UNL     1       8.925   9.340  18.866  0.00  0.00    +0.000 C 
ENDROOT
BRANCH   2   3
ATOM      3  C   UNL     1       9.426  10.718  18.965  0.00  0.00    +0.000 A 
ATOM      4  C   UNL     1       9.431  11.584  17.864  0.00  0.00    +0.000 A 
ATOM      5  C   UNL     1       9.861  12.908  17.996  0.00  0.00    +0.000 A 
ATOM      6  C   UNL     1      10.281  13.408  19.235  0.00  0.00    +0.000 A 
ATOM      7  C   UNL     1      10.277  12.539  20.335  0.00  0.00    +0.000 A 
ATOM      8  C   UNL     1       9.845  11.212  20.204  0.00  0.00    +0.000 A 
BRANCH   6   9
ATOM      9  C   UNL     1      10.687  14.866  19.360  0.00  0.00    +0.000 C 
ATOM     10  C   UNL     1      12.181  15.007  19.667  0.00  0.00    +0.000 C 
ATOM     11  C   UNL     1      10.312  15.685  18.125  0.00  0.00    +0.000 C 
ENDBRANCH   6   9
ENDBRANCH   2   3
BRANCH   1  13
ATOM     12  N   UNL     1       6.617   7.293  16.999  0.00  0.00    +0.000 N 
ATOM     13  C   UNL     1       7.642   7.504  17.891  0.00  0.00    +0.000 C 
ATOM     14  O   UNL     1       8.085   6.654  18.648  0.00  0.00    +0.000 OA
ATOM     15  H   UNL     1       6.368   8.014  16.336  0.00  0.00    +0.000 HD
BRANCH  12  16
ATOM     16  C   UNL     1       5.966   5.995  16.891  0.00  0.00    +0.000 C 
ATOM     17  C   UNL     1       5.421   5.800  15.476  0.00  0.00    +0.000 C 
BRANCH  16  19
ATOM     18  C   UNL     1       3.669   5.020  17.419  0.00  0.00    +0.000 C 
ATOM     19  C   UNL     1       4.842   5.848  17.928  0.00  0.00    +0.000 C 
ENDBRANCH  16  19
ENDBRANCH  12  16
ENDBRANCH   1  13
TORSDOF 5
ENDMDL
MODEL 6
REMARK VINA RESULT:      -6.9      6.377      8.005
REMARK  Name = 
REMARK  9 active torsions:
REMARK  status: ('A' for Active; 'I' for Inactive)
REMARK    1  A    between atoms: C_1  and  C_2
REMARK    2  A    between atoms: C_2  and  C_3
REMARK    3  A    between atoms: C_3  and  C_4
REMARK    4  A    between atoms: C_3  and  N_5
REMARK    5  A    between atoms: C_6  and  C_8
REMARK    6  A    between atoms: C_9  and  C_10
REMARK    7  A    between atoms: C_13  and  C_14
REMARK    8  A    between atoms: C_14  and  C_15
REMARK    9  A    between atoms: C_14  and  C_16
REMARK                            x       y       z     vdW  Elec       q    Type
REMARK                         _______ _______ _______ _____ _____    ______ ____
ROOT
ATOM      1  C   UNL     1       8.114   7.282  18.497  0.00  0.00    +0.000 C 
ATOM      2  C   UNL     1       8.003   8.430  17.810  0.00  0.00    +0.000 C 
ENDROOT
BRANCH   2   3
ATOM      3  C   UNL     1       8.527   9.719  18.282  0.00  0.00    +0.000 A 
ATOM      4  C   UNL     1       9.270   9.827  19.465  0.00  0.00    +0.000 A 
ATOM      5  C   UNL     1       9.806  11.055  19.864  0.00  0.00    +0.000 A 
ATOM      6  C   UNL     1       9.630  12.205  19.083  0.00  0.00    +0.000 A 
ATOM      7  C   UNL     1       8.886  12.094  17.900  0.00  0.00    +0.000 A 
ATOM      8  C   UNL     1       8.349  10.864  17.499  0.00  0.00    +0.000 A 
BRANCH   6   9
ATOM      9  C   UNL     1      10.274  13.512  19.512  0.00  0.00    +0.000 C 
ATOM     10  C   UNL     1      10.175  13.713  21.027  0.00  0.00    +0.000 C 
ATOM     11  C   UNL     1      11.727  13.628  19.048  0.00  0.00    +0.000 C 
ENDBRANCH   6   9
ENDBRANCH   2   3
BRANCH   1  13
ATOM     12  N   UNL     1       7.134   6.186  16.623  0.00  0.00    +0.000 N 
ATOM     13  C   UNL     1       7.609   6.020  17.902  0.00  0.00    +0.000 C 
ATOM     14  O   UNL     1       7.604   4.959  18.509  0.00  0.00    +0.000 OA
ATOM     15  H   UNL     1       7.260   7.070  16.149  0.00  0.00    +0.000 HD
BRANCH  12  16
ATOM     16  C   UNL     1       6.574   5.070  15.874  0.00  0.00    +0.000 C 
ATOM     17  C   UNL     1       7.231   4.982  14.497  0.00  0.00    +0.000 C 
BRANCH  16  19
ATOM     18  C   UNL     1       4.323   5.089  17.073  0.00  0.00    +0.000 C 
ATOM     19  C   UNL     1       5.050   5.200  15.739  0.00  0.00    +0.000 C 
ENDBRANCH  16  19
ENDBRANCH  12  16
ENDBRANCH   1  13
TORSDOF 5
ENDMDL
MODEL 7
REMARK VINA RESULT:      -6.9      0.676      1.111
REMARK  Name = 
REMARK  9 active torsions:
REMARK  status: ('A' for Active; 'I' for Inactive)
REMARK    1  A    between atoms: C_1  and  C_2
REMARK    2  A    between atoms: C_2  and  C_3
REMARK    3  A    between atoms: C_3  and  C_4
REMARK    4  A    between atoms: C_3  and  N_5
REMARK    5  A    between atoms: C_6  and  C_8
REMARK    6  A    between atoms: C_9  and  C_10
REMARK    7  A    between atoms: C_13  and  C_14
REMARK    8  A    between atoms: C_14  and  C_15
REMARK    9  A    between atoms: C_14  and  C_16
REMARK                            x       y       z     vdW  Elec       q    Type
REMARK                         _______ _______ _______ _____ _____    ______ ____
ROOT
ATOM      1  C   UNL     1       5.799   4.831  15.353  0.00  0.00    +0.000 C 
ATOM      2  C   UNL     1       5.014   3.895  15.910  0.00  0.00    +0.000 C 
ENDROOT
BRANCH   2   3
ATOM      3  C   UNL     1       4.408   4.024  17.243  0.00  0.00    +0.000 A 
ATOM      4  C   UNL     1       4.841   4.988  18.162  0.00  0.00    +0.000 A 
ATOM      5  C   UNL     1       4.211   5.128  19.403  0.00  0.00    +0.000 A 
ATOM      6  C   UNL     1       3.121   4.321  19.751  0.00  0.00    +0.000 A 
ATOM      7  C   UNL     1       2.690   3.356  18.830  0.00  0.00    +0.000 A 
ATOM      8  C   UNL     1       3.320   3.216  17.586  0.00  0.00    +0.000 A 
BRANCH   6   9
ATOM      9  C   UNL     1       2.420   4.536  21.081  0.00  0.00    +0.000 C 
ATOM     10  C   UNL     1       1.408   5.683  21.001  0.00  0.00    +0.000 C 
ATOM     11  C   UNL     1       1.749   3.263  21.601  0.00  0.00    +0.000 C 
ENDBRANCH   6   9
ENDBRANCH   2   3
BRANCH   1  13
ATOM     12  N   UNL     1       5.521   3.787  13.231  0.00  0.00    +0.000 N 
ATOM     13  C   UNL     1       6.308   4.634  13.974  0.00  0.00    +0.000 C 
ATOM     14  O   UNL     1       7.333   5.161  13.566  0.00  0.00    +0.000 OA
ATOM     15  H   UNL     1       4.637   3.466  13.600  0.00  0.00    +0.000 HD
BRANCH  12  16
ATOM     16  C   UNL     1       5.864   3.448  11.857  0.00  0.00    +0.000 C 
ATOM     17  C   UNL     1       4.597   3.128  11.065  0.00  0.00    +0.000 C 
BRANCH  16  19
ATOM     18  C   UNL     1       6.280   1.055  11.077  0.00  0.00    +0.000 C 
ATOM     19  C   UNL     1       6.847   2.268  11.804  0.00  0.00    +0.000 C 
ENDBRANCH  16  19
ENDBRANCH  12  16
ENDBRANCH   1  13
TORSDOF 5
ENDMDL
MODEL 8
REMARK VINA RESULT:      -6.9      2.907      3.906
REMARK  Name = 
REMARK  9 active torsions:
REMARK  status: ('A' for Active; 'I' for Inactive)
REMARK    1  A    between atoms: C_1  and  C_2
REMARK    2  A    between atoms: C_2  and  C_3
REMARK    3  A    between atoms: C_3  and  C_4
REMARK    4  A    between atoms: C_3  and  N_5
REMARK    5  A    between atoms: C_6  and  C_8
REMARK    6  A    between atoms: C_9  and  C_10
REMARK    7  A    between atoms: C_13  and  C_14
REMARK    8  A    between atoms: C_14  and  C_15
REMARK    9  A    between atoms: C_14  and  C_16
REMARK                            x       y       z     vdW  Elec       q    Type
REMARK                         _______ _______ _______ _____ _____    ______ ____
ROOT
ATOM      1  C   UNL     1       5.150   6.331  17.136  0.00  0.00    +0.000 C 
ATOM      2  C   UNL     1       3.913   6.077  17.591  0.00  0.00    +0.000 C 
ENDROOT
BRANCH   2   3
ATOM      3  C   UNL     1       3.065   7.078  18.255  0.00  0.00    +0.000 A 
ATOM      4  C   UNL     1       2.628   8.233  17.595  0.00  0.00    +0.000 A 
ATOM      5  C   UNL     1       1.777   9.142  18.230  0.00  0.00    +0.000 A 
ATOM      6  C   UNL     1       1.324   8.913  19.536  0.00  0.00    +0.000 A 
ATOM      7  C   UNL     1       1.763   7.756  20.195  0.00  0.00    +0.000 A 
ATOM      8  C   UNL     1       2.616   6.844  19.558  0.00  0.00    +0.000 A 
BRANCH   6   9
ATOM      9  C   UNL     1       0.353   9.888  20.178  0.00  0.00    +0.000 C 
ATOM     10  C   UNL     1      -0.733  10.327  19.191  0.00  0.00    +0.000 C 
ATOM     11  C   UNL     1      -0.275   9.331  21.456  0.00  0.00    +0.000 C 
ENDBRANCH   6   9
ENDBRANCH   2   3
BRANCH   1  13
ATOM     12  N   UNL     1       6.129   5.578  15.099  0.00  0.00    +0.000 N 
ATOM     13  C   UNL     1       5.898   5.270  16.419  0.00  0.00    +0.000 C 
ATOM     14  O   UNL     1       6.246   4.229  16.956  0.00  0.00    +0.000 OA
ATOM     15  H   UNL     1       5.899   6.497  14.748  0.00  0.00    +0.000 HD
BRANCH  12  16
ATOM     16  C   UNL     1       6.829   4.653  14.219  0.00  0.00    +0.000 C 
ATOM     17  C   UNL     1       7.737   5.428  13.263  0.00  0.00    +0.000 C 
BRANCH  16  19
ATOM     18  C   UNL     1       6.389   3.327  12.085  0.00  0.00    +0.000 C 
ATOM     19  C   UNL     1       5.843   3.775  13.435  0.00  0.00    +0.000 C 
ENDBRANCH  16  19
ENDBRANCH  12  16
ENDBRANCH   1  13
TORSDOF 5
ENDMDL
MODEL 9
REMARK VINA RESULT:      -6.9      2.716      3.746
REMARK  Name = 
REMARK  9 active torsions:
REMARK  status: ('A' for Active; 'I' for Inactive)
REMARK    1  A    between atoms: C_1  and  C_2
REMARK    2  A    between atoms: C_2  and  C_3
REMARK    3  A    between atoms: C_3  and  C_4
REMARK    4  A    between atoms: C_3  and  N_5
REMARK    5  A    between atoms: C_6  and  C_8
REMARK    6  A    between atoms: C_9  and  C_10
REMARK    7  A    between atoms: C_13  and  C_14
REMARK    8  A    between atoms: C_14  and  C_15
REMARK    9  A    between atoms: C_14  and  C_16
REMARK                            x       y       z     vdW  Elec       q    Type
REMARK                         _______ _______ _______ _____ _____    ______ ____
ROOT
ATOM      1  C   UNL     1       5.527   6.509  17.337  0.00  0.00    +0.000 C 
ATOM      2  C   UNL     1       4.218   6.215  17.386  0.00  0.00    +0.000 C 
ENDROOT
BRANCH   2   3
ATOM      3  C   UNL     1       3.230   7.006  18.134  0.00  0.00    +0.000 A 
ATOM      4  C   UNL     1       2.828   6.656  19.429  0.00  0.00    +0.000 A 
ATOM      5  C   UNL     1       1.929   7.455  20.141  0.00  0.00    +0.000 A 
ATOM      6  C   UNL     1       1.421   8.637  19.585  0.00  0.00    +0.000 A 
ATOM      7  C   UNL     1       1.824   8.985  18.288  0.00  0.00    +0.000 A 
ATOM      8  C   UNL     1       2.726   8.184  17.575  0.00  0.00    +0.000 A 
BRANCH   6   9
ATOM      9  C   UNL     1       0.492   9.515  20.405  0.00  0.00    +0.000 C 
ATOM     10  C   UNL     1      -0.538  10.222  19.517  0.00  0.00    +0.000 C 
ATOM     11  C   UNL     1      -0.204   8.744  21.527  0.00  0.00    +0.000 C 
ENDBRANCH   6   9
ENDBRANCH   2   3
BRANCH   1  13
ATOM     12  N   UNL     1       5.863   5.317  15.302  0.00  0.00    +0.000 N 
ATOM     13  C   UNL     1       6.431   5.685  16.499  0.00  0.00    +0.000 C 
ATOM     14  O   UNL     1       7.552   5.358  16.860  0.00  0.00    +0.000 OA
ATOM     15  H   UNL     1       4.970   5.704  15.027  0.00  0.00    +0.000 HD
BRANCH  12  16
ATOM     16  C   UNL     1       6.583   4.486  14.347  0.00  0.00    +0.000 C 
ATOM     17  C   UNL     1       7.564   5.341  13.546  0.00  0.00    +0.000 C 
BRANCH  16  19
ATOM     18  C   UNL     1       6.274   3.298  12.112  0.00  0.00    +0.000 C 
ATOM     19  C   UNL     1       5.615   3.751  13.408  0.00  0.00    +0.000 C 
ENDBRANCH  16  19
ENDBRANCH  12  16
ENDBRANCH   1  13
TORSDOF 5
ENDMDL
