MODEL 1
REMARK VINA RESULT:      -7.9      0.000      0.000
REMARK  Name = 
REMARK  11 active torsions:
REMARK  status: ('A' for Active; 'I' for Inactive)
REMARK    1  A    between atoms: C_1  and  O_2
REMARK    2  A    between atoms: O_2  and  C_3
REMARK    3  A    between atoms: C_6  and  C_7
REMARK    4  A    between atoms: N_9  and  C_10
REMARK    5  A    between atoms: C_10  and  C_11
REMARK    6  A    between atoms: C_14  and  S_15
REMARK    7  A    between atoms: S_15  and  C_16
REMARK    8  A    between atoms: C_16  and  C_17
REMARK    9  A    between atoms: C_23  and  C_24
REMARK   10  A    between atoms: C_28  and  O_29
REMARK   11  A    between atoms: O_29  and  C_30
REMARK                            x       y       z     vdW  Elec       q    Type
REMARK                         _______ _______ _______ _____ _____    ______ ____
ROOT
ATOM      1  C   UNL     1       2.492   6.980  18.554  0.00  0.00    +0.000 A 
ATOM      2  N   UNL     1       2.764   6.768  19.827  0.00  0.00    +0.000 NA
ATOM      3  N   UNL     1       2.535   5.428  20.051  0.00  0.00    +0.000 NA
ATOM      4  C   UNL     1       2.139   4.911  18.903  0.00  0.00    +0.000 A 
ATOM      5  O   UNL     1       2.099   5.842  17.901  0.00  0.00    +0.000 OA
ENDROOT
BRANCH   1   6
ATOM      6  C   UNL     1       2.545   8.237  17.767  0.00  0.00    +0.000 C 
BRANCH   6   9
ATOM      7  C   UNL     1       0.821   9.723  18.697  0.00  0.00    +0.000 C 
ATOM      8  O   UNL     1       1.529  10.002  19.657  0.00  0.00    +0.000 OA
ATOM      9  N   UNL     1       1.228   8.848  17.715  0.00  0.00    +0.000 N 
ATOM     10  H   UNL     1       0.731   8.784  16.840  0.00  0.00    +0.000 HD
BRANCH   7  14
ATOM     11  C   UNL     1      -3.132  11.401  18.249  0.00  0.00    +0.000 A 
ATOM     12  C   UNL     1      -2.621  10.470  17.333  0.00  0.00    +0.000 A 
ATOM     13  C   UNL     1      -1.341   9.932  17.494  0.00  0.00    +0.000 A 
ATOM     14  C   UNL     1      -0.526  10.353  18.551  0.00  0.00    +0.000 A 
ATOM     15  C   UNL     1      -1.003  11.351  19.403  0.00  0.00    +0.000 A 
ATOM     16  C   UNL     1      -2.296  11.884  19.265  0.00  0.00    +0.000 A 
BRANCH  11  18
ATOM     17  C   UNL     1      -5.009  11.753  16.849  0.00  0.00    +0.000 C 
ATOM     18  O   UNL     1      -4.415  11.867  18.142  0.00  0.00    +0.000 OA
ENDBRANCH  11  18
BRANCH  16  19
ATOM     19  O   UNL     1      -2.552  12.832  20.220  0.00  0.00    +0.000 OA
ATOM     20  C   UNL     1      -1.643  13.907  20.394  0.00  0.00    +0.000 C 
ENDBRANCH  16  19
ENDBRANCH   7  14
ENDBRANCH   6   9
ENDBRANCH   1   6
BRANCH   4  21
ATOM     21  S   UNL     1       1.650   3.262  18.689  0.00  0.00    +0.000 S 
BRANCH  21  22
ATOM     22  C   UNL     1       3.165   2.539  17.995  0.00  0.00    +0.000 C 
BRANCH  22  23
ATOM     23  C   UNL     1       4.396   3.290  18.476  0.00  0.00    +0.000 C 
ATOM     24  O   UNL     1       4.886   3.033  19.572  0.00  0.00    +0.000 OA
ATOM     25  N   UNL     1       4.836   4.255  17.594  0.00  0.00    +0.000 N 
ATOM     26  C   UNL     1       5.896   5.061  17.911  0.00  0.00    +0.000 A 
ATOM     27  N   UNL     1       6.791   4.939  18.858  0.00  0.00    +0.000 NA
ATOM     28  N   UNL     1       7.655   6.015  18.892  0.00  0.00    +0.000 NA
ATOM     29  C   UNL     1       7.363   6.910  17.972  0.00  0.00    +0.000 A 
ATOM     30  C   UNL     1       8.048   8.217  17.826  0.00  0.00    +0.000 C 
ATOM     31  S   UNL     1       6.059   6.459  16.943  0.00  0.00    +0.000 S 
ATOM     32  H   UNL     1       4.262   4.541  16.806  0.00  0.00    +0.000 HD
ENDBRANCH  22  23
ENDBRANCH  21  22
ENDBRANCH   4  21
TORSDOF 8
ENDMDL
MODEL 2
REMARK VINA RESULT:      -7.8      1.117      2.115
REMARK  Name = 
REMARK  11 active torsions:
REMARK  status: ('A' for Active; 'I' for Inactive)
REMARK    1  A    between atoms: C_1  and  O_2
REMARK    2  A    between atoms: O_2  and  C_3
REMARK    3  A    between atoms: C_6  and  C_7
REMARK    4  A    between atoms: N_9  and  C_10
REMARK    5  A    between atoms: C_10  and  C_11
REMARK    6  A    between atoms: C_14  and  S_15
REMARK    7  A    between atoms: S_15  and  C_16
REMARK    8  A    between atoms: C_16  and  C_17
REMARK    9  A    between atoms: C_23  and  C_24
REMARK   10  A    between atoms: C_28  and  O_29
REMARK   11  A    between atoms: O_29  and  C_30
REMARK                            x       y       z     vdW  Elec       q    Type
REMARK                         _______ _______ _______ _____ _____    ______ ____
ROOT
ATOM      1  C   UNL     1       2.471   5.918  19.467  0.00  0.00    +0.000 A 
ATOM      2  N   UNL     1       2.211   5.518  20.697  0.00  0.00    +0.000 NA
ATOM      3  N   UNL     1       1.906   4.178  20.609  0.00  0.00    +0.000 NA
ATOM      4  C   UNL     1       2.000   3.847  19.334  0.00  0.00    +0.000 A 
ATOM      5  O   UNL     1       2.367   4.907  18.551  0.00  0.00    +0.000 OA
ENDROOT
BRANCH   1   6
ATOM      6  C   UNL     1       2.840   7.265  18.964  0.00  0.00    +0.000 C 
BRANCH   6   9
ATOM      7  C   UNL     1       1.430   9.221  18.486  0.00  0.00    +0.000 C 
ATOM      8  O   UNL     1       1.913   9.339  17.365  0.00  0.00    +0.000 OA
ATOM      9  N   UNL     1       1.834   8.236  19.359  0.00  0.00    +0.000 N 
ATOM     10  H   UNL     1       1.297   8.025  20.185  0.00  0.00    +0.000 HD
BRANCH   7  14
ATOM     11  C   UNL     1      -1.569  12.006  19.861  0.00  0.00    +0.000 A 
ATOM     12  C   UNL     1      -0.544  11.554  20.705  0.00  0.00    +0.000 A 
ATOM     13  C   UNL     1       0.423  10.656  20.244  0.00  0.00    +0.000 A 
ATOM     14  C   UNL     1       0.354  10.153  18.940  0.00  0.00    +0.000 A 
ATOM     15  C   UNL     1      -0.723  10.532  18.135  0.00  0.00    +0.000 A 
ATOM     16  C   UNL     1      -1.689  11.451  18.580  0.00  0.00    +0.000 A 
BRANCH  11  18
ATOM     17  C   UNL     1      -1.917  14.221  20.623  0.00  0.00    +0.000 C 
ATOM     18  O   UNL     1      -2.468  12.948  20.283  0.00  0.00    +0.000 OA
ENDBRANCH  11  18
BRANCH  16  19
ATOM     19  O   UNL     1      -2.636  11.686  17.619  0.00  0.00    +0.000 OA
ATOM     20  C   UNL     1      -3.899  11.048  17.718  0.00  0.00    +0.000 C 
ENDBRANCH  16  19
ENDBRANCH   7  14
ENDBRANCH   6   9
ENDBRANCH   1   6
BRANCH   4  21
ATOM     21  S   UNL     1       1.631   2.278  18.700  0.00  0.00    +0.000 S 
BRANCH  21  22
ATOM     22  C   UNL     1       3.299   1.633  18.376  0.00  0.00    +0.000 C 
BRANCH  22  23
ATOM     23  C   UNL     1       4.360   2.615  18.845  0.00  0.00    +0.000 C 
ATOM     24  O   UNL     1       4.686   2.654  20.029  0.00  0.00    +0.000 OA
ATOM     25  N   UNL     1       4.849   3.424  17.841  0.00  0.00    +0.000 N 
ATOM     26  C   UNL     1       5.766   4.403  18.115  0.00  0.00    +0.000 A 
ATOM     27  N   UNL     1       6.501   4.592  19.181  0.00  0.00    +0.000 NA
ATOM     28  N   UNL     1       7.246   5.751  19.094  0.00  0.00    +0.000 NA
ATOM     29  C   UNL     1       7.028   6.393  17.966  0.00  0.00    +0.000 A 
ATOM     30  C   UNL     1       7.606   7.716  17.629  0.00  0.00    +0.000 C 
ATOM     31  S   UNL     1       5.957   5.581  16.892  0.00  0.00    +0.000 S 
ATOM     32  H   UNL     1       4.389   3.468  16.937  0.00  0.00    +0.000 HD
ENDBRANCH  22  23
ENDBRANCH  21  22
ENDBRANCH   4  21
TORSDOF 8
ENDMDL
MODEL 3
REMARK VINA RESULT:      -7.7      1.643      2.582
REMARK  Name = 
REMARK  11 active torsions:
REMARK  status: ('A' for Active; 'I' for Inactive)
REMARK    1  A    between atoms: C_1  and  O_2
REMARK    2  A    between atoms: O_2  and  C_3
REMARK    3  A    between atoms: C_6  and  C_7
REMARK    4  A    between atoms: N_9  and  C_10
REMARK    5  A    between atoms: C_10  and  C_11
REMARK    6  A    between atoms: C_14  and  S_15
REMARK    7  A    between atoms: S_15  and  C_16
REMARK    8  A    between atoms: C_16  and  C_17
REMARK    9  A    between atoms: C_23  and  C_24
REMARK   10  A    between atoms: C_28  and  O_29
REMARK   11  A    between atoms: O_29  and  C_30
REMARK                            x       y       z     vdW  Elec       q    Type
REMARK                         _______ _______ _______ _____ _____    ______ ____
ROOT
ATOM      1  C   UNL     1       2.213   6.219  19.162  0.00  0.00    +0.000 A 
ATOM      2  N   UNL     1       1.770   5.626  20.254  0.00  0.00    +0.000 NA
ATOM      3  N   UNL     1       1.706   4.281  19.961  0.00  0.00    +0.000 NA
ATOM      4  C   UNL     1       2.113   4.141  18.713  0.00  0.00    +0.000 A 
ATOM      5  O   UNL     1       2.462   5.336  18.146  0.00  0.00    +0.000 OA
ENDROOT
BRANCH   1   6
ATOM      6  C   UNL     1       2.461   7.658  18.896  0.00  0.00    +0.000 C 
BRANCH   6   9
ATOM      7  C   UNL     1       0.895   9.503  19.330  0.00  0.00    +0.000 C 
ATOM      8  O   UNL     1       0.848   9.790  18.138  0.00  0.00    +0.000 OA
ATOM      9  N   UNL     1       1.676   8.474  19.807  0.00  0.00    +0.000 N 
ATOM     10  H   UNL     1       1.552   8.122  20.742  0.00  0.00    +0.000 HD
BRANCH   7  14
ATOM     11  C   UNL     1      -1.351  11.721  22.275  0.00  0.00    +0.000 A 
ATOM     12  C   UNL     1      -0.532  10.641  22.636  0.00  0.00    +0.000 A 
ATOM     13  C   UNL     1       0.193   9.936  21.671  0.00  0.00    +0.000 A 
ATOM     14  C   UNL     1       0.074  10.267  20.317  0.00  0.00    +0.000 A 
ATOM     15  C   UNL     1      -0.817  11.280  19.954  0.00  0.00    +0.000 A 
ATOM     16  C   UNL     1      -1.535  12.011  20.916  0.00  0.00    +0.000 A 
BRANCH  11  18
ATOM     17  C   UNL     1      -1.403  13.729  23.529  0.00  0.00    +0.000 C 
ATOM     18  O   UNL     1      -1.997  12.467  23.224  0.00  0.00    +0.000 OA
ENDBRANCH  11  18
BRANCH  16  19
ATOM     19  O   UNL     1      -2.329  12.962  20.332  0.00  0.00    +0.000 OA
ATOM     20  C   UNL     1      -3.736  12.787  20.330  0.00  0.00    +0.000 C 
ENDBRANCH  16  19
ENDBRANCH   7  14
ENDBRANCH   6   9
ENDBRANCH   1   6
BRANCH   4  21
ATOM     21  S   UNL     1       2.135   2.637  17.854  0.00  0.00    +0.000 S 
BRANCH  21  22
ATOM     22  C   UNL     1       3.540   1.804  18.650  0.00  0.00    +0.000 C 
BRANCH  22  23
ATOM     23  C   UNL     1       4.616   2.805  19.038  0.00  0.00    +0.000 C 
ATOM     24  O   UNL     1       4.997   2.882  20.203  0.00  0.00    +0.000 OA
ATOM     25  N   UNL     1       5.051   3.585  17.988  0.00  0.00    +0.000 N 
ATOM     26  C   UNL     1       5.973   4.577  18.188  0.00  0.00    +0.000 A 
ATOM     27  N   UNL     1       6.757   4.802  19.212  0.00  0.00    +0.000 NA
ATOM     28  N   UNL     1       7.489   5.962  19.055  0.00  0.00    +0.000 NA
ATOM     29  C   UNL     1       7.215   6.568  17.919  0.00  0.00    +0.000 A 
ATOM     30  C   UNL     1       7.767   7.883  17.515  0.00  0.00    +0.000 C 
ATOM     31  S   UNL     1       6.099   5.717  16.922  0.00  0.00    +0.000 S 
ATOM     32  H   UNL     1       4.549   3.599  17.105  0.00  0.00    +0.000 HD
ENDBRANCH  22  23
ENDBRANCH  21  22
ENDBRANCH   4  21
TORSDOF 8
ENDMDL
MODEL 4
REMARK VINA RESULT:      -7.5      2.430      2.754
REMARK  Name = 
REMARK  11 active torsions:
REMARK  status: ('A' for Active; 'I' for Inactive)
REMARK    1  A    between atoms: C_1  and  O_2
REMARK    2  A    between atoms: O_2  and  C_3
REMARK    3  A    between atoms: C_6  and  C_7
REMARK    4  A    between atoms: N_9  and  C_10
REMARK    5  A    between atoms: C_10  and  C_11
REMARK    6  A    between atoms: C_14  and  S_15
REMARK    7  A    between atoms: S_15  and  C_16
REMARK    8  A    between atoms: C_16  and  C_17
REMARK    9  A    between atoms: C_23  and  C_24
REMARK   10  A    between atoms: C_28  and  O_29
REMARK   11  A    between atoms: O_29  and  C_30
REMARK                            x       y       z     vdW  Elec       q    Type
REMARK                         _______ _______ _______ _____ _____    ______ ____
ROOT
ATOM      1  C   UNL     1       2.126   8.285  18.679  0.00  0.00    +0.000 A 
ATOM      2  N   UNL     1       1.596   7.916  19.829  0.00  0.00    +0.000 NA
ATOM      3  N   UNL     1       2.128   6.678  20.117  0.00  0.00    +0.000 NA
ATOM      4  C   UNL     1       2.945   6.373  19.127  0.00  0.00    +0.000 A 
ATOM      5  O   UNL     1       3.001   7.358  18.180  0.00  0.00    +0.000 OA
ENDROOT
BRANCH   1   6
ATOM      6  C   UNL     1       1.904   9.518  17.883  0.00  0.00    +0.000 C 
BRANCH   6   9
ATOM      7  C   UNL     1      -0.099  10.774  18.558  0.00  0.00    +0.000 C 
ATOM      8  O   UNL     1       0.543  11.427  19.374  0.00  0.00    +0.000 OA
ATOM      9  N   UNL     1       0.481   9.795  17.782  0.00  0.00    +0.000 N 
ATOM     10  H   UNL     1      -0.002   9.413  16.985  0.00  0.00    +0.000 HD
BRANCH   7  14
ATOM     11  C   UNL     1      -4.324  11.404  17.933  0.00  0.00    +0.000 A 
ATOM     12  C   UNL     1      -3.497  10.905  16.916  0.00  0.00    +0.000 A 
ATOM     13  C   UNL     1      -2.132  10.701  17.135  0.00  0.00    +0.000 A 
ATOM     14  C   UNL     1      -1.556  11.041  18.364  0.00  0.00    +0.000 A 
ATOM     15  C   UNL     1      -2.365  11.628  19.340  0.00  0.00    +0.000 A 
ATOM     16  C   UNL     1      -3.743  11.817  19.139  0.00  0.00    +0.000 A 
BRANCH  11  18
ATOM     17  C   UNL     1      -6.103  12.696  17.053  0.00  0.00    +0.000 C 
ATOM     18  O   UNL     1      -5.675  11.525  17.750  0.00  0.00    +0.000 OA
ENDBRANCH  11  18
BRANCH  16  19
ATOM     19  O   UNL     1      -4.334  12.389  20.235  0.00  0.00    +0.000 OA
ATOM     20  C   UNL     1      -4.349  13.803  20.358  0.00  0.00    +0.000 C 
ENDBRANCH  16  19
ENDBRANCH   7  14
ENDBRANCH   6   9
ENDBRANCH   1   6
BRANCH   4  21
ATOM     21  S   UNL     1       3.798   4.871  18.990  0.00  0.00    +0.000 S 
BRANCH  21  22
ATOM     22  C   UNL     1       5.500   5.406  19.334  0.00  0.00    +0.000 C 
BRANCH  22  23
ATOM     23  C   UNL     1       6.250   5.693  18.044  0.00  0.00    +0.000 C 
ATOM     24  O   UNL     1       6.898   6.729  17.924  0.00  0.00    +0.000 OA
ATOM     25  N   UNL     1       6.089   4.720  17.080  0.00  0.00    +0.000 N 
ATOM     26  C   UNL     1       6.650   4.863  15.840  0.00  0.00    +0.000 A 
ATOM     27  N   UNL     1       7.572   5.694  15.425  0.00  0.00    +0.000 NA
ATOM     28  N   UNL     1       7.806   5.569  14.071  0.00  0.00    +0.000 NA
ATOM     29  C   UNL     1       7.038   4.653  13.520  0.00  0.00    +0.000 A 
ATOM     30  C   UNL     1       6.989   4.362  12.067  0.00  0.00    +0.000 C 
ATOM     31  S   UNL     1       6.030   3.819  14.638  0.00  0.00    +0.000 S 
ATOM     32  H   UNL     1       5.381   3.998  17.183  0.00  0.00    +0.000 HD
ENDBRANCH  22  23
ENDBRANCH  21  22
ENDBRANCH   4  21
TORSDOF 8
ENDMDL
MODEL 5
REMARK VINA RESULT:      -7.5      1.520      2.065
REMARK  Name = 
REMARK  11 active torsions:
REMARK  status: ('A' for Active; 'I' for Inactive)
REMARK    1  A    between atoms: C_1  and  O_2
REMARK    2  A    between atoms: O_2  and  C_3
REMARK    3  A    between atoms: C_6  and  C_7
REMARK    4  A    between atoms: N_9  and  C_10
REMARK    5  A    between atoms: C_10  and  C_11
REMARK    6  A    between atoms: C_14  and  S_15
REMARK    7  A    between atoms: S_15  and  C_16
REMARK    8  A    between atoms: C_16  and  C_17
REMARK    9  A    between atoms: C_23  and  C_24
REMARK   10  A    between atoms: C_28  and  O_29
REMARK   11  A    between atoms: O_29  and  C_30
REMARK                            x       y       z     vdW  Elec       q    Type
REMARK                         _______ _______ _______ _____ _____    ______ ____
ROOT
ATOM      1  C   UNL     1       2.519   6.102  19.110  0.00  0.00    +0.000 A 
ATOM      2  N   UNL     1       2.344   5.781  20.377  0.00  0.00    +0.000 NA
ATOM      3  N   UNL     1       2.058   4.433  20.397  0.00  0.00    +0.000 NA
ATOM      4  C   UNL     1       2.078   4.020  19.143  0.00  0.00    +0.000 A 
ATOM      5  O   UNL     1       2.376   5.030  18.270  0.00  0.00    +0.000 OA
ENDROOT
BRANCH   1   6
ATOM      6  C   UNL     1       2.832   7.417  18.497  0.00  0.00    +0.000 C 
BRANCH   6   9
ATOM      7  C   UNL     1       1.422   9.425  18.343  0.00  0.00    +0.000 C 
ATOM      8  O   UNL     1       1.556   9.468  17.125  0.00  0.00    +0.000 OA
ATOM      9  N   UNL     1       2.026   8.457  19.113  0.00  0.00    +0.000 N 
ATOM     10  H   UNL     1       1.749   8.310  20.071  0.00  0.00    +0.000 HD
BRANCH   7  14
ATOM     11  C   UNL     1      -1.161  12.223  20.377  0.00  0.00    +0.000 A 
ATOM     12  C   UNL     1      -1.650  11.358  19.388  0.00  0.00    +0.000 A 
ATOM     13  C   UNL     1      -0.802  10.454  18.741  0.00  0.00    +0.000 A 
ATOM     14  C   UNL     1       0.565  10.432  19.039  0.00  0.00    +0.000 A 
ATOM     15  C   UNL     1       1.063  11.361  19.955  0.00  0.00    +0.000 A 
ATOM     16  C   UNL     1       0.217  12.260  20.627  0.00  0.00    +0.000 A 
BRANCH  11  18
ATOM     17  C   UNL     1      -2.789  12.423  22.085  0.00  0.00    +0.000 C 
ATOM     18  O   UNL     1      -2.003  13.050  21.072  0.00  0.00    +0.000 OA
ENDBRANCH  11  18
BRANCH  16  19
ATOM     19  O   UNL     1       0.921  13.060  21.489  0.00  0.00    +0.000 OA
ATOM     20  C   UNL     1       1.919  13.927  20.973  0.00  0.00    +0.000 C 
ENDBRANCH  16  19
ENDBRANCH   7  14
ENDBRANCH   6   9
ENDBRANCH   1   6
BRANCH   4  21
ATOM     21  S   UNL     1       1.697   2.407  18.639  0.00  0.00    +0.000 S 
BRANCH  21  22
ATOM     22  C   UNL     1       3.342   1.792  18.174  0.00  0.00    +0.000 C 
BRANCH  22  23
ATOM     23  C   UNL     1       4.433   2.716  18.691  0.00  0.00    +0.000 C 
ATOM     24  O   UNL     1       4.760   2.684  19.874  0.00  0.00    +0.000 OA
ATOM     25  N   UNL     1       4.946   3.560  17.728  0.00  0.00    +0.000 N 
ATOM     26  C   UNL     1       5.891   4.496  18.050  0.00  0.00    +0.000 A 
ATOM     27  N   UNL     1       6.632   4.608  19.123  0.00  0.00    +0.000 NA
ATOM     28  N   UNL     1       7.412   5.747  19.094  0.00  0.00    +0.000 NA
ATOM     29  C   UNL     1       7.213   6.452  18.000  0.00  0.00    +0.000 A 
ATOM     30  C   UNL     1       7.831   7.773  17.731  0.00  0.00    +0.000 C 
ATOM     31  S   UNL     1       6.117   5.728  16.888  0.00  0.00    +0.000 S 
ATOM     32  H   UNL     1       4.487   3.664  16.828  0.00  0.00    +0.000 HD
ENDBRANCH  22  23
ENDBRANCH  21  22
ENDBRANCH   4  21
TORSDOF 8
ENDMDL
MODEL 6
REMARK VINA RESULT:      -7.3      2.269      3.036
REMARK  Name = 
REMARK  11 active torsions:
REMARK  status: ('A' for Active; 'I' for Inactive)
REMARK    1  A    between atoms: C_1  and  O_2
REMARK    2  A    between atoms: O_2  and  C_3
REMARK    3  A    between atoms: C_6  and  C_7
REMARK    4  A    between atoms: N_9  and  C_10
REMARK    5  A    between atoms: C_10  and  C_11
REMARK    6  A    between atoms: C_14  and  S_15
REMARK    7  A    between atoms: S_15  and  C_16
REMARK    8  A    between atoms: C_16  and  C_17
REMARK    9  A    between atoms: C_23  and  C_24
REMARK   10  A    between atoms: C_28  and  O_29
REMARK   11  A    between atoms: O_29  and  C_30
REMARK                            x       y       z     vdW  Elec       q    Type
REMARK                         _______ _______ _______ _____ _____    ______ ____
ROOT
ATOM      1  C   UNL     1       2.409   6.706  18.499  0.00  0.00    +0.000 A 
ATOM      2  N   UNL     1       2.738   6.577  19.770  0.00  0.00    +0.000 NA
ATOM      3  N   UNL     1       2.530   5.253  20.088  0.00  0.00    +0.000 NA
ATOM      4  C   UNL     1       2.089   4.661  18.994  0.00  0.00    +0.000 A 
ATOM      5  O   UNL     1       1.998   5.526  17.938  0.00  0.00    +0.000 OA
ENDROOT
BRANCH   1   6
ATOM      6  C   UNL     1       2.418   7.910  17.632  0.00  0.00    +0.000 C 
BRANCH   6   9
ATOM      7  C   UNL     1       1.135   9.832  18.472  0.00  0.00    +0.000 C 
ATOM      8  O   UNL     1       0.158   9.518  17.801  0.00  0.00    +0.000 OA
ATOM      9  N   UNL     1       2.306   9.109  18.446  0.00  0.00    +0.000 N 
ATOM     10  H   UNL     1       3.019   9.254  19.143  0.00  0.00    +0.000 HD
BRANCH   7  14
ATOM     11  C   UNL     1       0.964  13.178  21.195  0.00  0.00    +0.000 A 
ATOM     12  C   UNL     1       0.149  12.050  21.366  0.00  0.00    +0.000 A 
ATOM     13  C   UNL     1       0.219  10.972  20.479  0.00  0.00    +0.000 A 
ATOM     14  C   UNL     1       1.074  11.024  19.372  0.00  0.00    +0.000 A 
ATOM     15  C   UNL     1       1.812  12.189  19.153  0.00  0.00    +0.000 A 
ATOM     16  C   UNL     1       1.766  13.270  20.049  0.00  0.00    +0.000 A 
BRANCH  11  18
ATOM     17  C   UNL     1      -0.287  14.873  22.276  0.00  0.00    +0.000 C 
ATOM     18  O   UNL     1       0.960  14.199  22.108  0.00  0.00    +0.000 OA
ENDBRANCH  11  18
BRANCH  16  19
ATOM     19  O   UNL     1       2.583  14.293  19.643  0.00  0.00    +0.000 OA
ATOM     20  C   UNL     1       3.291  14.171  18.419  0.00  0.00    +0.000 C 
ENDBRANCH  16  19
ENDBRANCH   7  14
ENDBRANCH   6   9
ENDBRANCH   1   6
BRANCH   4  21
ATOM     21  S   UNL     1       1.606   3.000  18.907  0.00  0.00    +0.000 S 
BRANCH  21  22
ATOM     22  C   UNL     1       3.110   2.235  18.233  0.00  0.00    +0.000 C 
BRANCH  22  23
ATOM     23  C   UNL     1       4.345   3.025  18.633  0.00  0.00    +0.000 C 
ATOM     24  O   UNL     1       4.897   2.806  19.708  0.00  0.00    +0.000 OA
ATOM     25  N   UNL     1       4.718   3.976  17.707  0.00  0.00    +0.000 N 
ATOM     26  C   UNL     1       5.774   4.812  17.949  0.00  0.00    +0.000 A 
ATOM     27  N   UNL     1       6.719   4.734  18.852  0.00  0.00    +0.000 NA
ATOM     28  N   UNL     1       7.559   5.829  18.815  0.00  0.00    +0.000 NA
ATOM     29  C   UNL     1       7.200   6.694  17.890  0.00  0.00    +0.000 A 
ATOM     30  C   UNL     1       7.847   8.011  17.678  0.00  0.00    +0.000 C 
ATOM     31  S   UNL     1       5.856   6.189  16.941  0.00  0.00    +0.000 S 
ATOM     32  H   UNL     1       4.099   4.230  16.943  0.00  0.00    +0.000 HD
ENDBRANCH  22  23
ENDBRANCH  21  22
ENDBRANCH   4  21
TORSDOF 8
ENDMDL
MODEL 7
REMARK VINA RESULT:      -7.2      2.536      3.361
REMARK  Name = 
REMARK  11 active torsions:
REMARK  status: ('A' for Active; 'I' for Inactive)
REMARK    1  A    between atoms: C_1  and  O_2
REMARK    2  A    between atoms: O_2  and  C_3
REMARK    3  A    between atoms: C_6  and  C_7
REMARK    4  A    between atoms: N_9  and  C_10
REMARK    5  A    between atoms: C_10  and  C_11
REMARK    6  A    between atoms: C_14  and  S_15
REMARK    7  A    between atoms: S_15  and  C_16
REMARK    8  A    between atoms: C_16  and  C_17
REMARK    9  A    between atoms: C_23  and  C_24
REMARK   10  A    between atoms: C_28  and  O_29
REMARK   11  A    between atoms: O_29  and  C_30
REMARK                            x       y       z     vdW  Elec       q    Type
REMARK                         _______ _______ _______ _____ _____    ______ ____
ROOT
ATOM      1  C   UNL     1       2.055   7.779  18.713  0.00  0.00    +0.000 A 
ATOM      2  N   UNL     1       2.254   7.350  19.945  0.00  0.00    +0.000 NA
ATOM      3  N   UNL     1       2.443   5.988  19.851  0.00  0.00    +0.000 NA
ATOM      4  C   UNL     1       2.346   5.676  18.572  0.00  0.00    +0.000 A 
ATOM      5  O   UNL     1       2.111   6.772  17.788  0.00  0.00    +0.000 OA
ENDROOT
BRANCH   1   6
ATOM      6  C   UNL     1       1.783   9.151  18.218  0.00  0.00    +0.000 C 
BRANCH   6   9
ATOM      7  C   UNL     1      -0.188  10.290  19.149  0.00  0.00    +0.000 C 
ATOM      8  O   UNL     1      -0.867   9.986  18.175  0.00  0.00    +0.000 OA
ATOM      9  N   UNL     1       1.139   9.936  19.258  0.00  0.00    +0.000 N 
ATOM     10  H   UNL     1       1.624  10.012  20.137  0.00  0.00    +0.000 HD
BRANCH   7  14
ATOM     11  C   UNL     1      -1.810  12.503  22.482  0.00  0.00    +0.000 A 
ATOM     12  C   UNL     1      -0.941  11.418  22.673  0.00  0.00    +0.000 A 
ATOM     13  C   UNL     1      -0.421  10.715  21.584  0.00  0.00    +0.000 A 
ATOM     14  C   UNL     1      -0.798  11.053  20.280  0.00  0.00    +0.000 A 
ATOM     15  C   UNL     1      -1.737  12.071  20.100  0.00  0.00    +0.000 A 
ATOM     16  C   UNL     1      -2.251  12.800  21.186  0.00  0.00    +0.000 A 
BRANCH  11  18
ATOM     17  C   UNL     1      -1.470  14.395  23.866  0.00  0.00    +0.000 C 
ATOM     18  O   UNL     1      -2.255  13.247  23.541  0.00  0.00    +0.000 OA
ENDBRANCH  11  18
BRANCH  16  19
ATOM     19  O   UNL     1      -3.139  13.757  20.770  0.00  0.00    +0.000 OA
ATOM     20  C   UNL     1      -4.465  13.378  20.438  0.00  0.00    +0.000 C 
ENDBRANCH  16  19
ENDBRANCH   7  14
ENDBRANCH   6   9
ENDBRANCH   1   6
BRANCH   4  21
ATOM     21  S   UNL     1       2.431   4.061  17.950  0.00  0.00    +0.000 S 
BRANCH  21  22
ATOM     22  C   UNL     1       4.057   3.536  18.567  0.00  0.00    +0.000 C 
BRANCH  22  23
ATOM     23  C   UNL     1       5.176   4.192  17.775  0.00  0.00    +0.000 C 
ATOM     24  O   UNL     1       5.864   5.070  18.289  0.00  0.00    +0.000 OA
ATOM     25  N   UNL     1       5.286   3.726  16.482  0.00  0.00    +0.000 N 
ATOM     26  C   UNL     1       6.205   4.261  15.621  0.00  0.00    +0.000 A 
ATOM     27  N   UNL     1       7.237   5.030  15.863  0.00  0.00    +0.000 NA
ATOM     28  N   UNL     1       7.871   5.422  14.702  0.00  0.00    +0.000 NA
ATOM     29  C   UNL     1       7.279   4.940  13.630  0.00  0.00    +0.000 A 
ATOM     30  C   UNL     1       7.669   5.268  12.237  0.00  0.00    +0.000 C 
ATOM     31  S   UNL     1       5.949   3.902  13.970  0.00  0.00    +0.000 S 
ATOM     32  H   UNL     1       4.558   3.148  16.073  0.00  0.00    +0.000 HD
ENDBRANCH  22  23
ENDBRANCH  21  22
ENDBRANCH   4  21
TORSDOF 8
ENDMDL
MODEL 8
REMARK VINA RESULT:      -7.2      4.627     10.439
REMARK  Name = 
REMARK  11 active torsions:
REMARK  status: ('A' for Active; 'I' for Inactive)
REMARK    1  A    between atoms: C_1  and  O_2
REMARK    2  A    between atoms: O_2  and  C_3
REMARK    3  A    between atoms: C_6  and  C_7
REMARK    4  A    between atoms: N_9  and  C_10
REMARK    5  A    between atoms: C_10  and  C_11
REMARK    6  A    between atoms: C_14  and  S_15
REMARK    7  A    between atoms: S_15  and  C_16
REMARK    8  A    between atoms: C_16  and  C_17
REMARK    9  A    between atoms: C_23  and  C_24
REMARK   10  A    between atoms: C_28  and  O_29
REMARK   11  A    between atoms: O_29  and  C_30
REMARK                            x       y       z     vdW  Elec       q    Type
REMARK                         _______ _______ _______ _____ _____    ______ ____
ROOT
ATOM      1  C   UNL     1       0.046  10.395  18.546  0.00  0.00    +0.000 A 
ATOM      2  N   UNL     1      -0.683  10.879  19.533  0.00  0.00    +0.000 NA
ATOM      3  N   UNL     1      -1.997  10.771  19.130  0.00  0.00    +0.000 NA
ATOM      4  C   UNL     1      -1.984  10.229  17.926  0.00  0.00    +0.000 A 
ATOM      5  O   UNL     1      -0.715   9.953  17.496  0.00  0.00    +0.000 OA
ENDROOT
BRANCH   1   6
ATOM      6  C   UNL     1       1.519  10.276  18.424  0.00  0.00    +0.000 C 
BRANCH   6   9
ATOM      7  C   UNL     1       1.898   8.190  19.669  0.00  0.00    +0.000 C 
ATOM      8  O   UNL     1       1.585   8.723  20.727  0.00  0.00    +0.000 OA
ATOM      9  N   UNL     1       1.911   8.878  18.476  0.00  0.00    +0.000 N 
ATOM     10  H   UNL     1       1.971   8.388  17.597  0.00  0.00    +0.000 HD
BRANCH   7  14
ATOM     11  C   UNL     1       2.801   3.968  19.609  0.00  0.00    +0.000 A 
ATOM     12  C   UNL     1       2.003   4.535  20.614  0.00  0.00    +0.000 A 
ATOM     13  C   UNL     1       1.716   5.902  20.617  0.00  0.00    +0.000 A 
ATOM     14  C   UNL     1       2.263   6.741  19.639  0.00  0.00    +0.000 A 
ATOM     15  C   UNL     1       3.134   6.188  18.698  0.00  0.00    +0.000 A 
ATOM     16  C   UNL     1       3.413   4.811  18.671  0.00  0.00    +0.000 A 
BRANCH  11  18
ATOM     17  C   UNL     1       4.271   2.169  20.068  0.00  0.00    +0.000 C 
ATOM     18  O   UNL     1       3.016   2.617  19.554  0.00  0.00    +0.000 OA
ENDBRANCH  11  18
BRANCH  16  19
ATOM     19  O   UNL     1       4.275   4.495  17.654  0.00  0.00    +0.000 OA
ATOM     20  C   UNL     1       4.664   5.502  16.735  0.00  0.00    +0.000 C 
ENDBRANCH  16  19
ENDBRANCH   7  14
ENDBRANCH   6   9
ENDBRANCH   1   6
BRANCH   4  21
ATOM     21  S   UNL     1      -3.396   9.962  16.959  0.00  0.00    +0.000 S 
BRANCH  21  22
ATOM     22  C   UNL     1      -4.315  11.501  17.253  0.00  0.00    +0.000 C 
BRANCH  22  23
ATOM     23  C   UNL     1      -5.307  11.331  18.393  0.00  0.00    +0.000 C 
ATOM     24  O   UNL     1      -6.313  10.644  18.238  0.00  0.00    +0.000 OA
ATOM     25  N   UNL     1      -4.967  12.030  19.532  0.00  0.00    +0.000 N 
ATOM     26  C   UNL     1      -5.791  12.030  20.625  0.00  0.00    +0.000 A 
ATOM     27  N   UNL     1      -6.806  11.254  20.913  0.00  0.00    +0.000 NA
ATOM     28  N   UNL     1      -7.429  11.635  22.084  0.00  0.00    +0.000 NA
ATOM     29  C   UNL     1      -6.862  12.694  22.622  0.00  0.00    +0.000 A 
ATOM     30  C   UNL     1      -7.368  13.395  23.827  0.00  0.00    +0.000 C 
ATOM     31  S   UNL     1      -5.470  13.250  21.776  0.00  0.00    +0.000 S 
ATOM     32  H   UNL     1      -4.231  12.729  19.514  0.00  0.00    +0.000 HD
ENDBRANCH  22  23
ENDBRANCH  21  22
ENDBRANCH   4  21
TORSDOF 8
ENDMDL
MODEL 9
REMARK VINA RESULT:      -7.1      3.759      9.633
REMARK  Name = 
REMARK  11 active torsions:
REMARK  status: ('A' for Active; 'I' for Inactive)
REMARK    1  A    between atoms: C_1  and  O_2
REMARK    2  A    between atoms: O_2  and  C_3
REMARK    3  A    between atoms: C_6  and  C_7
REMARK    4  A    between atoms: N_9  and  C_10
REMARK    5  A    between atoms: C_10  and  C_11
REMARK    6  A    between atoms: C_14  and  S_15
REMARK    7  A    between atoms: S_15  and  C_16
REMARK    8  A    between atoms: C_16  and  C_17
REMARK    9  A    between atoms: C_23  and  C_24
REMARK   10  A    between atoms: C_28  and  O_29
REMARK   11  A    between atoms: O_29  and  C_30
REMARK                            x       y       z     vdW  Elec       q    Type
REMARK                         _______ _______ _______ _____ _____    ______ ____
ROOT
ATOM      1  C   UNL     1       0.403   9.778  20.910  0.00  0.00    +0.000 A 
ATOM      2  N   UNL     1       0.098   8.935  21.878  0.00  0.00    +0.000 NA
ATOM      3  N   UNL     1      -0.669   9.644  22.777  0.00  0.00    +0.000 NA
ATOM      4  C   UNL     1      -0.782  10.870  22.300  0.00  0.00    +0.000 A 
ATOM      5  O   UNL     1      -0.131  11.023  21.106  0.00  0.00    +0.000 OA
ENDROOT
BRANCH   1   6
ATOM      6  C   UNL     1       1.221   9.567  19.690  0.00  0.00    +0.000 C 
BRANCH   6   9
ATOM      7  C   UNL     1       2.343   7.716  18.524  0.00  0.00    +0.000 C 
ATOM      8  O   UNL     1       2.511   8.402  17.522  0.00  0.00    +0.000 OA
ATOM      9  N   UNL     1       1.702   8.197  19.644  0.00  0.00    +0.000 N 
ATOM     10  H   UNL     1       1.749   7.702  20.520  0.00  0.00    +0.000 HD
BRANCH   7  14
ATOM     11  C   UNL     1       3.888   3.693  18.790  0.00  0.00    +0.000 A 
ATOM     12  C   UNL     1       4.677   4.806  19.116  0.00  0.00    +0.000 A 
ATOM     13  C   UNL     1       4.161   6.102  19.030  0.00  0.00    +0.000 A 
ATOM     14  C   UNL     1       2.857   6.313  18.567  0.00  0.00    +0.000 A 
ATOM     15  C   UNL     1       2.110   5.209  18.152  0.00  0.00    +0.000 A 
ATOM     16  C   UNL     1       2.610   3.900  18.254  0.00  0.00    +0.000 A 
BRANCH  11  18
ATOM     17  C   UNL     1       4.536   1.992  20.304  0.00  0.00    +0.000 C 
ATOM     18  O   UNL     1       4.361   2.419  18.953  0.00  0.00    +0.000 OA
ENDBRANCH  11  18
BRANCH  16  19
ATOM     19  O   UNL     1       1.698   2.980  17.807  0.00  0.00    +0.000 OA
ATOM     20  C   UNL     1       0.713   2.486  18.701  0.00  0.00    +0.000 C 
ENDBRANCH  16  19
ENDBRANCH   7  14
ENDBRANCH   6   9
ENDBRANCH   1   6
BRANCH   4  21
ATOM     21  S   UNL     1      -1.592  12.166  23.115  0.00  0.00    +0.000 S 
BRANCH  21  22
ATOM     22  C   UNL     1      -1.869  13.322  21.741  0.00  0.00    +0.000 C 
BRANCH  22  23
ATOM     23  C   UNL     1      -2.840  12.738  20.728  0.00  0.00    +0.000 C 
ATOM     24  O   UNL     1      -3.985  12.450  21.066  0.00  0.00    +0.000 OA
ATOM     25  N   UNL     1      -2.291  12.555  19.476  0.00  0.00    +0.000 N 
ATOM     26  C   UNL     1      -3.020  11.980  18.470  0.00  0.00    +0.000 A 
ATOM     27  N   UNL     1      -4.307  11.760  18.384  0.00  0.00    +0.000 NA
ATOM     28  N   UNL     1      -4.637  11.079  17.230  0.00  0.00    +0.000 NA
ATOM     29  C   UNL     1      -3.577  10.805  16.499  0.00  0.00    +0.000 A 
ATOM     30  C   UNL     1      -3.602   9.998  15.256  0.00  0.00    +0.000 C 
ATOM     31  S   UNL     1      -2.107  11.434  17.134  0.00  0.00    +0.000 S 
ATOM     32  H   UNL     1      -1.289  12.630  19.331  0.00  0.00    +0.000 HD
ENDBRANCH  22  23
ENDBRANCH  21  22
ENDBRANCH   4  21
TORSDOF 8
ENDMDL
