MODEL 1
REMARK VINA RESULT:      -7.9      0.000      0.000
REMARK  Name = 
REMARK  8 active torsions:
REMARK  status: ('A' for Active; 'I' for Inactive)
REMARK    1  A    between atoms: C_1  and  C_2
REMARK    2  A    between atoms: C_2  and  C_3
REMARK    3  A    between atoms: C_3  and  C_4
REMARK    4  A    between atoms: C_4  and  O_5
REMARK    5  A    between atoms: O_5  and  C_6
REMARK    6  A    between atoms: C_11  and  N_12
REMARK    7  A    between atoms: N_15  and  C_16
REMARK    8  A    between atoms: C_16  and  C_17
REMARK                            x       y       z     vdW  Elec       q    Type
REMARK                         _______ _______ _______ _____ _____    ______ ____
ROOT
ATOM      1  N   UNL     1       5.727   3.768  17.620  0.00  0.00    +0.000 N 
ATOM      2  C   UNL     1       4.357   3.643  17.514  0.00  0.00    +0.000 C 
ATOM      3  O   UNL     1       3.559   4.546  17.299  0.00  0.00    +0.000 OA
ATOM      4  N   UNL     1       3.928   2.341  17.668  0.00  0.00    +0.000 N 
ATOM      5  H   UNL     1       6.257   2.928  17.498  0.00  0.00    +0.000 HD
ATOM      6  H   UNL     1       4.504   1.802  18.301  0.00  0.00    +0.000 HD
ENDROOT
BRANCH   1  12
ATOM      7  C   UNL     1       6.562   5.856  16.549  0.00  0.00    +0.000 A 
ATOM      8  C   UNL     1       7.349   7.024  16.665  0.00  0.00    +0.000 A 
ATOM      9  C   UNL     1       7.986   7.362  17.857  0.00  0.00    +0.000 A 
ATOM     10  C   UNL     1       7.866   6.527  18.952  0.00  0.00    +0.000 A 
ATOM     11  C   UNL     1       7.105   5.361  18.850  0.00  0.00    +0.000 A 
ATOM     12  C   UNL     1       6.433   5.002  17.666  0.00  0.00    +0.000 A 
BRANCH   7  13
ATOM     13  O   UNL     1       6.069   5.693  15.282  0.00  0.00    +0.000 OA
BRANCH  13  14
ATOM     14  C   UNL     1       6.734   4.794  14.400  0.00  0.00    +0.000 C 
BRANCH  14  15
ATOM     15  C   UNL     1       5.718   3.794  13.841  0.00  0.00    +0.000 C 
BRANCH  15  17
ATOM     16  C   UNL     1       4.689   3.097  11.632  0.00  0.00    +0.000 C 
ATOM     17  C   UNL     1       5.952   3.546  12.350  0.00  0.00    +0.000 C 
ENDBRANCH  15  17
ENDBRANCH  14  15
ENDBRANCH  13  14
ENDBRANCH   7  13
ENDBRANCH   1  12
BRANCH   4  18
ATOM     18  C   UNL     1       2.497   2.087  17.756  0.00  0.00    +0.000 C 
BRANCH  18  19
ATOM     19  C   UNL     1       2.070   2.157  19.214  0.00  0.00    +0.000 C 
ATOM     20  C   UNL     1       3.214   2.631  20.162  0.00  0.00    +0.000 C 
ATOM     21  S   UNL     1       1.991   3.260  21.279  0.00  0.00    +0.000 S 
ATOM     22  O   UNL     1       2.353   4.572  21.775  0.00  0.00    +0.000 OA
ATOM     23  O   UNL     1       1.457   2.214  22.126  0.00  0.00    +0.000 OA
ATOM     24  C   UNL     1       1.174   3.339  19.710  0.00  0.00    +0.000 C 
ENDBRANCH  18  19
ENDBRANCH   4  18
TORSDOF 7
ENDMDL
MODEL 2
REMARK VINA RESULT:      -7.4      2.898      6.599
REMARK  Name = 
REMARK  8 active torsions:
REMARK  status: ('A' for Active; 'I' for Inactive)
REMARK    1  A    between atoms: C_1  and  C_2
REMARK    2  A    between atoms: C_2  and  C_3
REMARK    3  A    between atoms: C_3  and  C_4
REMARK    4  A    between atoms: C_4  and  O_5
REMARK    5  A    between atoms: O_5  and  C_6
REMARK    6  A    between atoms: C_11  and  N_12
REMARK    7  A    between atoms: N_15  and  C_16
REMARK    8  A    between atoms: C_16  and  C_17
REMARK                            x       y       z     vdW  Elec       q    Type
REMARK                         _______ _______ _______ _____ _____    ______ ____
ROOT
ATOM      1  N   UNL     1       4.741   3.054  19.393  0.00  0.00    +0.000 N 
ATOM      2  C   UNL     1       5.440   4.236  19.259  0.00  0.00    +0.000 C 
ATOM      3  O   UNL     1       5.111   5.329  19.703  0.00  0.00    +0.000 OA
ATOM      4  N   UNL     1       6.614   4.083  18.552  0.00  0.00    +0.000 N 
ATOM      5  H   UNL     1       5.264   2.213  19.245  0.00  0.00    +0.000 HD
ATOM      6  H   UNL     1       6.562   3.366  17.840  0.00  0.00    +0.000 HD
ENDROOT
BRANCH   1  12
ATOM      7  C   UNL     1       2.266   3.241  19.185  0.00  0.00    +0.000 A 
ATOM      8  C   UNL     1       1.007   3.172  19.822  0.00  0.00    +0.000 A 
ATOM      9  C   UNL     1       0.882   2.796  21.158  0.00  0.00    +0.000 A 
ATOM     10  C   UNL     1       2.017   2.501  21.890  0.00  0.00    +0.000 A 
ATOM     11  C   UNL     1       3.270   2.580  21.280  0.00  0.00    +0.000 A 
ATOM     12  C   UNL     1       3.428   2.937  19.928  0.00  0.00    +0.000 A 
BRANCH   7  13
ATOM     13  O   UNL     1       2.163   3.676  17.891  0.00  0.00    +0.000 OA
BRANCH  13  14
ATOM     14  C   UNL     1       1.598   4.959  17.644  0.00  0.00    +0.000 C 
BRANCH  14  15
ATOM     15  C   UNL     1       2.702   6.018  17.722  0.00  0.00    +0.000 C 
BRANCH  15  17
ATOM     16  C   UNL     1       2.263   8.508  17.907  0.00  0.00    +0.000 C 
ATOM     17  C   UNL     1       2.291   7.174  18.637  0.00  0.00    +0.000 C 
ENDBRANCH  15  17
ENDBRANCH  14  15
ENDBRANCH  13  14
ENDBRANCH   7  13
ENDBRANCH   1  12
BRANCH   4  18
ATOM     18  C   UNL     1       7.363   5.276  18.183  0.00  0.00    +0.000 C 
BRANCH  18  19
ATOM     19  C   UNL     1       7.319   5.441  16.671  0.00  0.00    +0.000 C 
ATOM     20  C   UNL     1       7.204   4.083  15.914  0.00  0.00    +0.000 C 
ATOM     21  S   UNL     1       6.406   4.928  14.576  0.00  0.00    +0.000 S 
ATOM     22  O   UNL     1       5.260   4.187  14.092  0.00  0.00    +0.000 OA
ATOM     23  O   UNL     1       7.367   5.561  13.697  0.00  0.00    +0.000 OA
ATOM     24  C   UNL     1       6.008   5.936  15.977  0.00  0.00    +0.000 C 
ENDBRANCH  18  19
ENDBRANCH   4  18
TORSDOF 7
ENDMDL
MODEL 3
REMARK VINA RESULT:      -7.3      0.651      1.077
REMARK  Name = 
REMARK  8 active torsions:
REMARK  status: ('A' for Active; 'I' for Inactive)
REMARK    1  A    between atoms: C_1  and  C_2
REMARK    2  A    between atoms: C_2  and  C_3
REMARK    3  A    between atoms: C_3  and  C_4
REMARK    4  A    between atoms: C_4  and  O_5
REMARK    5  A    between atoms: O_5  and  C_6
REMARK    6  A    between atoms: C_11  and  N_12
REMARK    7  A    between atoms: N_15  and  C_16
REMARK    8  A    between atoms: C_16  and  C_17
REMARK                            x       y       z     vdW  Elec       q    Type
REMARK                         _______ _______ _______ _____ _____    ______ ____
ROOT
ATOM      1  N   UNL     1       6.118   3.961  17.730  0.00  0.00    +0.000 N 
ATOM      2  C   UNL     1       4.770   3.734  17.543  0.00  0.00    +0.000 C 
ATOM      3  O   UNL     1       3.930   4.565  17.222  0.00  0.00    +0.000 OA
ATOM      4  N   UNL     1       4.419   2.416  17.746  0.00  0.00    +0.000 N 
ATOM      5  H   UNL     1       6.710   3.155  17.693  0.00  0.00    +0.000 HD
ATOM      6  H   UNL     1       4.984   1.955  18.446  0.00  0.00    +0.000 HD
ENDROOT
BRANCH   1  12
ATOM      7  C   UNL     1       6.785   6.088  16.618  0.00  0.00    +0.000 A 
ATOM      8  C   UNL     1       7.488   7.310  16.705  0.00  0.00    +0.000 A 
ATOM      9  C   UNL     1       8.120   7.709  17.882  0.00  0.00    +0.000 A 
ATOM     10  C   UNL     1       8.076   6.883  18.990  0.00  0.00    +0.000 A 
ATOM     11  C   UNL     1       7.399   5.665  18.915  0.00  0.00    +0.000 A 
ATOM     12  C   UNL     1       6.735   5.242  17.748  0.00  0.00    +0.000 A 
BRANCH   7  13
ATOM     13  O   UNL     1       6.285   5.873  15.362  0.00  0.00    +0.000 OA
BRANCH  13  14
ATOM     14  C   UNL     1       6.952   4.948  14.509  0.00  0.00    +0.000 C 
BRANCH  14  15
ATOM     15  C   UNL     1       5.948   3.899  14.020  0.00  0.00    +0.000 C 
BRANCH  15  17
ATOM     16  C   UNL     1       4.915   3.286  11.789  0.00  0.00    +0.000 C 
ATOM     17  C   UNL     1       6.204   3.533  12.557  0.00  0.00    +0.000 C 
ENDBRANCH  15  17
ENDBRANCH  14  15
ENDBRANCH  13  14
ENDBRANCH   7  13
ENDBRANCH   1  12
BRANCH   4  18
ATOM     18  C   UNL     1       3.006   2.067  17.755  0.00  0.00    +0.000 C 
BRANCH  18  19
ATOM     19  C   UNL     1       2.293   2.911  18.801  0.00  0.00    +0.000 C 
ATOM     20  C   UNL     1       1.128   2.150  19.506  0.00  0.00    +0.000 C 
ATOM     21  S   UNL     1       1.355   3.177  20.931  0.00  0.00    +0.000 S 
ATOM     22  O   UNL     1       1.308   2.403  22.154  0.00  0.00    +0.000 OA
ATOM     23  O   UNL     1       0.690   4.454  20.778  0.00  0.00    +0.000 OA
ATOM     24  C   UNL     1       2.964   3.163  20.191  0.00  0.00    +0.000 C 
ENDBRANCH  18  19
ENDBRANCH   4  18
TORSDOF 7
ENDMDL
MODEL 4
REMARK VINA RESULT:      -7.3      1.146      1.225
REMARK  Name = 
REMARK  8 active torsions:
REMARK  status: ('A' for Active; 'I' for Inactive)
REMARK    1  A    between atoms: C_1  and  C_2
REMARK    2  A    between atoms: C_2  and  C_3
REMARK    3  A    between atoms: C_3  and  C_4
REMARK    4  A    between atoms: C_4  and  O_5
REMARK    5  A    between atoms: O_5  and  C_6
REMARK    6  A    between atoms: C_11  and  N_12
REMARK    7  A    between atoms: N_15  and  C_16
REMARK    8  A    between atoms: C_16  and  C_17
REMARK                            x       y       z     vdW  Elec       q    Type
REMARK                         _______ _______ _______ _____ _____    ______ ____
ROOT
ATOM      1  N   UNL     1       4.573   4.350  17.503  0.00  0.00    +0.000 N 
ATOM      2  C   UNL     1       3.271   4.685  17.812  0.00  0.00    +0.000 C 
ATOM      3  O   UNL     1       2.867   5.787  18.161  0.00  0.00    +0.000 OA
ATOM      4  N   UNL     1       2.403   3.622  17.681  0.00  0.00    +0.000 N 
ATOM      5  H   UNL     1       4.698   3.519  16.959  0.00  0.00    +0.000 HD
ATOM      6  H   UNL     1       2.829   2.729  17.891  0.00  0.00    +0.000 HD
ENDROOT
BRANCH   1  12
ATOM      7  C   UNL     1       6.344   5.880  16.648  0.00  0.00    +0.000 A 
ATOM      8  C   UNL     1       7.507   6.631  16.926  0.00  0.00    +0.000 A 
ATOM      9  C   UNL     1       8.028   6.725  18.215  0.00  0.00    +0.000 A 
ATOM     10  C   UNL     1       7.405   6.051  19.249  0.00  0.00    +0.000 A 
ATOM     11  C   UNL     1       6.264   5.291  18.989  0.00  0.00    +0.000 A 
ATOM     12  C   UNL     1       5.702   5.192  17.701  0.00  0.00    +0.000 A 
BRANCH   7  13
ATOM     13  O   UNL     1       6.037   5.884  15.313  0.00  0.00    +0.000 OA
BRANCH  13  14
ATOM     14  C   UNL     1       6.772   5.033  14.439  0.00  0.00    +0.000 C 
BRANCH  14  15
ATOM     15  C   UNL     1       5.888   3.854  14.023  0.00  0.00    +0.000 C 
BRANCH  15  17
ATOM     16  C   UNL     1       4.776   3.328  11.807  0.00  0.00    +0.000 C 
ATOM     17  C   UNL     1       6.092   3.507  12.547  0.00  0.00    +0.000 C 
ENDBRANCH  15  17
ENDBRANCH  14  15
ENDBRANCH  13  14
ENDBRANCH   7  13
ENDBRANCH   1  12
BRANCH   4  18
ATOM     18  C   UNL     1       1.032   3.784  18.143  0.00  0.00    +0.000 C 
BRANCH  18  19
ATOM     19  C   UNL     1       0.946   3.359  19.602  0.00  0.00    +0.000 C 
ATOM     20  C   UNL     1       1.752   2.059  19.905  0.00  0.00    +0.000 C 
ATOM     21  S   UNL     1       1.946   2.602  21.581  0.00  0.00    +0.000 S 
ATOM     22  O   UNL     1       3.299   2.393  22.051  0.00  0.00    +0.000 OA
ATOM     23  O   UNL     1       0.776   2.297  22.377  0.00  0.00    +0.000 OA
ATOM     24  C   UNL     1       1.775   4.122  20.687  0.00  0.00    +0.000 C 
ENDBRANCH  18  19
ENDBRANCH   4  18
TORSDOF 7
ENDMDL
MODEL 5
REMARK VINA RESULT:      -7.2      4.821      7.693
REMARK  Name = 
REMARK  8 active torsions:
REMARK  status: ('A' for Active; 'I' for Inactive)
REMARK    1  A    between atoms: C_1  and  C_2
REMARK    2  A    between atoms: C_2  and  C_3
REMARK    3  A    between atoms: C_3  and  C_4
REMARK    4  A    between atoms: C_4  and  O_5
REMARK    5  A    between atoms: O_5  and  C_6
REMARK    6  A    between atoms: C_11  and  N_12
REMARK    7  A    between atoms: N_15  and  C_16
REMARK    8  A    between atoms: C_16  and  C_17
REMARK                            x       y       z     vdW  Elec       q    Type
REMARK                         _______ _______ _______ _____ _____    ______ ____
ROOT
ATOM      1  N   UNL     1       6.592   7.453  16.845  0.00  0.00    +0.000 N 
ATOM      2  C   UNL     1       7.570   7.779  17.761  0.00  0.00    +0.000 C 
ATOM      3  O   UNL     1       8.040   7.039  18.616  0.00  0.00    +0.000 OA
ATOM      4  N   UNL     1       8.016   9.077  17.625  0.00  0.00    +0.000 N 
ATOM      5  H   UNL     1       6.528   8.044  16.039  0.00  0.00    +0.000 HD
ATOM      6  H   UNL     1       7.299   9.714  17.304  0.00  0.00    +0.000 HD
ENDROOT
BRANCH   1  12
ATOM      7  C   UNL     1       5.904   5.294  15.810  0.00  0.00    +0.000 A 
ATOM      8  C   UNL     1       5.059   4.164  15.860  0.00  0.00    +0.000 A 
ATOM      9  C   UNL     1       4.174   3.957  16.916  0.00  0.00    +0.000 A 
ATOM     10  C   UNL     1       4.103   4.888  17.935  0.00  0.00    +0.000 A 
ATOM     11  C   UNL     1       4.919   6.019  17.893  0.00  0.00    +0.000 A 
ATOM     12  C   UNL     1       5.837   6.248  16.850  0.00  0.00    +0.000 A 
BRANCH   7  13
ATOM     13  O   UNL     1       6.655   5.324  14.665  0.00  0.00    +0.000 OA
BRANCH  13  14
ATOM     14  C   UNL     1       6.921   4.099  13.990  0.00  0.00    +0.000 C 
BRANCH  14  15
ATOM     15  C   UNL     1       6.562   4.252  12.509  0.00  0.00    +0.000 C 
BRANCH  15  17
ATOM     16  C   UNL     1       5.938   2.009  11.507  0.00  0.00    +0.000 C 
ATOM     17  C   UNL     1       5.426   3.305  12.117  0.00  0.00    +0.000 C 
ENDBRANCH  15  17
ENDBRANCH  14  15
ENDBRANCH  13  14
ENDBRANCH   7  13
ENDBRANCH   1  12
BRANCH   4  18
ATOM     18  C   UNL     1       8.919   9.610  18.635  0.00  0.00    +0.000 C 
BRANCH  18  19
ATOM     19  C   UNL     1       9.697  10.775  18.040  0.00  0.00    +0.000 C 
ATOM     20  C   UNL     1       8.841  12.071  17.903  0.00  0.00    +0.000 C 
ATOM     21  S   UNL     1      10.324  13.032  18.030  0.00  0.00    +0.000 S 
ATOM     22  O   UNL     1      10.143  14.168  18.910  0.00  0.00    +0.000 OA
ATOM     23  O   UNL     1      11.014  13.117  16.760  0.00  0.00    +0.000 OA
ATOM     24  C   UNL     1      10.729  11.554  18.919  0.00  0.00    +0.000 C 
ENDBRANCH  18  19
ENDBRANCH   4  18
TORSDOF 7
ENDMDL
MODEL 6
REMARK VINA RESULT:      -7.2      4.842      8.367
REMARK  Name = 
REMARK  8 active torsions:
REMARK  status: ('A' for Active; 'I' for Inactive)
REMARK    1  A    between atoms: C_1  and  C_2
REMARK    2  A    between atoms: C_2  and  C_3
REMARK    3  A    between atoms: C_3  and  C_4
REMARK    4  A    between atoms: C_4  and  O_5
REMARK    5  A    between atoms: O_5  and  C_6
REMARK    6  A    between atoms: C_11  and  N_12
REMARK    7  A    between atoms: N_15  and  C_16
REMARK    8  A    between atoms: C_16  and  C_17
REMARK                            x       y       z     vdW  Elec       q    Type
REMARK                         _______ _______ _______ _____ _____    ______ ____
ROOT
ATOM      1  N   UNL     1       6.638   7.366  16.693  0.00  0.00    +0.000 N 
ATOM      2  C   UNL     1       7.580   7.672  17.653  0.00  0.00    +0.000 C 
ATOM      3  O   UNL     1       8.124   6.883  18.415  0.00  0.00    +0.000 OA
ATOM      4  N   UNL     1       7.890   9.015  17.685  0.00  0.00    +0.000 N 
ATOM      5  H   UNL     1       6.513   8.043  15.966  0.00  0.00    +0.000 HD
ATOM      6  H   UNL     1       7.113   9.612  17.437  0.00  0.00    +0.000 HD
ENDROOT
BRANCH   1  12
ATOM      7  C   UNL     1       4.882   5.704  17.293  0.00  0.00    +0.000 A 
ATOM      8  C   UNL     1       4.371   4.397  17.131  0.00  0.00    +0.000 A 
ATOM      9  C   UNL     1       4.941   3.495  16.235  0.00  0.00    +0.000 A 
ATOM     10  C   UNL     1       6.046   3.876  15.497  0.00  0.00    +0.000 A 
ATOM     11  C   UNL     1       6.573   5.158  15.657  0.00  0.00    +0.000 A 
ATOM     12  C   UNL     1       6.009   6.099  16.539  0.00  0.00    +0.000 A 
BRANCH   7  13
ATOM     13  O   UNL     1       4.204   6.404  18.255  0.00  0.00    +0.000 OA
BRANCH  13  14
ATOM     14  C   UNL     1       3.789   5.720  19.433  0.00  0.00    +0.000 C 
BRANCH  14  15
ATOM     15  C   UNL     1       2.371   6.167  19.801  0.00  0.00    +0.000 C 
BRANCH  15  17
ATOM     16  C   UNL     1       1.229   3.905  19.769  0.00  0.00    +0.000 C 
ATOM     17  C   UNL     1       1.649   5.094  20.619  0.00  0.00    +0.000 C 
ENDBRANCH  15  17
ENDBRANCH  14  15
ENDBRANCH  13  14
ENDBRANCH   7  13
ENDBRANCH   1  12
BRANCH   4  18
ATOM     18  C   UNL     1       8.736   9.507  18.763  0.00  0.00    +0.000 C 
BRANCH  18  19
ATOM     19  C   UNL     1       9.615  10.629  18.232  0.00  0.00    +0.000 C 
ATOM     20  C   UNL     1       8.814  11.927  17.907  0.00  0.00    +0.000 C 
ATOM     21  S   UNL     1      10.281  12.875  18.203  0.00  0.00    +0.000 S 
ATOM     22  O   UNL     1       9.997  14.057  18.990  0.00  0.00    +0.000 OA
ATOM     23  O   UNL     1      11.150  12.887  17.045  0.00  0.00    +0.000 OA
ATOM     24  C   UNL     1      10.523  11.441  19.213  0.00  0.00    +0.000 C 
ENDBRANCH  18  19
ENDBRANCH   4  18
TORSDOF 7
ENDMDL
MODEL 7
REMARK VINA RESULT:      -7.1      5.342      8.445
REMARK  Name = 
REMARK  8 active torsions:
REMARK  status: ('A' for Active; 'I' for Inactive)
REMARK    1  A    between atoms: C_1  and  C_2
REMARK    2  A    between atoms: C_2  and  C_3
REMARK    3  A    between atoms: C_3  and  C_4
REMARK    4  A    between atoms: C_4  and  O_5
REMARK    5  A    between atoms: O_5  and  C_6
REMARK    6  A    between atoms: C_11  and  N_12
REMARK    7  A    between atoms: N_15  and  C_16
REMARK    8  A    between atoms: C_16  and  C_17
REMARK                            x       y       z     vdW  Elec       q    Type
REMARK                         _______ _______ _______ _____ _____    ______ ____
ROOT
ATOM      1  N   UNL     1       6.967   7.486  16.773  0.00  0.00    +0.000 N 
ATOM      2  C   UNL     1       7.802   7.804  17.824  0.00  0.00    +0.000 C 
ATOM      3  O   UNL     1       8.178   7.045  18.709  0.00  0.00    +0.000 OA
ATOM      4  N   UNL     1       8.215   9.119  17.797  0.00  0.00    +0.000 N 
ATOM      5  H   UNL     1       6.991   8.106  15.988  0.00  0.00    +0.000 HD
ATOM      6  H   UNL     1       7.526   9.747  17.405  0.00  0.00    +0.000 HD
ENDROOT
BRANCH   1  12
ATOM      7  C   UNL     1       5.003   6.022  17.230  0.00  0.00    +0.000 A 
ATOM      8  C   UNL     1       4.412   4.746  17.103  0.00  0.00    +0.000 A 
ATOM      9  C   UNL     1       5.029   3.721  16.389  0.00  0.00    +0.000 A 
ATOM     10  C   UNL     1       6.262   3.946  15.805  0.00  0.00    +0.000 A 
ATOM     11  C   UNL     1       6.867   5.197  15.935  0.00  0.00    +0.000 A 
ATOM     12  C   UNL     1       6.261   6.259  16.633  0.00  0.00    +0.000 A 
BRANCH   7  13
ATOM     13  O   UNL     1       4.252   6.860  18.010  0.00  0.00    +0.000 OA
BRANCH  13  14
ATOM     14  C   UNL     1       3.011   6.388  18.523  0.00  0.00    +0.000 C 
BRANCH  14  15
ATOM     15  C   UNL     1       2.143   7.585  18.922  0.00  0.00    +0.000 C 
BRANCH  15  17
ATOM     16  C   UNL     1       1.296   9.861  18.195  0.00  0.00    +0.000 C 
ATOM     17  C   UNL     1       2.101   8.631  17.805  0.00  0.00    +0.000 C 
ENDBRANCH  15  17
ENDBRANCH  14  15
ENDBRANCH  13  14
ENDBRANCH   7  13
ENDBRANCH   1  12
BRANCH   4  18
ATOM     18  C   UNL     1       8.955   9.638  18.938  0.00  0.00    +0.000 C 
BRANCH  18  19
ATOM     19  C   UNL     1       9.814  10.809  18.482  0.00  0.00    +0.000 C 
ATOM     20  C   UNL     1       8.972  12.024  17.986  0.00  0.00    +0.000 C 
ATOM     21  S   UNL     1      10.305  13.098  18.439  0.00  0.00    +0.000 S 
ATOM     22  O   UNL     1       9.823  14.281  19.120  0.00  0.00    +0.000 OA
ATOM     23  O   UNL     1      11.328  13.138  17.415  0.00  0.00    +0.000 OA
ATOM     24  C   UNL     1      10.508  11.727  19.541  0.00  0.00    +0.000 C 
ENDBRANCH  18  19
ENDBRANCH   4  18
TORSDOF 7
ENDMDL
MODEL 8
REMARK VINA RESULT:      -7.1      4.967      8.359
REMARK  Name = 
REMARK  8 active torsions:
REMARK  status: ('A' for Active; 'I' for Inactive)
REMARK    1  A    between atoms: C_1  and  C_2
REMARK    2  A    between atoms: C_2  and  C_3
REMARK    3  A    between atoms: C_3  and  C_4
REMARK    4  A    between atoms: C_4  and  O_5
REMARK    5  A    between atoms: O_5  and  C_6
REMARK    6  A    between atoms: C_11  and  N_12
REMARK    7  A    between atoms: N_15  and  C_16
REMARK    8  A    between atoms: C_16  and  C_17
REMARK                            x       y       z     vdW  Elec       q    Type
REMARK                         _______ _______ _______ _____ _____    ______ ____
ROOT
ATOM      1  N   UNL     1       6.880   7.432  16.745  0.00  0.00    +0.000 N 
ATOM      2  C   UNL     1       7.742   7.698  17.788  0.00  0.00    +0.000 C 
ATOM      3  O   UNL     1       8.172   6.889  18.601  0.00  0.00    +0.000 OA
ATOM      4  N   UNL     1       8.116   9.025  17.844  0.00  0.00    +0.000 N 
ATOM      5  H   UNL     1       6.858   8.108  16.007  0.00  0.00    +0.000 HD
ATOM      6  H   UNL     1       7.396   9.657  17.523  0.00  0.00    +0.000 HD
ENDROOT
BRANCH   1  12
ATOM      7  C   UNL     1       5.038   5.831  17.243  0.00  0.00    +0.000 A 
ATOM      8  C   UNL     1       4.480   4.551  17.030  0.00  0.00    +0.000 A 
ATOM      9  C   UNL     1       5.042   3.647  16.130  0.00  0.00    +0.000 A 
ATOM     10  C   UNL     1       6.187   4.000  15.440  0.00  0.00    +0.000 A 
ATOM     11  C   UNL     1       6.760   5.254  15.651  0.00  0.00    +0.000 A 
ATOM     12  C   UNL     1       6.206   6.197  16.538  0.00  0.00    +0.000 A 
BRANCH   7  13
ATOM     13  O   UNL     1       4.357   6.534  18.200  0.00  0.00    +0.000 OA
BRANCH  13  14
ATOM     14  C   UNL     1       2.934   6.478  18.207  0.00  0.00    +0.000 C 
BRANCH  14  15
ATOM     15  C   UNL     1       2.456   6.003  19.583  0.00  0.00    +0.000 C 
BRANCH  15  17
ATOM     16  C   UNL     1       1.437   4.065  20.859  0.00  0.00    +0.000 C 
ATOM     17  C   UNL     1       1.805   4.622  19.493  0.00  0.00    +0.000 C 
ENDBRANCH  15  17
ENDBRANCH  14  15
ENDBRANCH  13  14
ENDBRANCH   7  13
ENDBRANCH   1  12
BRANCH   4  18
ATOM     18  C   UNL     1       8.881   9.482  18.995  0.00  0.00    +0.000 C 
BRANCH  18  19
ATOM     19  C   UNL     1       9.233  10.951  18.806  0.00  0.00    +0.000 C 
ATOM     20  C   UNL     1      10.034  11.543  20.005  0.00  0.00    +0.000 C 
ATOM     21  S   UNL     1      10.761  12.723  18.901  0.00  0.00    +0.000 S 
ATOM     22  O   UNL     1      12.183  12.862  19.137  0.00  0.00    +0.000 OA
ATOM     23  O   UNL     1       9.883  13.852  18.676  0.00  0.00    +0.000 OA
ATOM     24  C   UNL     1      10.390  11.358  17.836  0.00  0.00    +0.000 C 
ENDBRANCH  18  19
ENDBRANCH   4  18
TORSDOF 7
ENDMDL
MODEL 9
REMARK VINA RESULT:      -7.0      1.705      2.122
REMARK  Name = 
REMARK  8 active torsions:
REMARK  status: ('A' for Active; 'I' for Inactive)
REMARK    1  A    between atoms: C_1  and  C_2
REMARK    2  A    between atoms: C_2  and  C_3
REMARK    3  A    between atoms: C_3  and  C_4
REMARK    4  A    between atoms: C_4  and  O_5
REMARK    5  A    between atoms: O_5  and  C_6
REMARK    6  A    between atoms: C_11  and  N_12
REMARK    7  A    between atoms: N_15  and  C_16
REMARK    8  A    between atoms: C_16  and  C_17
REMARK                            x       y       z     vdW  Elec       q    Type
REMARK                         _______ _______ _______ _____ _____    ______ ____
ROOT
ATOM      1  N   UNL     1       6.439   4.406  18.383  0.00  0.00    +0.000 N 
ATOM      2  C   UNL     1       5.362   4.099  19.190  0.00  0.00    +0.000 C 
ATOM      3  O   UNL     1       4.597   4.897  19.715  0.00  0.00    +0.000 OA
ATOM      4  N   UNL     1       5.197   2.740  19.361  0.00  0.00    +0.000 N 
ATOM      5  H   UNL     1       6.777   3.667  17.799  0.00  0.00    +0.000 HD
ATOM      6  H   UNL     1       6.067   2.227  19.350  0.00  0.00    +0.000 HD
ENDROOT
BRANCH   1  12
ATOM      7  C   UNL     1       6.610   6.492  17.031  0.00  0.00    +0.000 A 
ATOM      8  C   UNL     1       7.223   7.751  16.854  0.00  0.00    +0.000 A 
ATOM      9  C   UNL     1       8.138   8.256  17.776  0.00  0.00    +0.000 A 
ATOM     10  C   UNL     1       8.473   7.500  18.884  0.00  0.00    +0.000 A 
ATOM     11  C   UNL     1       7.888   6.246  19.065  0.00  0.00    +0.000 A 
ATOM     12  C   UNL     1       6.946   5.717  18.163  0.00  0.00    +0.000 A 
BRANCH   7  13
ATOM     13  O   UNL     1       5.784   6.172  15.987  0.00  0.00    +0.000 OA
BRANCH  13  14
ATOM     14  C   UNL     1       5.662   4.805  15.604  0.00  0.00    +0.000 C 
BRANCH  14  15
ATOM     15  C   UNL     1       6.582   4.533  14.411  0.00  0.00    +0.000 C 
BRANCH  15  17
ATOM     16  C   UNL     1       6.711   3.546  12.080  0.00  0.00    +0.000 C 
ATOM     17  C   UNL     1       5.844   3.771  13.309  0.00  0.00    +0.000 C 
ENDBRANCH  15  17
ENDBRANCH  14  15
ENDBRANCH  13  14
ENDBRANCH   7  13
ENDBRANCH   1  12
BRANCH   4  18
ATOM     18  C   UNL     1       4.211   2.278  20.327  0.00  0.00    +0.000 C 
BRANCH  18  19
ATOM     19  C   UNL     1       2.865   2.131  19.631  0.00  0.00    +0.000 C 
ATOM     20  C   UNL     1       1.966   3.397  19.773  0.00  0.00    +0.000 C 
ATOM     21  S   UNL     1       1.167   2.966  18.251  0.00  0.00    +0.000 S 
ATOM     22  O   UNL     1       0.990   4.125  17.401  0.00  0.00    +0.000 OA
ATOM     23  O   UNL     1       0.136   1.970  18.454  0.00  0.00    +0.000 OA
ATOM     24  C   UNL     1       2.775   2.245  18.074  0.00  0.00    +0.000 C 
ENDBRANCH  18  19
ENDBRANCH   4  18
TORSDOF 7
ENDMDL
