MODEL 1
REMARK VINA RESULT:      -8.1      0.000      0.000
REMARK  Name = 
REMARK  3 active torsions:
REMARK  status: ('A' for Active; 'I' for Inactive)
REMARK    1  A    between atoms: C_1  and  C_12
REMARK    2  A    between atoms: C_2  and  C_3
REMARK    3  A    between atoms: N_15  and  C_16
REMARK                            x       y       z     vdW  Elec       q    Type
REMARK                         _______ _______ _______ _____ _____    ______ ____
ROOT
ATOM      1  C   UNL     1       8.225   8.805  17.800  0.00  0.00    +0.000 C 
ATOM      2  C   UNL     1       8.678   9.518  18.845  0.00  0.00    +0.000 C 
ENDROOT
BRANCH   2   3
ATOM      3  C   UNL     1       9.495  10.681  18.714  0.00  0.00    +0.000 A 
ATOM      4  C   UNL     1      10.278  10.987  17.621  0.00  0.00    +0.000 A 
ATOM      5  N   UNL     1      10.923  12.166  17.879  0.00  0.00    +0.000 N 
ATOM      6  C   UNL     1      10.580  12.628  19.129  0.00  0.00    +0.000 A 
ATOM      7  C   UNL     1      11.008  13.776  19.805  0.00  0.00    +0.000 A 
ATOM      8  C   UNL     1      10.500  14.000  21.087  0.00  0.00    +0.000 A 
ATOM      9  C   UNL     1       9.601  13.111  21.668  0.00  0.00    +0.000 A 
ATOM     10  C   UNL     1       9.180  11.967  20.977  0.00  0.00    +0.000 A 
ATOM     11  C   UNL     1       9.675  11.718  19.680  0.00  0.00    +0.000 A 
ATOM     12  H   UNL     1      11.563  12.629  17.255  0.00  0.00    +0.000 HD
ENDBRANCH   2   3
BRANCH   1  13
ATOM     13  C   UNL     1       7.454   7.567  17.892  0.00  0.00    +0.000 A 
ATOM     14  C   UNL     1       7.810   6.484  18.689  0.00  0.00    +0.000 A 
ATOM     15  C   UNL     1       7.018   5.337  18.692  0.00  0.00    +0.000 A 
ATOM     16  N   UNL     1       5.898   5.256  17.927  0.00  0.00    +0.000 N 
ATOM     17  C   UNL     1       5.522   6.334  17.201  0.00  0.00    +0.000 A 
ATOM     18  C   UNL     1       6.277   7.491  17.162  0.00  0.00    +0.000 A 
BRANCH  16  19
ATOM     19  C   UNL     1       5.146   3.951  17.869  0.00  0.00    +0.000 C 
ATOM     20  C   UNL     1       4.800   3.404  19.252  0.00  0.00    +0.000 C 
ATOM     21  C   UNL     1       3.579   4.041  19.910  0.00  0.00    +0.000 C 
ATOM     22  C   UNL     1       2.387   4.212  18.969  0.00  0.00    +0.000 C 
ATOM     23  C   UNL     1       2.714   4.720  17.565  0.00  0.00    +0.000 C 
ATOM     24  C   UNL     1       3.935   4.051  16.942  0.00  0.00    +0.000 C 
ENDBRANCH  16  19
ENDBRANCH   1  13
TORSDOF 3
ENDMDL
MODEL 2
REMARK VINA RESULT:      -8.1      0.408      1.060
REMARK  Name = 
REMARK  3 active torsions:
REMARK  status: ('A' for Active; 'I' for Inactive)
REMARK    1  A    between atoms: C_1  and  C_12
REMARK    2  A    between atoms: C_2  and  C_3
REMARK    3  A    between atoms: N_15  and  C_16
REMARK                            x       y       z     vdW  Elec       q    Type
REMARK                         _______ _______ _______ _____ _____    ______ ____
ROOT
ATOM      1  C   UNL     1       8.208   9.066  17.848  0.00  0.00    +0.000 C 
ATOM      2  C   UNL     1       8.903   9.563  18.884  0.00  0.00    +0.000 C 
ENDROOT
BRANCH   2   3
ATOM      3  C   UNL     1       9.613  10.801  18.840  0.00  0.00    +0.000 A 
ATOM      4  C   UNL     1      10.391  11.238  17.788  0.00  0.00    +0.000 A 
ATOM      5  N   UNL     1      10.918  12.453  18.127  0.00  0.00    +0.000 N 
ATOM      6  C   UNL     1      10.505  12.812  19.390  0.00  0.00    +0.000 A 
ATOM      7  C   UNL     1      10.810  13.954  20.138  0.00  0.00    +0.000 A 
ATOM      8  C   UNL     1      10.253  14.059  21.415  0.00  0.00    +0.000 A 
ATOM      9  C   UNL     1       9.426  13.061  21.921  0.00  0.00    +0.000 A 
ATOM     10  C   UNL     1       9.128  11.924  21.159  0.00  0.00    +0.000 A 
ATOM     11  C   UNL     1       9.675  11.794  19.864  0.00  0.00    +0.000 A 
ATOM     12  H   UNL     1      11.527  13.007  17.547  0.00  0.00    +0.000 HD
ENDBRANCH   2   3
BRANCH   1  13
ATOM     13  C   UNL     1       7.535   7.770  17.826  0.00  0.00    +0.000 A 
ATOM     14  C   UNL     1       6.462   7.461  16.996  0.00  0.00    +0.000 A 
ATOM     15  C   UNL     1       5.874   6.199  17.065  0.00  0.00    +0.000 A 
ATOM     16  N   UNL     1       6.333   5.258  17.931  0.00  0.00    +0.000 N 
ATOM     17  C   UNL     1       7.415   5.541  18.692  0.00  0.00    +0.000 A 
ATOM     18  C   UNL     1       8.028   6.779  18.663  0.00  0.00    +0.000 A 
BRANCH  16  19
ATOM     19  C   UNL     1       5.585   3.955  18.056  0.00  0.00    +0.000 C 
ATOM     20  C   UNL     1       4.978   3.750  19.442  0.00  0.00    +0.000 C 
ATOM     21  C   UNL     1       3.666   4.490  19.686  0.00  0.00    +0.000 C 
ATOM     22  C   UNL     1       2.673   4.389  18.528  0.00  0.00    +0.000 C 
ATOM     23  C   UNL     1       3.266   4.551  17.128  0.00  0.00    +0.000 C 
ATOM     24  C   UNL     1       4.571   3.789  16.925  0.00  0.00    +0.000 C 
ENDBRANCH  16  19
ENDBRANCH   1  13
TORSDOF 3
ENDMDL
MODEL 3
REMARK VINA RESULT:      -7.9      5.823      7.114
REMARK  Name = 
REMARK  3 active torsions:
REMARK  status: ('A' for Active; 'I' for Inactive)
REMARK    1  A    between atoms: C_1  and  C_12
REMARK    2  A    between atoms: C_2  and  C_3
REMARK    3  A    between atoms: N_15  and  C_16
REMARK                            x       y       z     vdW  Elec       q    Type
REMARK                         _______ _______ _______ _____ _____    ______ ____
ROOT
ATOM      1  C   UNL     1       1.543   9.521  18.405  0.00  0.00    +0.000 C 
ATOM      2  C   UNL     1       0.433  10.035  18.961  0.00  0.00    +0.000 C 
ENDROOT
BRANCH   2   3
ATOM      3  C   UNL     1      -0.021  11.369  18.730  0.00  0.00    +0.000 A 
ATOM      4  C   UNL     1      -1.219  11.713  18.138  0.00  0.00    +0.000 A 
ATOM      5  N   UNL     1      -1.284  13.078  18.077  0.00  0.00    +0.000 N 
ATOM      6  C   UNL     1      -0.143  13.630  18.611  0.00  0.00    +0.000 A 
ATOM      7  C   UNL     1       0.223  14.974  18.740  0.00  0.00    +0.000 A 
ATOM      8  C   UNL     1       1.462  15.256  19.320  0.00  0.00    +0.000 A 
ATOM      9  C   UNL     1       2.301  14.233  19.752  0.00  0.00    +0.000 A 
ATOM     10  C   UNL     1       1.920  12.891  19.619  0.00  0.00    +0.000 A 
ATOM     11  C   UNL     1       0.671  12.579  19.039  0.00  0.00    +0.000 A 
ATOM     12  H   UNL     1      -2.049  13.608  17.691  0.00  0.00    +0.000 HD
ENDBRANCH   2   3
BRANCH   1  13
ATOM     13  C   UNL     1       2.084   8.191  18.676  0.00  0.00    +0.000 A 
ATOM     14  C   UNL     1       2.905   7.489  17.799  0.00  0.00    +0.000 A 
ATOM     15  C   UNL     1       3.355   6.215  18.142  0.00  0.00    +0.000 A 
ATOM     16  N   UNL     1       3.006   5.642  19.323  0.00  0.00    +0.000 N 
ATOM     17  C   UNL     1       2.258   6.352  20.199  0.00  0.00    +0.000 A 
ATOM     18  C   UNL     1       1.785   7.616  19.902  0.00  0.00    +0.000 A 
BRANCH  16  19
ATOM     19  C   UNL     1       3.413   4.216  19.591  0.00  0.00    +0.000 C 
ATOM     20  C   UNL     1       2.563   3.549  20.670  0.00  0.00    +0.000 C 
ATOM     21  C   UNL     1       1.206   3.038  20.197  0.00  0.00    +0.000 C 
ATOM     22  C   UNL     1       1.255   2.292  18.864  0.00  0.00    +0.000 C 
ATOM     23  C   UNL     1       2.132   2.920  17.781  0.00  0.00    +0.000 C 
ATOM     24  C   UNL     1       3.483   3.408  18.295  0.00  0.00    +0.000 C 
ENDBRANCH  16  19
ENDBRANCH   1  13
TORSDOF 3
ENDMDL
MODEL 4
REMARK VINA RESULT:      -7.9      1.831      9.266
REMARK  Name = 
REMARK  3 active torsions:
REMARK  status: ('A' for Active; 'I' for Inactive)
REMARK    1  A    between atoms: C_1  and  C_12
REMARK    2  A    between atoms: C_2  and  C_3
REMARK    3  A    between atoms: N_15  and  C_16
REMARK                            x       y       z     vdW  Elec       q    Type
REMARK                         _______ _______ _______ _____ _____    ______ ____
ROOT
ATOM      1  C   UNL     1       8.728   9.219  18.712  0.00  0.00    +0.000 C 
ATOM      2  C   UNL     1       8.025   8.518  17.807  0.00  0.00    +0.000 C 
ENDROOT
BRANCH   2   3
ATOM      3  C   UNL     1       7.634   7.157  17.991  0.00  0.00    +0.000 A 
ATOM      4  C   UNL     1       8.109   6.316  18.977  0.00  0.00    +0.000 A 
ATOM      5  N   UNL     1       7.515   5.095  18.814  0.00  0.00    +0.000 N 
ATOM      6  C   UNL     1       6.667   5.123  17.730  0.00  0.00    +0.000 A 
ATOM      7  C   UNL     1       5.874   4.104  17.191  0.00  0.00    +0.000 A 
ATOM      8  C   UNL     1       5.106   4.408  16.064  0.00  0.00    +0.000 A 
ATOM      9  C   UNL     1       5.133   5.680  15.501  0.00  0.00    +0.000 A 
ATOM     10  C   UNL     1       5.931   6.691  16.053  0.00  0.00    +0.000 A 
ATOM     11  C   UNL     1       6.714   6.411  17.193  0.00  0.00    +0.000 A 
ATOM     12  H   UNL     1       7.676   4.287  19.393  0.00  0.00    +0.000 HD
ENDBRANCH   2   3
BRANCH   1  13
ATOM     13  C   UNL     1       9.215  10.584  18.529  0.00  0.00    +0.000 A 
ATOM     14  C   UNL     1      10.434  11.049  19.013  0.00  0.00    +0.000 A 
ATOM     15  C   UNL     1      10.800  12.377  18.804  0.00  0.00    +0.000 A 
ATOM     16  N   UNL     1       9.985  13.233  18.132  0.00  0.00    +0.000 N 
ATOM     17  C   UNL     1       8.829  12.761  17.611  0.00  0.00    +0.000 A 
ATOM     18  C   UNL     1       8.421  11.454  17.796  0.00  0.00    +0.000 A 
BRANCH  16  19
ATOM     19  C   UNL     1      10.369  14.687  18.042  0.00  0.00    +0.000 C 
ATOM     20  C   UNL     1       9.160  15.616  17.963  0.00  0.00    +0.000 C 
ATOM     21  C   UNL     1       8.485  15.910  19.300  0.00  0.00    +0.000 C 
ATOM     22  C   UNL     1       9.463  16.222  20.432  0.00  0.00    +0.000 C 
ATOM     23  C   UNL     1      10.702  15.330  20.506  0.00  0.00    +0.000 C 
ATOM     24  C   UNL     1      11.350  15.070  19.151  0.00  0.00    +0.000 C 
ENDBRANCH  16  19
ENDBRANCH   1  13
TORSDOF 3
ENDMDL
MODEL 5
REMARK VINA RESULT:      -7.9      5.488      8.560
REMARK  Name = 
REMARK  3 active torsions:
REMARK  status: ('A' for Active; 'I' for Inactive)
REMARK    1  A    between atoms: C_1  and  C_12
REMARK    2  A    between atoms: C_2  and  C_3
REMARK    3  A    between atoms: N_15  and  C_16
REMARK                            x       y       z     vdW  Elec       q    Type
REMARK                         _______ _______ _______ _____ _____    ______ ____
ROOT
ATOM      1  C   UNL     1       1.446   8.547  19.068  0.00  0.00    +0.000 C 
ATOM      2  C   UNL     1       1.179   9.644  18.340  0.00  0.00    +0.000 C 
ENDROOT
BRANCH   2   3
ATOM      3  C   UNL     1       0.128  10.561  18.648  0.00  0.00    +0.000 A 
ATOM      4  C   UNL     1       0.221  11.612  19.537  0.00  0.00    +0.000 A 
ATOM      5  N   UNL     1      -0.992  12.243  19.573  0.00  0.00    +0.000 N 
ATOM      6  C   UNL     1      -1.879  11.613  18.730  0.00  0.00    +0.000 A 
ATOM      7  C   UNL     1      -3.221  11.905  18.467  0.00  0.00    +0.000 A 
ATOM      8  C   UNL     1      -3.898  11.083  17.561  0.00  0.00    +0.000 A 
ATOM      9  C   UNL     1      -3.254  10.014  16.945  0.00  0.00    +0.000 A 
ATOM     10  C   UNL     1      -1.908   9.736  17.217  0.00  0.00    +0.000 A 
ATOM     11  C   UNL     1      -1.201  10.552  18.126  0.00  0.00    +0.000 A 
ATOM     12  H   UNL     1      -1.214  13.046  20.139  0.00  0.00    +0.000 HD
ENDBRANCH   2   3
BRANCH   1  13
ATOM     13  C   UNL     1       2.458   7.545  18.743  0.00  0.00    +0.000 A 
ATOM     14  C   UNL     1       3.286   7.604  17.627  0.00  0.00    +0.000 A 
ATOM     15  C   UNL     1       4.207   6.585  17.393  0.00  0.00    +0.000 A 
ATOM     16  N   UNL     1       4.315   5.528  18.241  0.00  0.00    +0.000 N 
ATOM     17  C   UNL     1       3.551   5.505  19.357  0.00  0.00    +0.000 A 
ATOM     18  C   UNL     1       2.620   6.489  19.629  0.00  0.00    +0.000 A 
BRANCH  16  19
ATOM     19  C   UNL     1       5.236   4.393  17.878  0.00  0.00    +0.000 C 
ATOM     20  C   UNL     1       4.926   3.789  16.510  0.00  0.00    +0.000 C 
ATOM     21  C   UNL     1       5.474   4.572  15.321  0.00  0.00    +0.000 C 
ATOM     22  C   UNL     1       6.916   5.044  15.502  0.00  0.00    +0.000 C 
ATOM     23  C   UNL     1       7.262   5.615  16.877  0.00  0.00    +0.000 C 
ATOM     24  C   UNL     1       6.703   4.798  18.037  0.00  0.00    +0.000 C 
ENDBRANCH  16  19
ENDBRANCH   1  13
TORSDOF 3
ENDMDL
MODEL 6
REMARK VINA RESULT:      -7.9      5.626      8.680
REMARK  Name = 
REMARK  3 active torsions:
REMARK  status: ('A' for Active; 'I' for Inactive)
REMARK    1  A    between atoms: C_1  and  C_12
REMARK    2  A    between atoms: C_2  and  C_3
REMARK    3  A    between atoms: N_15  and  C_16
REMARK                            x       y       z     vdW  Elec       q    Type
REMARK                         _______ _______ _______ _____ _____    ______ ____
ROOT
ATOM      1  C   UNL     1       1.228   8.699  19.056  0.00  0.00    +0.000 C 
ATOM      2  C   UNL     1       1.089   9.954  18.597  0.00  0.00    +0.000 C 
ENDROOT
BRANCH   2   3
ATOM      3  C   UNL     1      -0.013  10.799  18.927  0.00  0.00    +0.000 A 
ATOM      4  C   UNL     1       0.018  11.832  19.841  0.00  0.00    +0.000 A 
ATOM      5  N   UNL     1      -1.229  12.390  19.893  0.00  0.00    +0.000 N 
ATOM      6  C   UNL     1      -2.079  11.729  19.035  0.00  0.00    +0.000 A 
ATOM      7  C   UNL     1      -3.436  11.948  18.779  0.00  0.00    +0.000 A 
ATOM      8  C   UNL     1      -4.064  11.110  17.853  0.00  0.00    +0.000 A 
ATOM      9  C   UNL     1      -3.360  10.096  17.211  0.00  0.00    +0.000 A 
ATOM     10  C   UNL     1      -2.000   9.891  17.476  0.00  0.00    +0.000 A 
ATOM     11  C   UNL     1      -1.340  10.725  18.405  0.00  0.00    +0.000 A 
ATOM     12  H   UNL     1      -1.498  13.165  20.478  0.00  0.00    +0.000 HD
ENDBRANCH   2   3
BRANCH   1  13
ATOM     13  C   UNL     1       2.296   7.776  18.680  0.00  0.00    +0.000 A 
ATOM     14  C   UNL     1       2.580   6.594  19.357  0.00  0.00    +0.000 A 
ATOM     15  C   UNL     1       3.636   5.790  18.933  0.00  0.00    +0.000 A 
ATOM     16  N   UNL     1       4.398   6.139  17.863  0.00  0.00    +0.000 N 
ATOM     17  C   UNL     1       4.080   7.257  17.171  0.00  0.00    +0.000 A 
ATOM     18  C   UNL     1       3.046   8.089  17.556  0.00  0.00    +0.000 A 
BRANCH  16  19
ATOM     19  C   UNL     1       5.603   5.302  17.521  0.00  0.00    +0.000 C 
ATOM     20  C   UNL     1       6.625   6.052  16.669  0.00  0.00    +0.000 C 
ATOM     21  C   UNL     1       7.540   6.997  17.443  0.00  0.00    +0.000 C 
ATOM     22  C   UNL     1       8.095   6.400  18.736  0.00  0.00    +0.000 C 
ATOM     23  C   UNL     1       7.101   5.610  19.585  0.00  0.00    +0.000 C 
ATOM     24  C   UNL     1       6.213   4.672  18.774  0.00  0.00    +0.000 C 
ENDBRANCH  16  19
ENDBRANCH   1  13
TORSDOF 3
ENDMDL
MODEL 7
REMARK VINA RESULT:      -7.9      5.464      8.469
REMARK  Name = 
REMARK  3 active torsions:
REMARK  status: ('A' for Active; 'I' for Inactive)
REMARK    1  A    between atoms: C_1  and  C_12
REMARK    2  A    between atoms: C_2  and  C_3
REMARK    3  A    between atoms: N_15  and  C_16
REMARK                            x       y       z     vdW  Elec       q    Type
REMARK                         _______ _______ _______ _____ _____    ______ ____
ROOT
ATOM      1  C   UNL     1       1.561   8.497  19.226  0.00  0.00    +0.000 C 
ATOM      2  C   UNL     1       1.152   9.456  18.378  0.00  0.00    +0.000 C 
ENDROOT
BRANCH   2   3
ATOM      3  C   UNL     1       0.179  10.446  18.713  0.00  0.00    +0.000 A 
ATOM      4  C   UNL     1       0.368  11.480  19.606  0.00  0.00    +0.000 A 
ATOM      5  N   UNL     1      -0.793  12.200  19.672  0.00  0.00    +0.000 N 
ATOM      6  C   UNL     1      -1.741  11.644  18.843  0.00  0.00    +0.000 A 
ATOM      7  C   UNL     1      -3.063  12.037  18.610  0.00  0.00    +0.000 A 
ATOM      8  C   UNL     1      -3.817  11.276  17.714  0.00  0.00    +0.000 A 
ATOM      9  C   UNL     1      -3.269  10.166  17.078  0.00  0.00    +0.000 A 
ATOM     10  C   UNL     1      -1.942   9.786  17.320  0.00  0.00    +0.000 A 
ATOM     11  C   UNL     1      -1.157  10.540  18.219  0.00  0.00    +0.000 A 
ATOM     12  H   UNL     1      -0.943  13.014  20.247  0.00  0.00    +0.000 HD
ENDBRANCH   2   3
BRANCH   1  13
ATOM     13  C   UNL     1       2.492   7.421  18.897  0.00  0.00    +0.000 A 
ATOM     14  C   UNL     1       2.628   6.253  19.641  0.00  0.00    +0.000 A 
ATOM     15  C   UNL     1       3.562   5.292  19.257  0.00  0.00    +0.000 A 
ATOM     16  N   UNL     1       4.347   5.475  18.162  0.00  0.00    +0.000 N 
ATOM     17  C   UNL     1       4.168   6.584  17.408  0.00  0.00    +0.000 A 
ATOM     18  C   UNL     1       3.259   7.566  17.751  0.00  0.00    +0.000 A 
BRANCH  16  19
ATOM     19  C   UNL     1       5.425   4.467  17.861  0.00  0.00    +0.000 C 
ATOM     20  C   UNL     1       5.163   3.680  16.579  0.00  0.00    +0.000 C 
ATOM     21  C   UNL     1       5.528   4.410  15.290  0.00  0.00    +0.000 C 
ATOM     22  C   UNL     1       6.880   5.120  15.342  0.00  0.00    +0.000 C 
ATOM     23  C   UNL     1       7.183   5.881  16.632  0.00  0.00    +0.000 C 
ATOM     24  C   UNL     1       6.811   5.113  17.896  0.00  0.00    +0.000 C 
ENDBRANCH  16  19
ENDBRANCH   1  13
TORSDOF 3
ENDMDL
MODEL 8
REMARK VINA RESULT:      -7.8      5.870      9.225
REMARK  Name = 
REMARK  3 active torsions:
REMARK  status: ('A' for Active; 'I' for Inactive)
REMARK    1  A    between atoms: C_1  and  C_12
REMARK    2  A    between atoms: C_2  and  C_3
REMARK    3  A    between atoms: N_15  and  C_16
REMARK                            x       y       z     vdW  Elec       q    Type
REMARK                         _______ _______ _______ _____ _____    ______ ____
ROOT
ATOM      1  C   UNL     1       1.023   9.029  18.879  0.00  0.00    +0.000 C 
ATOM      2  C   UNL     1       0.235   9.633  17.975  0.00  0.00    +0.000 C 
ENDROOT
BRANCH   2   3
ATOM      3  C   UNL     1      -0.879  10.456  18.322  0.00  0.00    +0.000 A 
ATOM      4  C   UNL     1      -0.977  11.228  19.461  0.00  0.00    +0.000 A 
ATOM      5  N   UNL     1      -2.194  11.853  19.445  0.00  0.00    +0.000 N 
ATOM      6  C   UNL     1      -2.896  11.491  18.318  0.00  0.00    +0.000 A 
ATOM      7  C   UNL     1      -4.177  11.872  17.904  0.00  0.00    +0.000 A 
ATOM      8  C   UNL     1      -4.656  11.339  16.704  0.00  0.00    +0.000 A 
ATOM      9  C   UNL     1      -3.882  10.461  15.952  0.00  0.00    +0.000 A 
ATOM     10  C   UNL     1      -2.600  10.090  16.378  0.00  0.00    +0.000 A 
ATOM     11  C   UNL     1      -2.091  10.617  17.585  0.00  0.00    +0.000 A 
ATOM     12  H   UNL     1      -2.537  12.480  20.155  0.00  0.00    +0.000 HD
ENDBRANCH   2   3
BRANCH   1  13
ATOM     13  C   UNL     1       2.122   8.117  18.567  0.00  0.00    +0.000 A 
ATOM     14  C   UNL     1       2.992   8.282  17.494  0.00  0.00    +0.000 A 
ATOM     15  C   UNL     1       3.997   7.344  17.268  0.00  0.00    +0.000 A 
ATOM     16  N   UNL     1       4.147   6.265  18.081  0.00  0.00    +0.000 N 
ATOM     17  C   UNL     1       3.338   6.142  19.159  0.00  0.00    +0.000 A 
ATOM     18  C   UNL     1       2.324   7.043  19.421  0.00  0.00    +0.000 A 
BRANCH  16  19
ATOM     19  C   UNL     1       5.167   5.216  17.722  0.00  0.00    +0.000 C 
ATOM     20  C   UNL     1       6.181   5.703  16.689  0.00  0.00    +0.000 C 
ATOM     21  C   UNL     1       7.309   6.563  17.250  0.00  0.00    +0.000 C 
ATOM     22  C   UNL     1       7.918   6.020  18.542  0.00  0.00    +0.000 C 
ATOM     23  C   UNL     1       6.925   5.489  19.575  0.00  0.00    +0.000 C 
ATOM     24  C   UNL     1       5.820   4.628  18.974  0.00  0.00    +0.000 C 
ENDBRANCH  16  19
ENDBRANCH   1  13
TORSDOF 3
ENDMDL
MODEL 9
REMARK VINA RESULT:      -7.8      1.441      1.955
REMARK  Name = 
REMARK  3 active torsions:
REMARK  status: ('A' for Active; 'I' for Inactive)
REMARK    1  A    between atoms: C_1  and  C_12
REMARK    2  A    between atoms: C_2  and  C_3
REMARK    3  A    between atoms: N_15  and  C_16
REMARK                            x       y       z     vdW  Elec       q    Type
REMARK                         _______ _______ _______ _____ _____    ______ ____
ROOT
ATOM      1  C   UNL     1       8.473   8.543  18.263  0.00  0.00    +0.000 C 
ATOM      2  C   UNL     1       8.194   9.806  17.901  0.00  0.00    +0.000 C 
ENDROOT
BRANCH   2   3
ATOM      3  C   UNL     1       9.046  10.917  18.181  0.00  0.00    +0.000 A 
ATOM      4  C   UNL     1      10.322  10.832  18.700  0.00  0.00    +0.000 A 
ATOM      5  N   UNL     1      10.805  12.104  18.842  0.00  0.00    +0.000 N 
ATOM      6  C   UNL     1       9.861  13.018  18.434  0.00  0.00    +0.000 A 
ATOM      7  C   UNL     1       9.918  14.415  18.421  0.00  0.00    +0.000 A 
ATOM      8  C   UNL     1       8.795  15.106  17.958  0.00  0.00    +0.000 A 
ATOM      9  C   UNL     1       7.661  14.423  17.527  0.00  0.00    +0.000 A 
ATOM     10  C   UNL     1       7.620  13.022  17.545  0.00  0.00    +0.000 A 
ATOM     11  C   UNL     1       8.742  12.301  18.005  0.00  0.00    +0.000 A 
ATOM     12  H   UNL     1      11.716  12.345  19.201  0.00  0.00    +0.000 HD
ENDBRANCH   2   3
BRANCH   1  13
ATOM     13  C   UNL     1       7.593   7.394  18.067  0.00  0.00    +0.000 A 
ATOM     14  C   UNL     1       6.582   7.339  17.113  0.00  0.00    +0.000 A 
ATOM     15  C   UNL     1       5.781   6.203  17.018  0.00  0.00    +0.000 A 
ATOM     16  N   UNL     1       5.970   5.140  17.844  0.00  0.00    +0.000 N 
ATOM     17  C   UNL     1       6.993   5.173  18.728  0.00  0.00    +0.000 A 
ATOM     18  C   UNL     1       7.811   6.279  18.862  0.00  0.00    +0.000 A 
BRANCH  16  19
ATOM     19  C   UNL     1       4.999   3.989  17.786  0.00  0.00    +0.000 C 
ATOM     20  C   UNL     1       4.681   3.410  19.162  0.00  0.00    +0.000 C 
ATOM     21  C   UNL     1       3.652   4.196  19.970  0.00  0.00    +0.000 C 
ATOM     22  C   UNL     1       2.433   4.634  19.159  0.00  0.00    +0.000 C 
ATOM     23  C   UNL     1       2.723   5.179  17.761  0.00  0.00    +0.000 C 
ATOM     24  C   UNL     1       3.749   4.359  16.986  0.00  0.00    +0.000 C 
ENDBRANCH  16  19
ENDBRANCH   1  13
TORSDOF 3
ENDMDL
