MODEL 1
REMARK VINA RESULT:      -8.9      0.000      0.000
REMARK  Name = 
REMARK  6 active torsions:
REMARK  status: ('A' for Active; 'I' for Inactive)
REMARK    1  A    between atoms: C_1  and  C_2
REMARK    2  A    between atoms: C_8  and  C_10
REMARK    3  A    between atoms: C_10  and  O_11
REMARK    4  A    between atoms: O_11  and  C_12
REMARK    5  A    between atoms: C_12  and  C_14
REMARK    6  A    between atoms: C_15  and  C_16
REMARK                            x       y       z     vdW  Elec       q    Type
REMARK                         _______ _______ _______ _____ _____    ______ ____
ROOT
ATOM      1  C   UNL     1       7.098   6.728  17.329  0.00  0.00    +0.000 C 
ATOM      2  O   UNL     1       7.413   6.197  16.274  0.00  0.00    +0.000 OA
ENDROOT
BRANCH   1   3
ATOM      3  C   UNL     1       7.985   7.694  18.018  0.00  0.00    +0.000 C 
ATOM      4  C   UNL     1       8.058   8.994  17.694  0.00  0.00    +0.000 C 
BRANCH   4   5
ATOM      5  C   UNL     1       8.927   9.983  18.352  0.00  0.00    +0.000 A 
ATOM      6  C   UNL     1       9.002   9.999  19.740  0.00  0.00    +0.000 A 
ATOM      7  C   UNL     1       9.824  10.935  20.357  0.00  0.00    +0.000 A 
ATOM      8  C   UNL     1      10.553  11.835  19.578  0.00  0.00    +0.000 A 
ATOM      9  C   UNL     1      11.397  12.794  20.166  0.00  0.00    +0.000 A 
ATOM     10  C   UNL     1      12.112  13.685  19.370  0.00  0.00    +0.000 A 
ATOM     11  C   UNL     1      11.984  13.620  17.987  0.00  0.00    +0.000 A 
ATOM     12  C   UNL     1      11.144  12.661  17.407  0.00  0.00    +0.000 A 
ATOM     13  C   UNL     1      10.418  11.757  18.174  0.00  0.00    +0.000 A 
ATOM     14  N   UNL     1       9.621  10.848  17.574  0.00  0.00    +0.000 NA
ENDBRANCH   4   5
ENDBRANCH   1   3
BRANCH   1  15
ATOM     15  O   UNL     1       5.929   6.559  17.989  0.00  0.00    +0.000 OA
BRANCH  15  16
ATOM     16  C   UNL     1       5.163   5.389  17.671  0.00  0.00    +0.000 C 
BRANCH  16  24
ATOM     17  C   UNL     1       2.467   2.575  17.398  0.00  0.00    +0.000 C 
ATOM     18  C   UNL     1       2.675   3.860  18.209  0.00  0.00    +0.000 C 
ATOM     19  C   UNL     1       1.439   4.210  19.052  0.00  0.00    +0.000 C 
ATOM     20  C   UNL     1       1.249   3.258  20.232  0.00  0.00    +0.000 C 
ATOM     21  C   UNL     1       2.522   3.171  21.071  0.00  0.00    +0.000 C 
ATOM     22  C   UNL     1       3.751   2.857  20.222  0.00  0.00    +0.000 C 
ATOM     23  N   UNL     1       3.862   3.769  19.079  0.00  0.00    +0.000 N 
ATOM     24  C   UNL     1       5.076   4.430  18.866  0.00  0.00    +0.000 C 
ATOM     25  O   UNL     1       6.040   4.280  19.621  0.00  0.00    +0.000 OA
ENDBRANCH  16  24
ENDBRANCH  15  16
ENDBRANCH   1  15
TORSDOF 5
ENDMDL
MODEL 2
REMARK VINA RESULT:      -8.8      5.441      6.912
REMARK  Name = 
REMARK  6 active torsions:
REMARK  status: ('A' for Active; 'I' for Inactive)
REMARK    1  A    between atoms: C_1  and  C_2
REMARK    2  A    between atoms: C_8  and  C_10
REMARK    3  A    between atoms: C_10  and  O_11
REMARK    4  A    between atoms: O_11  and  C_12
REMARK    5  A    between atoms: C_12  and  C_14
REMARK    6  A    between atoms: C_15  and  C_16
REMARK                            x       y       z     vdW  Elec       q    Type
REMARK                         _______ _______ _______ _____ _____    ______ ____
ROOT
ATOM      1  C   UNL     1       4.816   6.664  16.770  0.00  0.00    +0.000 C 
ATOM      2  O   UNL     1       4.961   6.958  15.592  0.00  0.00    +0.000 OA
ENDROOT
BRANCH   1   3
ATOM      3  C   UNL     1       4.035   7.511  17.701  0.00  0.00    +0.000 C 
ATOM      4  C   UNL     1       2.731   7.781  17.540  0.00  0.00    +0.000 C 
BRANCH   4   5
ATOM      5  C   UNL     1       1.922   8.619  18.441  0.00  0.00    +0.000 A 
ATOM      6  C   UNL     1       1.318   9.765  17.935  0.00  0.00    +0.000 A 
ATOM      7  C   UNL     1       0.555  10.553  18.789  0.00  0.00    +0.000 A 
ATOM      8  C   UNL     1       0.413  10.185  20.128  0.00  0.00    +0.000 A 
ATOM      9  C   UNL     1      -0.352  10.956  21.021  0.00  0.00    +0.000 A 
ATOM     10  C   UNL     1      -0.478  10.572  22.353  0.00  0.00    +0.000 A 
ATOM     11  C   UNL     1       0.161   9.419  22.795  0.00  0.00    +0.000 A 
ATOM     12  C   UNL     1       0.920   8.654  21.901  0.00  0.00    +0.000 A 
ATOM     13  C   UNL     1       1.063   9.010  20.564  0.00  0.00    +0.000 A 
ATOM     14  N   UNL     1       1.802   8.242  19.736  0.00  0.00    +0.000 NA
ENDBRANCH   4   5
ENDBRANCH   1   3
BRANCH   1  15
ATOM     15  O   UNL     1       5.289   5.553  17.378  0.00  0.00    +0.000 OA
BRANCH  15  16
ATOM     16  C   UNL     1       5.107   5.458  18.798  0.00  0.00    +0.000 C 
BRANCH  16  24
ATOM     17  C   UNL     1       1.530   4.271  17.767  0.00  0.00    +0.000 C 
ATOM     18  C   UNL     1       2.257   4.662  19.059  0.00  0.00    +0.000 C 
ATOM     19  C   UNL     1       1.298   4.729  20.258  0.00  0.00    +0.000 C 
ATOM     20  C   UNL     1       0.825   3.346  20.705  0.00  0.00    +0.000 C 
ATOM     21  C   UNL     1       2.013   2.422  20.960  0.00  0.00    +0.000 C 
ATOM     22  C   UNL     1       2.980   2.386  19.779  0.00  0.00    +0.000 C 
ATOM     23  N   UNL     1       3.367   3.738  19.361  0.00  0.00    +0.000 N 
ATOM     24  C   UNL     1       4.727   4.033  19.224  0.00  0.00    +0.000 C 
ATOM     25  O   UNL     1       5.601   3.196  19.465  0.00  0.00    +0.000 OA
ENDBRANCH  16  24
ENDBRANCH  15  16
ENDBRANCH   1  15
TORSDOF 5
ENDMDL
MODEL 3
REMARK VINA RESULT:      -8.6      1.264      1.811
REMARK  Name = 
REMARK  6 active torsions:
REMARK  status: ('A' for Active; 'I' for Inactive)
REMARK    1  A    between atoms: C_1  and  C_2
REMARK    2  A    between atoms: C_8  and  C_10
REMARK    3  A    between atoms: C_10  and  O_11
REMARK    4  A    between atoms: O_11  and  C_12
REMARK    5  A    between atoms: C_12  and  C_14
REMARK    6  A    between atoms: C_15  and  C_16
REMARK                            x       y       z     vdW  Elec       q    Type
REMARK                         _______ _______ _______ _____ _____    ______ ____
ROOT
ATOM      1  C   UNL     1       7.167   7.218  17.216  0.00  0.00    +0.000 C 
ATOM      2  O   UNL     1       7.603   6.428  16.391  0.00  0.00    +0.000 OA
ENDROOT
BRANCH   1   3
ATOM      3  C   UNL     1       7.831   8.512  17.493  0.00  0.00    +0.000 C 
ATOM      4  C   UNL     1       8.463   8.789  18.643  0.00  0.00    +0.000 C 
BRANCH   4   5
ATOM      5  C   UNL     1       9.132  10.063  18.957  0.00  0.00    +0.000 A 
ATOM      6  C   UNL     1       9.362  10.395  20.288  0.00  0.00    +0.000 A 
ATOM      7  C   UNL     1       9.993  11.598  20.579  0.00  0.00    +0.000 A 
ATOM      8  C   UNL     1      10.380  12.446  19.540  0.00  0.00    +0.000 A 
ATOM      9  C   UNL     1      11.022  13.670  19.795  0.00  0.00    +0.000 A 
ATOM     10  C   UNL     1      11.396  14.502  18.744  0.00  0.00    +0.000 A 
ATOM     11  C   UNL     1      11.127  14.113  17.437  0.00  0.00    +0.000 A 
ATOM     12  C   UNL     1      10.489  12.892  17.187  0.00  0.00    +0.000 A 
ATOM     13  C   UNL     1      10.105  12.038  18.216  0.00  0.00    +0.000 A 
ATOM     14  N   UNL     1       9.494  10.869  17.931  0.00  0.00    +0.000 NA
ENDBRANCH   4   5
ENDBRANCH   1   3
BRANCH   1  15
ATOM     15  O   UNL     1       6.040   7.064  17.948  0.00  0.00    +0.000 OA
BRANCH  15  16
ATOM     16  C   UNL     1       5.739   5.742  18.414  0.00  0.00    +0.000 C 
BRANCH  16  24
ATOM     17  C   UNL     1       2.287   7.054  19.690  0.00  0.00    +0.000 C 
ATOM     18  C   UNL     1       3.089   5.749  19.755  0.00  0.00    +0.000 C 
ATOM     19  C   UNL     1       2.421   4.712  20.673  0.00  0.00    +0.000 C 
ATOM     20  C   UNL     1       1.144   4.132  20.065  0.00  0.00    +0.000 C 
ATOM     21  C   UNL     1       1.408   3.587  18.664  0.00  0.00    +0.000 C 
ATOM     22  C   UNL     1       2.103   4.610  17.768  0.00  0.00    +0.000 C 
ATOM     23  N   UNL     1       3.295   5.168  18.415  0.00  0.00    +0.000 N 
ATOM     24  C   UNL     1       4.503   5.163  17.710  0.00  0.00    +0.000 C 
ATOM     25  O   UNL     1       4.592   4.687  16.576  0.00  0.00    +0.000 OA
ENDBRANCH  16  24
ENDBRANCH  15  16
ENDBRANCH   1  15
TORSDOF 5
ENDMDL
MODEL 4
REMARK VINA RESULT:      -8.5      1.246      1.887
REMARK  Name = 
REMARK  6 active torsions:
REMARK  status: ('A' for Active; 'I' for Inactive)
REMARK    1  A    between atoms: C_1  and  C_2
REMARK    2  A    between atoms: C_8  and  C_10
REMARK    3  A    between atoms: C_10  and  O_11
REMARK    4  A    between atoms: O_11  and  C_12
REMARK    5  A    between atoms: C_12  and  C_14
REMARK    6  A    between atoms: C_15  and  C_16
REMARK                            x       y       z     vdW  Elec       q    Type
REMARK                         _______ _______ _______ _____ _____    ______ ____
ROOT
ATOM      1  C   UNL     1       7.323   6.965  17.380  0.00  0.00    +0.000 C 
ATOM      2  O   UNL     1       7.571   6.322  16.371  0.00  0.00    +0.000 OA
ENDROOT
BRANCH   1   3
ATOM      3  C   UNL     1       7.843   8.337  17.586  0.00  0.00    +0.000 C 
ATOM      4  C   UNL     1       8.534   8.711  18.673  0.00  0.00    +0.000 C 
BRANCH   4   5
ATOM      5  C   UNL     1       9.064  10.063  18.916  0.00  0.00    +0.000 A 
ATOM      6  C   UNL     1       9.660  10.753  17.866  0.00  0.00    +0.000 A 
ATOM      7  C   UNL     1      10.158  12.029  18.100  0.00  0.00    +0.000 A 
ATOM      8  C   UNL     1      10.056  12.589  19.375  0.00  0.00    +0.000 A 
ATOM      9  C   UNL     1      10.547  13.878  19.649  0.00  0.00    +0.000 A 
ATOM     10  C   UNL     1      10.437  14.416  20.928  0.00  0.00    +0.000 A 
ATOM     11  C   UNL     1       9.838  13.667  21.934  0.00  0.00    +0.000 A 
ATOM     12  C   UNL     1       9.348  12.385  21.656  0.00  0.00    +0.000 A 
ATOM     13  C   UNL     1       9.441  11.821  20.388  0.00  0.00    +0.000 A 
ATOM     14  N   UNL     1       8.955  10.583  20.162  0.00  0.00    +0.000 NA
ENDBRANCH   4   5
ENDBRANCH   1   3
BRANCH   1  15
ATOM     15  O   UNL     1       6.539   6.566  18.407  0.00  0.00    +0.000 OA
BRANCH  15  16
ATOM     16  C   UNL     1       5.268   5.991  18.073  0.00  0.00    +0.000 C 
BRANCH  16  24
ATOM     17  C   UNL     1       1.682   4.458  17.835  0.00  0.00    +0.000 C 
ATOM     18  C   UNL     1       2.583   5.049  18.926  0.00  0.00    +0.000 C 
ATOM     19  C   UNL     1       1.839   5.200  20.262  0.00  0.00    +0.000 C 
ATOM     20  C   UNL     1       1.569   3.855  20.935  0.00  0.00    +0.000 C 
ATOM     21  C   UNL     1       2.858   3.047  21.071  0.00  0.00    +0.000 C 
ATOM     22  C   UNL     1       3.609   2.931  19.748  0.00  0.00    +0.000 C 
ATOM     23  N   UNL     1       3.802   4.243  19.122  0.00  0.00    +0.000 N 
ATOM     24  C   UNL     1       5.089   4.607  18.713  0.00  0.00    +0.000 C 
ATOM     25  O   UNL     1       6.059   3.864  18.883  0.00  0.00    +0.000 OA
ENDBRANCH  16  24
ENDBRANCH  15  16
ENDBRANCH   1  15
TORSDOF 5
ENDMDL
MODEL 5
REMARK VINA RESULT:      -8.5      5.407      6.750
REMARK  Name = 
REMARK  6 active torsions:
REMARK  status: ('A' for Active; 'I' for Inactive)
REMARK    1  A    between atoms: C_1  and  C_2
REMARK    2  A    between atoms: C_8  and  C_10
REMARK    3  A    between atoms: C_10  and  O_11
REMARK    4  A    between atoms: O_11  and  C_12
REMARK    5  A    between atoms: C_12  and  C_14
REMARK    6  A    between atoms: C_15  and  C_16
REMARK                            x       y       z     vdW  Elec       q    Type
REMARK                         _______ _______ _______ _____ _____    ______ ____
ROOT
ATOM      1  C   UNL     1       4.929   6.667  16.540  0.00  0.00    +0.000 C 
ATOM      2  O   UNL     1       5.015   6.792  15.328  0.00  0.00    +0.000 OA
ENDROOT
BRANCH   1   3
ATOM      3  C   UNL     1       4.027   7.511  17.357  0.00  0.00    +0.000 C 
ATOM      4  C   UNL     1       3.144   7.015  18.237  0.00  0.00    +0.000 C 
BRANCH   4   5
ATOM      5  C   UNL     1       2.229   7.820  19.063  0.00  0.00    +0.000 A 
ATOM      6  C   UNL     1       1.951   7.407  20.361  0.00  0.00    +0.000 A 
ATOM      7  C   UNL     1       1.087   8.170  21.137  0.00  0.00    +0.000 A 
ATOM      8  C   UNL     1       0.516   9.327  20.603  0.00  0.00    +0.000 A 
ATOM      9  C   UNL     1      -0.361  10.125  21.359  0.00  0.00    +0.000 A 
ATOM     10  C   UNL     1      -0.922  11.273  20.805  0.00  0.00    +0.000 A 
ATOM     11  C   UNL     1      -0.609  11.623  19.497  0.00  0.00    +0.000 A 
ATOM     12  C   UNL     1       0.267  10.826  18.750  0.00  0.00    +0.000 A 
ATOM     13  C   UNL     1       0.845   9.675  19.275  0.00  0.00    +0.000 A 
ATOM     14  N   UNL     1       1.685   8.936  18.521  0.00  0.00    +0.000 NA
ENDBRANCH   4   5
ENDBRANCH   1   3
BRANCH   1  15
ATOM     15  O   UNL     1       5.584   5.755  17.295  0.00  0.00    +0.000 OA
BRANCH  15  16
ATOM     16  C   UNL     1       5.037   4.430  17.339  0.00  0.00    +0.000 C 
BRANCH  16  24
ATOM     17  C   UNL     1       2.170   1.842  17.932  0.00  0.00    +0.000 C 
ATOM     18  C   UNL     1       2.448   3.311  18.273  0.00  0.00    +0.000 C 
ATOM     19  C   UNL     1       1.227   3.993  18.908  0.00  0.00    +0.000 C 
ATOM     20  C   UNL     1       0.961   3.505  20.332  0.00  0.00    +0.000 C 
ATOM     21  C   UNL     1       2.214   3.634  21.194  0.00  0.00    +0.000 C 
ATOM     22  C   UNL     1       3.432   2.984  20.541  0.00  0.00    +0.000 C 
ATOM     23  N   UNL     1       3.616   3.452  19.163  0.00  0.00    +0.000 N 
ATOM     24  C   UNL     1       4.872   3.934  18.782  0.00  0.00    +0.000 C 
ATOM     25  O   UNL     1       5.815   3.993  19.577  0.00  0.00    +0.000 OA
ENDBRANCH  16  24
ENDBRANCH  15  16
ENDBRANCH   1  15
TORSDOF 5
ENDMDL
MODEL 6
REMARK VINA RESULT:      -8.4      5.850      7.164
REMARK  Name = 
REMARK  6 active torsions:
REMARK  status: ('A' for Active; 'I' for Inactive)
REMARK    1  A    between atoms: C_1  and  C_2
REMARK    2  A    between atoms: C_8  and  C_10
REMARK    3  A    between atoms: C_10  and  O_11
REMARK    4  A    between atoms: O_11  and  C_12
REMARK    5  A    between atoms: C_12  and  C_14
REMARK    6  A    between atoms: C_15  and  C_16
REMARK                            x       y       z     vdW  Elec       q    Type
REMARK                         _______ _______ _______ _____ _____    ______ ____
ROOT
ATOM      1  C   UNL     1       4.120   6.405  17.238  0.00  0.00    +0.000 C 
ATOM      2  O   UNL     1       5.058   6.968  16.692  0.00  0.00    +0.000 OA
ENDROOT
BRANCH   1   3
ATOM      3  C   UNL     1       3.228   7.107  18.189  0.00  0.00    +0.000 C 
ATOM      4  C   UNL     1       2.516   8.199  17.869  0.00  0.00    +0.000 C 
BRANCH   4   5
ATOM      5  C   UNL     1       1.622   8.925  18.786  0.00  0.00    +0.000 A 
ATOM      6  C   UNL     1       0.804   9.928  18.278  0.00  0.00    +0.000 A 
ATOM      7  C   UNL     1      -0.039  10.610  19.147  0.00  0.00    +0.000 A 
ATOM      8  C   UNL     1      -0.047  10.282  20.504  0.00  0.00    +0.000 A 
ATOM      9  C   UNL     1      -0.886  10.949  21.413  0.00  0.00    +0.000 A 
ATOM     10  C   UNL     1      -0.875  10.608  22.762  0.00  0.00    +0.000 A 
ATOM     11  C   UNL     1      -0.025   9.601  23.205  0.00  0.00    +0.000 A 
ATOM     12  C   UNL     1       0.807   8.938  22.295  0.00  0.00    +0.000 A 
ATOM     13  C   UNL     1       0.818   9.255  20.941  0.00  0.00    +0.000 A 
ATOM     14  N   UNL     1       1.636   8.590  20.098  0.00  0.00    +0.000 NA
ENDBRANCH   4   5
ENDBRANCH   1   3
BRANCH   1  15
ATOM     15  O   UNL     1       3.738   5.122  17.043  0.00  0.00    +0.000 OA
BRANCH  15  16
ATOM     16  C   UNL     1       4.711   4.104  17.313  0.00  0.00    +0.000 C 
BRANCH  16  24
ATOM     17  C   UNL     1       1.925   1.576  18.366  0.00  0.00    +0.000 C 
ATOM     18  C   UNL     1       2.239   3.060  18.588  0.00  0.00    +0.000 C 
ATOM     19  C   UNL     1       1.094   3.787  19.310  0.00  0.00    +0.000 C 
ATOM     20  C   UNL     1       0.984   3.385  20.780  0.00  0.00    +0.000 C 
ATOM     21  C   UNL     1       2.324   3.556  21.492  0.00  0.00    +0.000 C 
ATOM     22  C   UNL     1       3.463   2.861  20.751  0.00  0.00    +0.000 C 
ATOM     23  N   UNL     1       3.497   3.245  19.336  0.00  0.00    +0.000 N 
ATOM     24  C   UNL     1       4.705   3.695  18.793  0.00  0.00    +0.000 C 
ATOM     25  O   UNL     1       5.727   3.794  19.476  0.00  0.00    +0.000 OA
ENDBRANCH  16  24
ENDBRANCH  15  16
ENDBRANCH   1  15
TORSDOF 5
ENDMDL
MODEL 7
REMARK VINA RESULT:      -8.4      1.186      1.762
REMARK  Name = 
REMARK  6 active torsions:
REMARK  status: ('A' for Active; 'I' for Inactive)
REMARK    1  A    between atoms: C_1  and  C_2
REMARK    2  A    between atoms: C_8  and  C_10
REMARK    3  A    between atoms: C_10  and  O_11
REMARK    4  A    between atoms: O_11  and  C_12
REMARK    5  A    between atoms: C_12  and  C_14
REMARK    6  A    between atoms: C_15  and  C_16
REMARK                            x       y       z     vdW  Elec       q    Type
REMARK                         _______ _______ _______ _____ _____    ______ ____
ROOT
ATOM      1  C   UNL     1       7.469   7.064  17.342  0.00  0.00    +0.000 C 
ATOM      2  O   UNL     1       7.530   6.560  16.230  0.00  0.00    +0.000 OA
ENDROOT
BRANCH   1   3
ATOM      3  C   UNL     1       7.968   8.432  17.614  0.00  0.00    +0.000 C 
ATOM      4  C   UNL     1       8.679   8.758  18.704  0.00  0.00    +0.000 C 
BRANCH   4   5
ATOM      5  C   UNL     1       9.189  10.104  19.011  0.00  0.00    +0.000 A 
ATOM      6  C   UNL     1       9.252  10.517  20.337  0.00  0.00    +0.000 A 
ATOM      7  C   UNL     1       9.734  11.788  20.622  0.00  0.00    +0.000 A 
ATOM      8  C   UNL     1      10.142  12.623  19.580  0.00  0.00    +0.000 A 
ATOM      9  C   UNL     1      10.638  13.915  19.829  0.00  0.00    +0.000 A 
ATOM     10  C   UNL     1      11.035  14.732  18.774  0.00  0.00    +0.000 A 
ATOM     11  C   UNL     1      10.938  14.260  17.471  0.00  0.00    +0.000 A 
ATOM     12  C   UNL     1      10.446  12.971  17.228  0.00  0.00    +0.000 A 
ATOM     13  C   UNL     1      10.042  12.131  18.260  0.00  0.00    +0.000 A 
ATOM     14  N   UNL     1       9.575  10.896  17.982  0.00  0.00    +0.000 NA
ENDBRANCH   4   5
ENDBRANCH   1   3
BRANCH   1  15
ATOM     15  O   UNL     1       6.926   6.499  18.444  0.00  0.00    +0.000 OA
BRANCH  15  16
ATOM     16  C   UNL     1       6.134   5.319  18.250  0.00  0.00    +0.000 C 
BRANCH  16  24
ATOM     17  C   UNL     1       4.116   2.658  20.279  0.00  0.00    +0.000 C 
ATOM     18  C   UNL     1       4.220   3.119  18.820  0.00  0.00    +0.000 C 
ATOM     19  C   UNL     1       3.413   2.216  17.875  0.00  0.00    +0.000 C 
ATOM     20  C   UNL     1       1.905   2.404  18.036  0.00  0.00    +0.000 C 
ATOM     21  C   UNL     1       1.523   3.876  17.904  0.00  0.00    +0.000 C 
ATOM     22  C   UNL     1       2.353   4.771  18.820  0.00  0.00    +0.000 C 
ATOM     23  N   UNL     1       3.789   4.521  18.660  0.00  0.00    +0.000 N 
ATOM     24  C   UNL     1       4.636   5.609  18.428  0.00  0.00    +0.000 C 
ATOM     25  O   UNL     1       4.205   6.761  18.337  0.00  0.00    +0.000 OA
ENDBRANCH  16  24
ENDBRANCH  15  16
ENDBRANCH   1  15
TORSDOF 5
ENDMDL
MODEL 8
REMARK VINA RESULT:      -8.3      1.552      2.420
REMARK  Name = 
REMARK  6 active torsions:
REMARK  status: ('A' for Active; 'I' for Inactive)
REMARK    1  A    between atoms: C_1  and  C_2
REMARK    2  A    between atoms: C_8  and  C_10
REMARK    3  A    between atoms: C_10  and  O_11
REMARK    4  A    between atoms: O_11  and  C_12
REMARK    5  A    between atoms: C_12  and  C_14
REMARK    6  A    between atoms: C_15  and  C_16
REMARK                            x       y       z     vdW  Elec       q    Type
REMARK                         _______ _______ _______ _____ _____    ______ ____
ROOT
ATOM      1  C   UNL     1       7.163   7.065  17.324  0.00  0.00    +0.000 C 
ATOM      2  O   UNL     1       7.694   6.334  16.502  0.00  0.00    +0.000 OA
ENDROOT
BRANCH   1   3
ATOM      3  C   UNL     1       7.665   8.431  17.602  0.00  0.00    +0.000 C 
ATOM      4  C   UNL     1       8.573   8.708  18.549  0.00  0.00    +0.000 C 
BRANCH   4   5
ATOM      5  C   UNL     1       9.094  10.051  18.857  0.00  0.00    +0.000 A 
ATOM      6  C   UNL     1       9.733  10.773  17.856  0.00  0.00    +0.000 A 
ATOM      7  C   UNL     1      10.222  12.040  18.152  0.00  0.00    +0.000 A 
ATOM      8  C   UNL     1      10.066  12.559  19.438  0.00  0.00    +0.000 A 
ATOM      9  C   UNL     1      10.546  13.838  19.774  0.00  0.00    +0.000 A 
ATOM     10  C   UNL     1      10.382  14.334  21.064  0.00  0.00    +0.000 A 
ATOM     11  C   UNL     1       9.741  13.555  22.020  0.00  0.00    +0.000 A 
ATOM     12  C   UNL     1       9.263  12.283  21.679  0.00  0.00    +0.000 A 
ATOM     13  C   UNL     1       9.409  11.760  20.399  0.00  0.00    +0.000 A 
ATOM     14  N   UNL     1       8.933  10.530  20.113  0.00  0.00    +0.000 NA
ENDBRANCH   4   5
ENDBRANCH   1   3
BRANCH   1  15
ATOM     15  O   UNL     1       6.061   6.777  18.053  0.00  0.00    +0.000 OA
BRANCH  15  16
ATOM     16  C   UNL     1       5.840   5.399  18.385  0.00  0.00    +0.000 C 
BRANCH  16  24
ATOM     17  C   UNL     1       2.443   6.934  19.554  0.00  0.00    +0.000 C 
ATOM     18  C   UNL     1       3.179   5.597  19.692  0.00  0.00    +0.000 C 
ATOM     19  C   UNL     1       2.454   4.639  20.649  0.00  0.00    +0.000 C 
ATOM     20  C   UNL     1       1.157   4.091  20.054  0.00  0.00    +0.000 C 
ATOM     21  C   UNL     1       1.408   3.467  18.684  0.00  0.00    +0.000 C 
ATOM     22  C   UNL     1       2.160   4.411  17.749  0.00  0.00    +0.000 C 
ATOM     23  N   UNL     1       3.371   4.943  18.383  0.00  0.00    +0.000 N 
ATOM     24  C   UNL     1       4.584   4.847  17.695  0.00  0.00    +0.000 C 
ATOM     25  O   UNL     1       4.662   4.313  16.585  0.00  0.00    +0.000 OA
ENDBRANCH  16  24
ENDBRANCH  15  16
ENDBRANCH   1  15
TORSDOF 5
ENDMDL
MODEL 9
REMARK VINA RESULT:      -8.3      0.946      1.048
REMARK  Name = 
REMARK  6 active torsions:
REMARK  status: ('A' for Active; 'I' for Inactive)
REMARK    1  A    between atoms: C_1  and  C_2
REMARK    2  A    between atoms: C_8  and  C_10
REMARK    3  A    between atoms: C_10  and  O_11
REMARK    4  A    between atoms: O_11  and  C_12
REMARK    5  A    between atoms: C_12  and  C_14
REMARK    6  A    between atoms: C_15  and  C_16
REMARK                            x       y       z     vdW  Elec       q    Type
REMARK                         _______ _______ _______ _____ _____    ______ ____
ROOT
ATOM      1  C   UNL     1       7.022   6.726  17.460  0.00  0.00    +0.000 C 
ATOM      2  O   UNL     1       6.827   6.731  16.254  0.00  0.00    +0.000 OA
ENDROOT
BRANCH   1   3
ATOM      3  C   UNL     1       7.957   7.674  18.110  0.00  0.00    +0.000 C 
ATOM      4  C   UNL     1       8.002   8.983  17.823  0.00  0.00    +0.000 C 
BRANCH   4   5
ATOM      5  C   UNL     1       8.917   9.955  18.444  0.00  0.00    +0.000 A 
ATOM      6  C   UNL     1       8.976  10.037  19.830  0.00  0.00    +0.000 A 
ATOM      7  C   UNL     1       9.841  10.956  20.411  0.00  0.00    +0.000 A 
ATOM      8  C   UNL     1      10.627  11.776  19.600  0.00  0.00    +0.000 A 
ATOM      9  C   UNL     1      11.516  12.716  20.151  0.00  0.00    +0.000 A 
ATOM     10  C   UNL     1      12.288  13.526  19.323  0.00  0.00    +0.000 A 
ATOM     11  C   UNL     1      12.173  13.398  17.944  0.00  0.00    +0.000 A 
ATOM     12  C   UNL     1      11.288  12.459  17.399  0.00  0.00    +0.000 A 
ATOM     13  C   UNL     1      10.505  11.634  18.200  0.00  0.00    +0.000 A 
ATOM     14  N   UNL     1       9.666  10.741  17.634  0.00  0.00    +0.000 NA
ENDBRANCH   4   5
ENDBRANCH   1   3
BRANCH   1  15
ATOM     15  O   UNL     1       6.418   5.918  18.362  0.00  0.00    +0.000 OA
BRANCH  15  16
ATOM     16  C   UNL     1       5.698   4.789  17.847  0.00  0.00    +0.000 C 
BRANCH  16  24
ATOM     17  C   UNL     1       1.799   4.725  17.622  0.00  0.00    +0.000 C 
ATOM     18  C   UNL     1       2.864   5.382  18.508  0.00  0.00    +0.000 C 
ATOM     19  C   UNL     1       2.248   6.385  19.495  0.00  0.00    +0.000 C 
ATOM     20  C   UNL     1       1.459   5.698  20.609  0.00  0.00    +0.000 C 
ATOM     21  C   UNL     1       2.311   4.641  21.306  0.00  0.00    +0.000 C 
ATOM     22  C   UNL     1       2.948   3.668  20.317  0.00  0.00    +0.000 C 
ATOM     23  N   UNL     1       3.654   4.378  19.245  0.00  0.00    +0.000 N 
ATOM     24  C   UNL     1       4.977   4.023  18.965  0.00  0.00    +0.000 C 
ATOM     25  O   UNL     1       5.565   3.148  19.606  0.00  0.00    +0.000 OA
ENDBRANCH  16  24
ENDBRANCH  15  16
ENDBRANCH   1  15
TORSDOF 5
ENDMDL
