MODEL 1
REMARK VINA RESULT:      -7.2      0.000      0.000
REMARK  Name = 
REMARK  11 active torsions:
REMARK  status: ('A' for Active; 'I' for Inactive)
REMARK    1  A    between atoms: C_1  and  C_2
REMARK    2  A    between atoms: C_2  and  C_3
REMARK    3  A    between atoms: C_3  and  C_4
REMARK    4  A    between atoms: C_4  and  C_5
REMARK    5  A    between atoms: C_5  and  C_6
REMARK    6  A    between atoms: C_6  and  C_7
REMARK    7  A    between atoms: C_15  and  C_16
REMARK    8  A    between atoms: C_24  and  C_25
REMARK    9  A    between atoms: C_29  and  O_30
REMARK   10  A    between atoms: O_30  and  C_31
REMARK   11  A    between atoms: C_33  and  O_34
REMARK                            x       y       z     vdW  Elec       q    Type
REMARK                         _______ _______ _______ _____ _____    ______ ____
ROOT
ATOM      1  C   UNL     1       0.821  11.266  19.139  0.00  0.00    +0.000 C 
ATOM      2  C   UNL     1       1.085  11.283  20.658  0.00  0.00    +0.000 C 
ATOM      3  S   UNL     1      -0.004  10.382  21.718  0.00  0.00    +0.000 S 
ATOM      4  O   UNL     1       0.636  10.350  23.021  0.00  0.00    +0.000 OA
ATOM      5  O   UNL     1      -0.451   9.147  21.112  0.00  0.00    +0.000 OA
ATOM      6  C   UNL     1      -1.428  11.438  21.863  0.00  0.00    +0.000 A 
ATOM      7  C   UNL     1      -1.744  11.880  23.153  0.00  0.00    +0.000 A 
ATOM      8  C   UNL     1      -2.861  12.678  23.368  0.00  0.00    +0.000 A 
ATOM      9  C   UNL     1      -3.679  13.075  22.305  0.00  0.00    +0.000 A 
ATOM     10  C   UNL     1      -3.308  12.659  21.008  0.00  0.00    +0.000 A 
ATOM     11  C   UNL     1      -2.201  11.815  20.750  0.00  0.00    +0.000 A 
ATOM     12  C   UNL     1      -1.882  11.360  19.310  0.00  0.00    +0.000 C 
ATOM     13  C   UNL     1      -0.532  11.972  18.769  0.00  0.00    +0.000 C 
ENDROOT
BRANCH   9  14
ATOM     14  C   UNL     1      -4.899  13.874  22.547  0.00  0.00    +0.000 A 
ATOM     15  C   UNL     1      -5.051  14.643  23.717  0.00  0.00    +0.000 A 
ATOM     16  C   UNL     1      -6.221  15.361  23.973  0.00  0.00    +0.000 A 
ATOM     17  C   UNL     1      -7.265  15.341  23.055  0.00  0.00    +0.000 A 
ATOM     18  C   UNL     1      -7.141  14.598  21.884  0.00  0.00    +0.000 A 
ATOM     19  C   UNL     1      -5.974  13.869  21.637  0.00  0.00    +0.000 A 
ENDBRANCH   9  14
BRANCH  12  20
ATOM     20  C   UNL     1      -3.066  11.511  18.315  0.00  0.00    +0.000 A 
ATOM     21  C   UNL     1      -4.363  11.885  18.712  0.00  0.00    +0.000 A 
ATOM     22  C   UNL     1      -5.395  12.000  17.780  0.00  0.00    +0.000 A 
ATOM     23  C   UNL     1      -5.165  11.699  16.441  0.00  0.00    +0.000 A 
ATOM     24  C   UNL     1      -3.895  11.311  16.016  0.00  0.00    +0.000 A 
ATOM     25  C   UNL     1      -2.848  11.248  16.944  0.00  0.00    +0.000 A 
BRANCH  24  26
ATOM     26  O   UNL     1      -3.822  11.006  14.685  0.00  0.00    +0.000 OA
ATOM     27  C   UNL     1      -2.961   9.941  14.306  0.00  0.00    +0.000 C 
ENDBRANCH  24  26
ENDBRANCH  12  20
BRANCH   1  28
ATOM     28  C   UNL     1       2.031  12.087  18.534  0.00  0.00    +0.000 C 
ATOM     29  C   UNL     1       2.606  13.209  19.390  0.00  0.00    +0.000 C 
ENDBRANCH   1  28
BRANCH  13  30
ATOM     30  O   UNL     1      -0.432  13.377  19.040  0.00  0.00    +0.000 OA
ATOM     31  H   UNL     1      -0.852  13.894  18.331  0.00  0.00    +0.000 HD
ENDBRANCH  13  30
BRANCH   1  32
ATOM     32  C   UNL     1       0.812   9.834  18.520  0.00  0.00    +0.000 C 
BRANCH  32  33
ATOM     33  C   UNL     1       2.118   9.344  17.887  0.00  0.00    +0.000 C 
BRANCH  33  35
ATOM     34  C   UNL     1       3.606   7.318  17.662  0.00  0.00    +0.000 C 
ATOM     35  C   UNL     1       2.228   7.828  18.046  0.00  0.00    +0.000 C 
ENDBRANCH  33  35
ENDBRANCH  32  33
ENDBRANCH   1  32
TORSDOF 8
ENDMDL
MODEL 2
REMARK VINA RESULT:      -7.1      2.897      7.443
REMARK  Name = 
REMARK  11 active torsions:
REMARK  status: ('A' for Active; 'I' for Inactive)
REMARK    1  A    between atoms: C_1  and  C_2
REMARK    2  A    between atoms: C_2  and  C_3
REMARK    3  A    between atoms: C_3  and  C_4
REMARK    4  A    between atoms: C_4  and  C_5
REMARK    5  A    between atoms: C_5  and  C_6
REMARK    6  A    between atoms: C_6  and  C_7
REMARK    7  A    between atoms: C_15  and  C_16
REMARK    8  A    between atoms: C_24  and  C_25
REMARK    9  A    between atoms: C_29  and  O_30
REMARK   10  A    between atoms: O_30  and  C_31
REMARK   11  A    between atoms: C_33  and  O_34
REMARK                            x       y       z     vdW  Elec       q    Type
REMARK                         _______ _______ _______ _____ _____    ______ ____
ROOT
ATOM      1  C   UNL     1      -3.974  15.430  23.263  0.00  0.00    +0.000 C 
ATOM      2  C   UNL     1      -5.400  14.956  22.917  0.00  0.00    +0.000 C 
ATOM      3  S   UNL     1      -5.735  13.221  22.897  0.00  0.00    +0.000 S 
ATOM      4  O   UNL     1      -7.180  13.089  22.820  0.00  0.00    +0.000 OA
ATOM      5  O   UNL     1      -5.009  12.516  23.929  0.00  0.00    +0.000 OA
ATOM      6  C   UNL     1      -5.079  12.678  21.334  0.00  0.00    +0.000 A 
ATOM      7  C   UNL     1      -5.995  12.108  20.442  0.00  0.00    +0.000 A 
ATOM      8  C   UNL     1      -5.567  11.622  19.212  0.00  0.00    +0.000 A 
ATOM      9  C   UNL     1      -4.224  11.709  18.830  0.00  0.00    +0.000 A 
ATOM     10  C   UNL     1      -3.331  12.335  19.727  0.00  0.00    +0.000 A 
ATOM     11  C   UNL     1      -3.718  12.809  21.004  0.00  0.00    +0.000 A 
ATOM     12  C   UNL     1      -2.679  13.442  21.953  0.00  0.00    +0.000 C 
ATOM     13  C   UNL     1      -2.927  14.984  22.181  0.00  0.00    +0.000 C 
ENDROOT
BRANCH   9  14
ATOM     14  C   UNL     1      -3.764  11.136  17.547  0.00  0.00    +0.000 A 
ATOM     15  C   UNL     1      -4.420  11.430  16.337  0.00  0.00    +0.000 A 
ATOM     16  C   UNL     1      -4.020  10.853  15.129  0.00  0.00    +0.000 A 
ATOM     17  C   UNL     1      -2.939   9.980  15.101  0.00  0.00    +0.000 A 
ATOM     18  C   UNL     1      -2.263   9.678  16.279  0.00  0.00    +0.000 A 
ATOM     19  C   UNL     1      -2.675  10.245  17.489  0.00  0.00    +0.000 A 
ENDBRANCH   9  14
BRANCH  12  20
ATOM     20  C   UNL     1      -1.203  13.103  21.600  0.00  0.00    +0.000 A 
ATOM     21  C   UNL     1      -0.265  14.073  21.202  0.00  0.00    +0.000 A 
ATOM     22  C   UNL     1       1.047  13.717  20.888  0.00  0.00    +0.000 A 
ATOM     23  C   UNL     1       1.436  12.381  20.922  0.00  0.00    +0.000 A 
ATOM     24  C   UNL     1       0.528  11.393  21.298  0.00  0.00    +0.000 A 
ATOM     25  C   UNL     1      -0.774  11.758  21.663  0.00  0.00    +0.000 A 
BRANCH  24  26
ATOM     26  O   UNL     1       1.031  10.123  21.246  0.00  0.00    +0.000 OA
ATOM     27  C   UNL     1       0.189   9.068  21.689  0.00  0.00    +0.000 C 
ENDBRANCH  24  26
ENDBRANCH  12  20
BRANCH   1  28
ATOM     28  C   UNL     1      -4.090  17.007  23.270  0.00  0.00    +0.000 C 
ATOM     29  C   UNL     1      -4.409  17.675  24.602  0.00  0.00    +0.000 C 
ENDBRANCH   1  28
BRANCH  13  30
ATOM     30  O   UNL     1      -3.183  15.674  20.949  0.00  0.00    +0.000 OA
ATOM     31  H   UNL     1      -3.124  16.637  21.077  0.00  0.00    +0.000 HD
ENDBRANCH  13  30
BRANCH   1  32
ATOM     32  C   UNL     1      -3.474  14.945  24.659  0.00  0.00    +0.000 C 
BRANCH  32  33
ATOM     33  C   UNL     1      -1.958  14.889  24.869  0.00  0.00    +0.000 C 
BRANCH  33  35
ATOM     34  C   UNL     1      -0.446  16.652  25.858  0.00  0.00    +0.000 C 
ATOM     35  C   UNL     1      -1.584  15.682  26.122  0.00  0.00    +0.000 C 
ENDBRANCH  33  35
ENDBRANCH  32  33
ENDBRANCH   1  32
TORSDOF 8
ENDMDL
MODEL 3
REMARK VINA RESULT:      -7.0      1.069      1.191
REMARK  Name = 
REMARK  11 active torsions:
REMARK  status: ('A' for Active; 'I' for Inactive)
REMARK    1  A    between atoms: C_1  and  C_2
REMARK    2  A    between atoms: C_2  and  C_3
REMARK    3  A    between atoms: C_3  and  C_4
REMARK    4  A    between atoms: C_4  and  C_5
REMARK    5  A    between atoms: C_5  and  C_6
REMARK    6  A    between atoms: C_6  and  C_7
REMARK    7  A    between atoms: C_15  and  C_16
REMARK    8  A    between atoms: C_24  and  C_25
REMARK    9  A    between atoms: C_29  and  O_30
REMARK   10  A    between atoms: O_30  and  C_31
REMARK   11  A    between atoms: C_33  and  O_34
REMARK                            x       y       z     vdW  Elec       q    Type
REMARK                         _______ _______ _______ _____ _____    ______ ____
ROOT
ATOM      1  C   UNL     1       0.900  11.300  19.317  0.00  0.00    +0.000 C 
ATOM      2  C   UNL     1       0.870  11.551  20.838  0.00  0.00    +0.000 C 
ATOM      3  S   UNL     1      -0.362  10.736  21.807  0.00  0.00    +0.000 S 
ATOM      4  O   UNL     1       0.020  10.933  23.195  0.00  0.00    +0.000 OA
ATOM      5  O   UNL     1      -0.634   9.399  21.327  0.00  0.00    +0.000 OA
ATOM      6  C   UNL     1      -1.830  11.700  21.529  0.00  0.00    +0.000 A 
ATOM      7  C   UNL     1      -2.403  12.297  22.658  0.00  0.00    +0.000 A 
ATOM      8  C   UNL     1      -3.573  13.039  22.542  0.00  0.00    +0.000 A 
ATOM      9  C   UNL     1      -4.191  13.223  21.301  0.00  0.00    +0.000 A 
ATOM     10  C   UNL     1      -3.564  12.653  20.171  0.00  0.00    +0.000 A 
ATOM     11  C   UNL     1      -2.393  11.860  20.250  0.00  0.00    +0.000 A 
ATOM     12  C   UNL     1      -1.787  11.229  18.979  0.00  0.00    +0.000 C 
ATOM     13  C   UNL     1      -0.386  11.850  18.604  0.00  0.00    +0.000 C 
ENDROOT
BRANCH   9  14
ATOM     14  C   UNL     1      -5.467  13.961  21.193  0.00  0.00    +0.000 A 
ATOM     15  C   UNL     1      -5.500  15.368  21.187  0.00  0.00    +0.000 A 
ATOM     16  C   UNL     1      -6.706  16.071  21.134  0.00  0.00    +0.000 A 
ATOM     17  C   UNL     1      -7.911  15.381  21.067  0.00  0.00    +0.000 A 
ATOM     18  C   UNL     1      -7.910  13.989  21.060  0.00  0.00    +0.000 A 
ATOM     19  C   UNL     1      -6.702  13.288  21.128  0.00  0.00    +0.000 A 
ENDBRANCH   9  14
BRANCH  12  20
ATOM     20  C   UNL     1      -2.767  11.154  17.774  0.00  0.00    +0.000 A 
ATOM     21  C   UNL     1      -4.122  11.522  17.860  0.00  0.00    +0.000 A 
ATOM     22  C   UNL     1      -4.964  11.430  16.750  0.00  0.00    +0.000 A 
ATOM     23  C   UNL     1      -4.480  10.925  15.546  0.00  0.00    +0.000 A 
ATOM     24  C   UNL     1      -3.146  10.537  15.431  0.00  0.00    +0.000 A 
ATOM     25  C   UNL     1      -2.291  10.681  16.531  0.00  0.00    +0.000 A 
BRANCH  24  26
ATOM     26  O   UNL     1      -2.818  10.022  14.208  0.00  0.00    +0.000 OA
ATOM     27  C   UNL     1      -3.863   9.890  13.254  0.00  0.00    +0.000 C 
ENDBRANCH  24  26
ENDBRANCH  12  20
BRANCH   1  28
ATOM     28  C   UNL     1       2.167  12.108  18.824  0.00  0.00    +0.000 C 
ATOM     29  C   UNL     1       2.608  13.295  19.672  0.00  0.00    +0.000 C 
ENDBRANCH   1  28
BRANCH  13  30
ATOM     30  O   UNL     1      -0.398  13.283  18.672  0.00  0.00    +0.000 OA
ATOM     31  H   UNL     1      -1.299  13.611  18.833  0.00  0.00    +0.000 HD
ENDBRANCH  13  30
BRANCH   1  32
ATOM     32  C   UNL     1       1.069   9.797  18.933  0.00  0.00    +0.000 C 
BRANCH  32  33
ATOM     33  C   UNL     1       1.958   9.486  17.725  0.00  0.00    +0.000 C 
BRANCH  33  35
ATOM     34  C   UNL     1       2.279   7.510  19.261  0.00  0.00    +0.000 C 
ATOM     35  C   UNL     1       2.674   8.154  17.944  0.00  0.00    +0.000 C 
ENDBRANCH  33  35
ENDBRANCH  32  33
ENDBRANCH   1  32
TORSDOF 8
ENDMDL
MODEL 4
REMARK VINA RESULT:      -7.0      2.627      4.010
REMARK  Name = 
REMARK  11 active torsions:
REMARK  status: ('A' for Active; 'I' for Inactive)
REMARK    1  A    between atoms: C_1  and  C_2
REMARK    2  A    between atoms: C_2  and  C_3
REMARK    3  A    between atoms: C_3  and  C_4
REMARK    4  A    between atoms: C_4  and  C_5
REMARK    5  A    between atoms: C_5  and  C_6
REMARK    6  A    between atoms: C_6  and  C_7
REMARK    7  A    between atoms: C_15  and  C_16
REMARK    8  A    between atoms: C_24  and  C_25
REMARK    9  A    between atoms: C_29  and  O_30
REMARK   10  A    between atoms: O_30  and  C_31
REMARK   11  A    between atoms: C_33  and  O_34
REMARK                            x       y       z     vdW  Elec       q    Type
REMARK                         _______ _______ _______ _____ _____    ______ ____
ROOT
ATOM      1  C   UNL     1       1.461  15.516  19.326  0.00  0.00    +0.000 C 
ATOM      2  C   UNL     1       1.148  16.227  20.658  0.00  0.00    +0.000 C 
ATOM      3  S   UNL     1       0.929  15.245  22.111  0.00  0.00    +0.000 S 
ATOM      4  O   UNL     1       0.928  16.173  23.229  0.00  0.00    +0.000 OA
ATOM      5  O   UNL     1       1.817  14.104  22.133  0.00  0.00    +0.000 OA
ATOM      6  C   UNL     1      -0.727  14.616  21.955  0.00  0.00    +0.000 A 
ATOM      7  C   UNL     1      -1.625  14.975  22.967  0.00  0.00    +0.000 A 
ATOM      8  C   UNL     1      -2.931  14.499  22.948  0.00  0.00    +0.000 A 
ATOM      9  C   UNL     1      -3.383  13.672  21.914  0.00  0.00    +0.000 A 
ATOM     10  C   UNL     1      -2.472  13.368  20.879  0.00  0.00    +0.000 A 
ATOM     11  C   UNL     1      -1.123  13.800  20.879  0.00  0.00    +0.000 A 
ATOM     12  C   UNL     1      -0.169  13.390  19.738  0.00  0.00    +0.000 C 
ATOM     13  C   UNL     1       0.267  14.616  18.845  0.00  0.00    +0.000 C 
ENDROOT
BRANCH   9  14
ATOM     14  C   UNL     1      -4.754  13.120  21.930  0.00  0.00    +0.000 A 
ATOM     15  C   UNL     1      -5.550  13.173  23.090  0.00  0.00    +0.000 A 
ATOM     16  C   UNL     1      -6.828  12.610  23.127  0.00  0.00    +0.000 A 
ATOM     17  C   UNL     1      -7.348  11.994  21.995  0.00  0.00    +0.000 A 
ATOM     18  C   UNL     1      -6.589  11.934  20.829  0.00  0.00    +0.000 A 
ATOM     19  C   UNL     1      -5.305  12.486  20.800  0.00  0.00    +0.000 A 
ENDBRANCH   9  14
BRANCH  12  20
ATOM     20  C   UNL     1      -0.654  12.168  18.909  0.00  0.00    +0.000 A 
ATOM     21  C   UNL     1      -0.020  10.913  18.944  0.00  0.00    +0.000 A 
ATOM     22  C   UNL     1      -0.490   9.848  18.174  0.00  0.00    +0.000 A 
ATOM     23  C   UNL     1      -1.574  10.029  17.319  0.00  0.00    +0.000 A 
ATOM     24  C   UNL     1      -2.216  11.264  17.248  0.00  0.00    +0.000 A 
ATOM     25  C   UNL     1      -1.775  12.316  18.062  0.00  0.00    +0.000 A 
BRANCH  24  26
ATOM     26  O   UNL     1      -3.236  11.311  16.339  0.00  0.00    +0.000 OA
ATOM     27  C   UNL     1      -3.091  10.539  15.155  0.00  0.00    +0.000 C 
ENDBRANCH  24  26
ENDBRANCH  12  20
BRANCH   1  28
ATOM     28  C   UNL     1       1.674  16.704  18.304  0.00  0.00    +0.000 C 
ATOM     29  C   UNL     1       1.361  18.111  18.798  0.00  0.00    +0.000 C 
ENDBRANCH   1  28
BRANCH  13  30
ATOM     30  O   UNL     1      -0.848  15.445  18.488  0.00  0.00    +0.000 OA
ATOM     31  H   UNL     1      -1.342  15.056  17.746  0.00  0.00    +0.000 HD
ENDBRANCH  13  30
BRANCH   1  32
ATOM     32  C   UNL     1       2.750  14.639  19.371  0.00  0.00    +0.000 C 
BRANCH  32  33
ATOM     33  C   UNL     1       3.545  14.509  18.068  0.00  0.00    +0.000 C 
BRANCH  33  35
ATOM     34  C   UNL     1       5.259  16.253  18.693  0.00  0.00    +0.000 C 
ATOM     35  C   UNL     1       5.022  14.796  18.339  0.00  0.00    +0.000 C 
ENDBRANCH  33  35
ENDBRANCH  32  33
ENDBRANCH   1  32
TORSDOF 8
ENDMDL
MODEL 5
REMARK VINA RESULT:      -7.0      1.141      1.795
REMARK  Name = 
REMARK  11 active torsions:
REMARK  status: ('A' for Active; 'I' for Inactive)
REMARK    1  A    between atoms: C_1  and  C_2
REMARK    2  A    between atoms: C_2  and  C_3
REMARK    3  A    between atoms: C_3  and  C_4
REMARK    4  A    between atoms: C_4  and  C_5
REMARK    5  A    between atoms: C_5  and  C_6
REMARK    6  A    between atoms: C_6  and  C_7
REMARK    7  A    between atoms: C_15  and  C_16
REMARK    8  A    between atoms: C_24  and  C_25
REMARK    9  A    between atoms: C_29  and  O_30
REMARK   10  A    between atoms: O_30  and  C_31
REMARK   11  A    between atoms: C_33  and  O_34
REMARK                            x       y       z     vdW  Elec       q    Type
REMARK                         _______ _______ _______ _____ _____    ______ ____
ROOT
ATOM      1  C   UNL     1       0.956  11.192  18.841  0.00  0.00    +0.000 C 
ATOM      2  C   UNL     1       1.354  11.127  20.329  0.00  0.00    +0.000 C 
ATOM      3  S   UNL     1       0.362  10.164  21.430  0.00  0.00    +0.000 S 
ATOM      4  O   UNL     1       1.116  10.062  22.668  0.00  0.00    +0.000 OA
ATOM      5  O   UNL     1      -0.137   8.962  20.800  0.00  0.00    +0.000 OA
ATOM      6  C   UNL     1      -1.042  11.204  21.760  0.00  0.00    +0.000 A 
ATOM      7  C   UNL     1      -1.242  11.572  23.095  0.00  0.00    +0.000 A 
ATOM      8  C   UNL     1      -2.335  12.353  23.452  0.00  0.00    +0.000 A 
ATOM      9  C   UNL     1      -3.244  12.805  22.490  0.00  0.00    +0.000 A 
ATOM     10  C   UNL     1      -2.991  12.462  21.144  0.00  0.00    +0.000 A 
ATOM     11  C   UNL     1      -1.911  11.638  20.742  0.00  0.00    +0.000 A 
ATOM     12  C   UNL     1      -1.721  11.265  19.257  0.00  0.00    +0.000 C 
ATOM     13  C   UNL     1      -0.424  11.912  18.632  0.00  0.00    +0.000 C 
ENDROOT
BRANCH   9  14
ATOM     14  C   UNL     1      -4.438  13.583  22.883  0.00  0.00    +0.000 A 
ATOM     15  C   UNL     1      -4.319  14.842  23.502  0.00  0.00    +0.000 A 
ATOM     16  C   UNL     1      -5.442  15.561  23.920  0.00  0.00    +0.000 A 
ATOM     17  C   UNL     1      -6.715  15.043  23.712  0.00  0.00    +0.000 A 
ATOM     18  C   UNL     1      -6.865  13.806  23.093  0.00  0.00    +0.000 A 
ATOM     19  C   UNL     1      -5.739  13.082  22.689  0.00  0.00    +0.000 A 
ENDBRANCH   9  14
BRANCH  12  20
ATOM     20  C   UNL     1      -2.990  11.466  18.381  0.00  0.00    +0.000 A 
ATOM     21  C   UNL     1      -3.019  11.210  16.999  0.00  0.00    +0.000 A 
ATOM     22  C   UNL     1      -4.182  11.413  16.254  0.00  0.00    +0.000 A 
ATOM     23  C   UNL     1      -5.325  11.919  16.867  0.00  0.00    +0.000 A 
ATOM     24  C   UNL     1      -5.326  12.197  18.233  0.00  0.00    +0.000 A 
ATOM     25  C   UNL     1      -4.174  11.942  18.988  0.00  0.00    +0.000 A 
BRANCH  24  26
ATOM     26  O   UNL     1      -6.499  12.728  18.694  0.00  0.00    +0.000 OA
ATOM     27  C   UNL     1      -7.339  11.881  19.465  0.00  0.00    +0.000 C 
ENDBRANCH  24  26
ENDBRANCH  12  20
BRANCH   1  28
ATOM     28  C   UNL     1       2.107  12.051  18.178  0.00  0.00    +0.000 C 
ATOM     29  C   UNL     1       2.667  13.210  18.993  0.00  0.00    +0.000 C 
ENDBRANCH   1  28
BRANCH  13  30
ATOM     30  O   UNL     1      -0.300  13.300  18.971  0.00  0.00    +0.000 OA
ATOM     31  H   UNL     1      -1.144  13.649  19.305  0.00  0.00    +0.000 HD
ENDBRANCH  13  30
BRANCH   1  32
ATOM     32  C   UNL     1       0.891   9.796  18.147  0.00  0.00    +0.000 C 
BRANCH  32  33
ATOM     33  C   UNL     1       2.225   9.155  17.756  0.00  0.00    +0.000 C 
BRANCH  33  35
ATOM     34  C   UNL     1       3.508   6.981  17.775  0.00  0.00    +0.000 C 
ATOM     35  C   UNL     1       2.265   7.710  18.253  0.00  0.00    +0.000 C 
ENDBRANCH  33  35
ENDBRANCH  32  33
ENDBRANCH   1  32
TORSDOF 8
ENDMDL
MODEL 6
REMARK VINA RESULT:      -6.9      2.995      7.704
REMARK  Name = 
REMARK  11 active torsions:
REMARK  status: ('A' for Active; 'I' for Inactive)
REMARK    1  A    between atoms: C_1  and  C_2
REMARK    2  A    between atoms: C_2  and  C_3
REMARK    3  A    between atoms: C_3  and  C_4
REMARK    4  A    between atoms: C_4  and  C_5
REMARK    5  A    between atoms: C_5  and  C_6
REMARK    6  A    between atoms: C_6  and  C_7
REMARK    7  A    between atoms: C_15  and  C_16
REMARK    8  A    between atoms: C_24  and  C_25
REMARK    9  A    between atoms: C_29  and  O_30
REMARK   10  A    between atoms: O_30  and  C_31
REMARK   11  A    between atoms: C_33  and  O_34
REMARK                            x       y       z     vdW  Elec       q    Type
REMARK                         _______ _______ _______ _____ _____    ______ ____
ROOT
ATOM      1  C   UNL     1      -4.767  15.989  22.945  0.00  0.00    +0.000 C 
ATOM      2  C   UNL     1      -6.142  15.412  22.550  0.00  0.00    +0.000 C 
ATOM      3  S   UNL     1      -6.403  13.671  22.692  0.00  0.00    +0.000 S 
ATOM      4  O   UNL     1      -7.831  13.462  22.526  0.00  0.00    +0.000 OA
ATOM      5  O   UNL     1      -5.731  13.114  23.845  0.00  0.00    +0.000 OA
ATOM      6  C   UNL     1      -5.608  13.001  21.249  0.00  0.00    +0.000 A 
ATOM      7  C   UNL     1      -6.427  12.297  20.359  0.00  0.00    +0.000 A 
ATOM      8  C   UNL     1      -5.886  11.707  19.223  0.00  0.00    +0.000 A 
ATOM      9  C   UNL     1      -4.523  11.819  18.932  0.00  0.00    +0.000 A 
ATOM     10  C   UNL     1      -3.728  12.578  19.819  0.00  0.00    +0.000 A 
ATOM     11  C   UNL     1      -4.232  13.163  21.006  0.00  0.00    +0.000 A 
ATOM     12  C   UNL     1      -3.295  13.941  21.954  0.00  0.00    +0.000 C 
ATOM     13  C   UNL     1      -3.623  15.484  21.996  0.00  0.00    +0.000 C 
ENDROOT
BRANCH   9  14
ATOM     14  C   UNL     1      -3.942  11.139  17.755  0.00  0.00    +0.000 A 
ATOM     15  C   UNL     1      -2.753  10.392  17.854  0.00  0.00    +0.000 A 
ATOM     16  C   UNL     1      -2.173   9.787  16.737  0.00  0.00    +0.000 A 
ATOM     17  C   UNL     1      -2.781   9.901  15.491  0.00  0.00    +0.000 A 
ATOM     18  C   UNL     1      -3.963  10.624  15.363  0.00  0.00    +0.000 A 
ATOM     19  C   UNL     1      -4.533  11.240  16.481  0.00  0.00    +0.000 A 
ENDBRANCH   9  14
BRANCH  12  20
ATOM     20  C   UNL     1      -1.784  13.640  21.747  0.00  0.00    +0.000 A 
ATOM     21  C   UNL     1      -0.881  14.571  21.204  0.00  0.00    +0.000 A 
ATOM     22  C   UNL     1       0.466  14.249  21.031  0.00  0.00    +0.000 A 
ATOM     23  C   UNL     1       0.928  12.977  21.355  0.00  0.00    +0.000 A 
ATOM     24  C   UNL     1       0.057  12.025  21.883  0.00  0.00    +0.000 A 
ATOM     25  C   UNL     1      -1.283  12.367  22.105  0.00  0.00    +0.000 A 
BRANCH  24  26
ATOM     26  O   UNL     1       0.635  10.808  22.116  0.00  0.00    +0.000 OA
ATOM     27  C   UNL     1      -0.025   9.935  23.022  0.00  0.00    +0.000 C 
ENDBRANCH  24  26
ENDBRANCH  12  20
BRANCH   1  28
ATOM     28  C   UNL     1      -4.948  17.551  22.774  0.00  0.00    +0.000 C 
ATOM     29  C   UNL     1      -6.356  18.062  22.495  0.00  0.00    +0.000 C 
ENDBRANCH   1  28
BRANCH  13  30
ATOM     30  O   UNL     1      -3.811  16.029  20.683  0.00  0.00    +0.000 OA
ATOM     31  H   UNL     1      -4.261  15.389  20.106  0.00  0.00    +0.000 HD
ENDBRANCH  13  30
BRANCH   1  32
ATOM     32  C   UNL     1      -4.356  15.677  24.418  0.00  0.00    +0.000 C 
BRANCH  32  33
ATOM     33  C   UNL     1      -3.536  16.744  25.149  0.00  0.00    +0.000 C 
BRANCH  33  35
ATOM     34  C   UNL     1      -1.533  15.235  24.867  0.00  0.00    +0.000 C 
ATOM     35  C   UNL     1      -2.072  16.647  24.721  0.00  0.00    +0.000 C 
ENDBRANCH  33  35
ENDBRANCH  32  33
ENDBRANCH   1  32
TORSDOF 8
ENDMDL
MODEL 7
REMARK VINA RESULT:      -6.9      3.028      7.440
REMARK  Name = 
REMARK  11 active torsions:
REMARK  status: ('A' for Active; 'I' for Inactive)
REMARK    1  A    between atoms: C_1  and  C_2
REMARK    2  A    between atoms: C_2  and  C_3
REMARK    3  A    between atoms: C_3  and  C_4
REMARK    4  A    between atoms: C_4  and  C_5
REMARK    5  A    between atoms: C_5  and  C_6
REMARK    6  A    between atoms: C_6  and  C_7
REMARK    7  A    between atoms: C_15  and  C_16
REMARK    8  A    between atoms: C_24  and  C_25
REMARK    9  A    between atoms: C_29  and  O_30
REMARK   10  A    between atoms: O_30  and  C_31
REMARK   11  A    between atoms: C_33  and  O_34
REMARK                            x       y       z     vdW  Elec       q    Type
REMARK                         _______ _______ _______ _____ _____    ______ ____
ROOT
ATOM      1  C   UNL     1      -3.688  15.343  23.056  0.00  0.00    +0.000 C 
ATOM      2  C   UNL     1      -5.135  14.907  22.748  0.00  0.00    +0.000 C 
ATOM      3  S   UNL     1      -5.517  13.182  22.746  0.00  0.00    +0.000 S 
ATOM      4  O   UNL     1      -6.967  13.090  22.706  0.00  0.00    +0.000 OA
ATOM      5  O   UNL     1      -4.786  12.463  23.764  0.00  0.00    +0.000 OA
ATOM      6  C   UNL     1      -4.916  12.615  21.171  0.00  0.00    +0.000 A 
ATOM      7  C   UNL     1      -5.869  12.066  20.304  0.00  0.00    +0.000 A 
ATOM      8  C   UNL     1      -5.485  11.563  19.067  0.00  0.00    +0.000 A 
ATOM      9  C   UNL     1      -4.150  11.610  18.651  0.00  0.00    +0.000 A 
ATOM     10  C   UNL     1      -3.219  12.216  19.523  0.00  0.00    +0.000 A 
ATOM     11  C   UNL     1      -3.561  12.706  20.806  0.00  0.00    +0.000 A 
ATOM     12  C   UNL     1      -2.481  13.314  21.726  0.00  0.00    +0.000 C 
ATOM     13  C   UNL     1      -2.681  14.863  21.951  0.00  0.00    +0.000 C 
ENDROOT
BRANCH   9  14
ATOM     14  C   UNL     1      -3.738  11.019  17.361  0.00  0.00    +0.000 A 
ATOM     15  C   UNL     1      -2.645  10.135  17.277  0.00  0.00    +0.000 A 
ATOM     16  C   UNL     1      -2.221   9.611  16.053  0.00  0.00    +0.000 A 
ATOM     17  C   UNL     1      -2.893   9.946  14.883  0.00  0.00    +0.000 A 
ATOM     18  C   UNL     1      -3.983  10.809  14.935  0.00  0.00    +0.000 A 
ATOM     19  C   UNL     1      -4.397  11.343  16.159  0.00  0.00    +0.000 A 
ENDBRANCH   9  14
BRANCH  12  20
ATOM     20  C   UNL     1      -1.025  12.933  21.338  0.00  0.00    +0.000 A 
ATOM     21  C   UNL     1      -0.523  11.622  21.424  0.00  0.00    +0.000 A 
ATOM     22  C   UNL     1       0.796  11.333  21.070  0.00  0.00    +0.000 A 
ATOM     23  C   UNL     1       1.652  12.354  20.669  0.00  0.00    +0.000 A 
ATOM     24  C   UNL     1       1.192  13.667  20.588  0.00  0.00    +0.000 A 
ATOM     25  C   UNL     1      -0.147  13.947  20.891  0.00  0.00    +0.000 A 
BRANCH  24  26
ATOM     26  O   UNL     1       2.149  14.573  20.221  0.00  0.00    +0.000 OA
ATOM     27  C   UNL     1       2.880  14.304  19.033  0.00  0.00    +0.000 C 
ENDBRANCH  24  26
ENDBRANCH  12  20
BRANCH   1  28
ATOM     28  C   UNL     1      -3.760  16.923  23.058  0.00  0.00    +0.000 C 
ATOM     29  C   UNL     1      -4.797  17.571  23.967  0.00  0.00    +0.000 C 
ENDBRANCH   1  28
BRANCH  13  30
ATOM     30  O   UNL     1      -2.948  15.555  20.723  0.00  0.00    +0.000 OA
ATOM     31  H   UNL     1      -3.054  16.508  20.882  0.00  0.00    +0.000 HD
ENDBRANCH  13  30
BRANCH   1  32
ATOM     32  C   UNL     1      -3.166  14.851  24.442  0.00  0.00    +0.000 C 
BRANCH  32  33
ATOM     33  C   UNL     1      -1.722  15.210  24.806  0.00  0.00    +0.000 C 
BRANCH  33  35
ATOM     34  C   UNL     1      -0.293  16.210  26.629  0.00  0.00    +0.000 C 
ATOM     35  C   UNL     1      -1.705  16.008  26.110  0.00  0.00    +0.000 C 
ENDBRANCH  33  35
ENDBRANCH  32  33
ENDBRANCH   1  32
TORSDOF 8
ENDMDL
MODEL 8
REMARK VINA RESULT:      -6.8      3.114      7.368
REMARK  Name = 
REMARK  11 active torsions:
REMARK  status: ('A' for Active; 'I' for Inactive)
REMARK    1  A    between atoms: C_1  and  C_2
REMARK    2  A    between atoms: C_2  and  C_3
REMARK    3  A    between atoms: C_3  and  C_4
REMARK    4  A    between atoms: C_4  and  C_5
REMARK    5  A    between atoms: C_5  and  C_6
REMARK    6  A    between atoms: C_6  and  C_7
REMARK    7  A    between atoms: C_15  and  C_16
REMARK    8  A    between atoms: C_24  and  C_25
REMARK    9  A    between atoms: C_29  and  O_30
REMARK   10  A    between atoms: O_30  and  C_31
REMARK   11  A    between atoms: C_33  and  O_34
REMARK                            x       y       z     vdW  Elec       q    Type
REMARK                         _______ _______ _______ _____ _____    ______ ____
ROOT
ATOM      1  C   UNL     1      -6.242  12.105  18.364  0.00  0.00    +0.000 C 
ATOM      2  C   UNL     1      -5.273  11.916  17.179  0.00  0.00    +0.000 C 
ATOM      3  S   UNL     1      -3.842  10.904  17.408  0.00  0.00    +0.000 S 
ATOM      4  O   UNL     1      -3.286  10.687  16.083  0.00  0.00    +0.000 OA
ATOM      5  O   UNL     1      -4.111   9.770  18.263  0.00  0.00    +0.000 OA
ATOM      6  C   UNL     1      -2.709  11.961  18.281  0.00  0.00    +0.000 A 
ATOM      7  C   UNL     1      -1.496  12.234  17.639  0.00  0.00    +0.000 A 
ATOM      8  C   UNL     1      -0.533  13.020  18.262  0.00  0.00    +0.000 A 
ATOM      9  C   UNL     1      -0.760  13.571  19.528  0.00  0.00    +0.000 A 
ATOM     10  C   UNL     1      -2.013  13.322  20.130  0.00  0.00    +0.000 A 
ATOM     11  C   UNL     1      -3.005  12.497  19.548  0.00  0.00    +0.000 A 
ATOM     12  C   UNL     1      -4.334  12.230  20.284  0.00  0.00    +0.000 C 
ATOM     13  C   UNL     1      -5.572  12.881  19.553  0.00  0.00    +0.000 C 
ENDROOT
BRANCH   9  14
ATOM     14  C   UNL     1       0.290  14.355  20.212  0.00  0.00    +0.000 A 
ATOM     15  C   UNL     1       0.401  15.746  20.027  0.00  0.00    +0.000 A 
ATOM     16  C   UNL     1       1.421  16.485  20.632  0.00  0.00    +0.000 A 
ATOM     17  C   UNL     1       2.346  15.850  21.453  0.00  0.00    +0.000 A 
ATOM     18  C   UNL     1       2.256  14.477  21.663  0.00  0.00    +0.000 A 
ATOM     19  C   UNL     1       1.243  13.738  21.045  0.00  0.00    +0.000 A 
ENDBRANCH   9  14
BRANCH  12  20
ATOM     20  C   UNL     1      -4.292  12.536  21.808  0.00  0.00    +0.000 A 
ATOM     21  C   UNL     1      -3.177  12.258  22.618  0.00  0.00    +0.000 A 
ATOM     22  C   UNL     1      -3.191  12.545  23.984  0.00  0.00    +0.000 A 
ATOM     23  C   UNL     1      -4.335  13.072  24.576  0.00  0.00    +0.000 A 
ATOM     24  C   UNL     1      -5.463  13.346  23.805  0.00  0.00    +0.000 A 
ATOM     25  C   UNL     1      -5.428  13.107  22.425  0.00  0.00    +0.000 A 
BRANCH  24  26
ATOM     26  O   UNL     1      -6.527  13.821  24.521  0.00  0.00    +0.000 OA
ATOM     27  C   UNL     1      -7.826  13.565  24.007  0.00  0.00    +0.000 C 
ENDBRANCH  24  26
ENDBRANCH  12  20
BRANCH   1  28
ATOM     28  C   UNL     1      -7.417  12.974  17.758  0.00  0.00    +0.000 C 
ATOM     29  C   UNL     1      -7.118  13.757  16.485  0.00  0.00    +0.000 C 
ENDBRANCH   1  28
BRANCH  13  30
ATOM     30  O   UNL     1      -5.312  14.236  19.159  0.00  0.00    +0.000 OA
ATOM     31  H   UNL     1      -5.855  14.480  18.389  0.00  0.00    +0.000 HD
ENDBRANCH  13  30
BRANCH   1  32
ATOM     32  C   UNL     1      -6.825  10.768  18.917  0.00  0.00    +0.000 C 
BRANCH  32  33
ATOM     33  C   UNL     1      -7.572  10.838  20.252  0.00  0.00    +0.000 C 
BRANCH  33  35
ATOM     34  C   UNL     1      -7.069   8.382  19.962  0.00  0.00    +0.000 C 
ATOM     35  C   UNL     1      -7.808   9.424  20.783  0.00  0.00    +0.000 C 
ENDBRANCH  33  35
ENDBRANCH  32  33
ENDBRANCH   1  32
TORSDOF 8
ENDMDL
MODEL 9
REMARK VINA RESULT:      -6.8      3.601      7.883
REMARK  Name = 
REMARK  11 active torsions:
REMARK  status: ('A' for Active; 'I' for Inactive)
REMARK    1  A    between atoms: C_1  and  C_2
REMARK    2  A    between atoms: C_2  and  C_3
REMARK    3  A    between atoms: C_3  and  C_4
REMARK    4  A    between atoms: C_4  and  C_5
REMARK    5  A    between atoms: C_5  and  C_6
REMARK    6  A    between atoms: C_6  and  C_7
REMARK    7  A    between atoms: C_15  and  C_16
REMARK    8  A    between atoms: C_24  and  C_25
REMARK    9  A    between atoms: C_29  and  O_30
REMARK   10  A    between atoms: O_30  and  C_31
REMARK   11  A    between atoms: C_33  and  O_34
REMARK                            x       y       z     vdW  Elec       q    Type
REMARK                         _______ _______ _______ _____ _____    ______ ____
ROOT
ATOM      1  C   UNL     1      -1.626  15.812  21.602  0.00  0.00    +0.000 C 
ATOM      2  C   UNL     1      -2.468  14.699  22.258  0.00  0.00    +0.000 C 
ATOM      3  S   UNL     1      -1.676  13.586  23.379  0.00  0.00    +0.000 S 
ATOM      4  O   UNL     1      -2.742  12.848  24.035  0.00  0.00    +0.000 OA
ATOM      5  O   UNL     1      -0.670  14.247  24.179  0.00  0.00    +0.000 OA
ATOM      6  C   UNL     1      -0.828  12.441  22.315  0.00  0.00    +0.000 A 
ATOM      7  C   UNL     1      -1.208  11.098  22.421  0.00  0.00    +0.000 A 
ATOM      8  C   UNL     1      -0.574  10.126  21.656  0.00  0.00    +0.000 A 
ATOM      9  C   UNL     1       0.437  10.467  20.751  0.00  0.00    +0.000 A 
ATOM     10  C   UNL     1       0.764  11.834  20.626  0.00  0.00    +0.000 A 
ATOM     11  C   UNL     1       0.170  12.851  21.413  0.00  0.00    +0.000 A 
ATOM     12  C   UNL     1       0.610  14.321  21.256  0.00  0.00    +0.000 C 
ATOM     13  C   UNL     1      -0.526  15.230  20.645  0.00  0.00    +0.000 C 
ENDROOT
BRANCH   9  14
ATOM     14  C   UNL     1       1.149   9.423  19.984  0.00  0.00    +0.000 A 
ATOM     15  C   UNL     1       1.369   9.554  18.600  0.00  0.00    +0.000 A 
ATOM     16  C   UNL     1       1.999   8.549  17.861  0.00  0.00    +0.000 A 
ATOM     17  C   UNL     1       2.440   7.393  18.494  0.00  0.00    +0.000 A 
ATOM     18  C   UNL     1       2.246   7.239  19.864  0.00  0.00    +0.000 A 
ATOM     19  C   UNL     1       1.602   8.239  20.598  0.00  0.00    +0.000 A 
ENDBRANCH   9  14
BRANCH  12  20
ATOM     20  C   UNL     1       1.986  14.504  20.556  0.00  0.00    +0.000 A 
ATOM     21  C   UNL     1       3.214  14.263  21.196  0.00  0.00    +0.000 A 
ATOM     22  C   UNL     1       4.424  14.450  20.525  0.00  0.00    +0.000 A 
ATOM     23  C   UNL     1       4.431  14.925  19.217  0.00  0.00    +0.000 A 
ATOM     24  C   UNL     1       3.232  15.188  18.557  0.00  0.00    +0.000 A 
ATOM     25  C   UNL     1       2.019  14.950  19.215  0.00  0.00    +0.000 A 
BRANCH  24  26
ATOM     26  O   UNL     1       3.388  15.689  17.294  0.00  0.00    +0.000 OA
ATOM     27  C   UNL     1       2.858  16.981  17.035  0.00  0.00    +0.000 C 
ENDBRANCH  24  26
ENDBRANCH  12  20
BRANCH   1  28
ATOM     28  C   UNL     1      -2.680  16.638  20.760  0.00  0.00    +0.000 C 
ATOM     29  C   UNL     1      -4.153  16.325  20.990  0.00  0.00    +0.000 C 
ENDBRANCH   1  28
BRANCH  13  30
ATOM     30  O   UNL     1      -1.151  14.618  19.508  0.00  0.00    +0.000 OA
ATOM     31  H   UNL     1      -0.790  13.728  19.356  0.00  0.00    +0.000 HD
ENDBRANCH  13  30
BRANCH   1  32
ATOM     32  C   UNL     1      -0.932  16.760  22.629  0.00  0.00    +0.000 C 
BRANCH  32  33
ATOM     33  C   UNL     1      -0.376  18.080  22.086  0.00  0.00    +0.000 C 
BRANCH  33  35
ATOM     34  C   UNL     1       1.878  18.631  21.095  0.00  0.00    +0.000 C 
ATOM     35  C   UNL     1       1.133  18.137  22.322  0.00  0.00    +0.000 C 
ENDBRANCH  33  35
ENDBRANCH  32  33
ENDBRANCH   1  32
TORSDOF 8
ENDMDL
