MODEL 1
REMARK VINA RESULT:      -4.4      0.000      0.000
REMARK  Name = 
REMARK  8 active torsions:
REMARK  status: ('A' for Active; 'I' for Inactive)
REMARK    1  A    between atoms: C_1  and  S_2
REMARK    2  A    between atoms: S_2  and  C_3
REMARK    3  A    between atoms: C_3  and  C_4
REMARK    4  A    between atoms: C_3  and  C_5
REMARK    5  A    between atoms: C_5  and  CA_6
REMARK    6  A    between atoms: CA_6  and  N_7
REMARK    7  A    between atoms: CA_6  and  C_8
REMARK    8  A    between atoms: C_8  and  OXT_10
REMARK                            x       y       z     vdW  Elec       q    Type
REMARK                         _______ _______ _______ _____ _____    ______ ____
ROOT
ATOM      1  CA  UNL     1       3.457   2.056  18.721  0.00  0.00    +0.000 C 
ENDROOT
BRANCH   1   2
ATOM      2  N   UNL     1       3.956   0.757  18.226  0.00  0.00    +0.000 NA
ATOM      3  H1  UNL     1       3.309   0.030  18.545  0.00  0.00    +0.000 HD
ATOM      4  H2  UNL     1       4.828   0.531  18.713  0.00  0.00    +0.000 HD
ENDBRANCH   1   2
BRANCH   1   5
ATOM      5  C   UNL     1       4.362   2.514  19.881  0.00  0.00    +0.000 C 
ATOM      6  O   UNL     1       4.145   2.250  21.060  0.00  0.00    +0.000 OA
BRANCH   5   7
ATOM      7  OXT UNL     1       5.430   3.250  19.497  0.00  0.00    +0.000 OA
ATOM      8  HXT UNL     1       5.206   4.027  18.949  0.00  0.00    +0.000 HD
ENDBRANCH   5   7
ENDBRANCH   1   5
BRANCH   1   9
ATOM      9  C   UNL     1       2.017   1.956  19.245  0.00  0.00    +0.000 C 
BRANCH   9  10
ATOM     10  C   UNL     1       1.148   3.225  19.148  0.00  0.00    +0.000 C 
ATOM     11  C   UNL     1       1.006   4.050  20.426  0.00  0.00    +0.000 C 
BRANCH  10  13
ATOM     12  C   UNL     1       2.504   5.684  18.755  0.00  0.00    +0.000 C 
ATOM     13  S   UNL     1       1.787   4.317  17.796  0.00  0.00    +0.000 S 
ENDBRANCH  10  13
ENDBRANCH   9  10
ENDBRANCH   1   9
TORSDOF 6
ENDMDL
MODEL 2
REMARK VINA RESULT:      -4.3      2.242      2.918
REMARK  Name = 
REMARK  8 active torsions:
REMARK  status: ('A' for Active; 'I' for Inactive)
REMARK    1  A    between atoms: C_1  and  S_2
REMARK    2  A    between atoms: S_2  and  C_3
REMARK    3  A    between atoms: C_3  and  C_4
REMARK    4  A    between atoms: C_3  and  C_5
REMARK    5  A    between atoms: C_5  and  CA_6
REMARK    6  A    between atoms: CA_6  and  N_7
REMARK    7  A    between atoms: CA_6  and  C_8
REMARK    8  A    between atoms: C_8  and  OXT_10
REMARK                            x       y       z     vdW  Elec       q    Type
REMARK                         _______ _______ _______ _____ _____    ______ ____
ROOT
ATOM      1  CA  UNL     1       4.350   3.454  18.827  0.00  0.00    +0.000 C 
ENDROOT
BRANCH   1   2
ATOM      2  N   UNL     1       5.050   2.513  19.725  0.00  0.00    +0.000 NA
ATOM      3  H1  UNL     1       4.730   1.566  19.497  0.00  0.00    +0.000 HD
ATOM      4  H2  UNL     1       4.712   2.656  20.680  0.00  0.00    +0.000 HD
ENDBRANCH   1   2
BRANCH   1   5
ATOM      5  C   UNL     1       5.403   4.337  18.132  0.00  0.00    +0.000 C 
ATOM      6  O   UNL     1       5.127   5.219  17.324  0.00  0.00    +0.000 OA
BRANCH   5   7
ATOM      7  OXT UNL     1       6.680   4.058  18.479  0.00  0.00    +0.000 OA
ATOM      8  HXT UNL     1       6.770   3.538  19.301  0.00  0.00    +0.000 HD
ENDBRANCH   5   7
ENDBRANCH   1   5
BRANCH   1   9
ATOM      9  C   UNL     1       3.384   4.370  19.593  0.00  0.00    +0.000 C 
BRANCH   9  10
ATOM     10  C   UNL     1       1.902   4.328  19.177  0.00  0.00    +0.000 C 
ATOM     11  C   UNL     1       1.616   4.369  17.677  0.00  0.00    +0.000 C 
BRANCH  10  13
ATOM     12  C   UNL     1       1.716   2.876  21.607  0.00  0.00    +0.000 C 
ATOM     13  S   UNL     1       1.091   2.828  19.901  0.00  0.00    +0.000 S 
ENDBRANCH  10  13
ENDBRANCH   9  10
ENDBRANCH   1   9
TORSDOF 6
ENDMDL
MODEL 3
REMARK VINA RESULT:      -4.2      3.996      4.660
REMARK  Name = 
REMARK  8 active torsions:
REMARK  status: ('A' for Active; 'I' for Inactive)
REMARK    1  A    between atoms: C_1  and  S_2
REMARK    2  A    between atoms: S_2  and  C_3
REMARK    3  A    between atoms: C_3  and  C_4
REMARK    4  A    between atoms: C_3  and  C_5
REMARK    5  A    between atoms: C_5  and  CA_6
REMARK    6  A    between atoms: CA_6  and  N_7
REMARK    7  A    between atoms: CA_6  and  C_8
REMARK    8  A    between atoms: C_8  and  OXT_10
REMARK                            x       y       z     vdW  Elec       q    Type
REMARK                         _______ _______ _______ _____ _____    ______ ____
ROOT
ATOM      1  CA  UNL     1       5.734   5.428  16.445  0.00  0.00    +0.000 C 
ENDROOT
BRANCH   1   2
ATOM      2  N   UNL     1       5.333   6.487  15.498  0.00  0.00    +0.000 NA
ATOM      3  H1  UNL     1       6.185   6.950  15.167  0.00  0.00    +0.000 HD
ATOM      4  H2  UNL     1       4.845   7.224  16.014  0.00  0.00    +0.000 HD
ENDBRANCH   1   2
BRANCH   1   5
ATOM      5  C   UNL     1       7.172   4.992  16.106  0.00  0.00    +0.000 C 
ATOM      6  O   UNL     1       7.906   4.396  16.889  0.00  0.00    +0.000 OA
BRANCH   5   7
ATOM      7  OXT UNL     1       7.577   5.329  14.861  0.00  0.00    +0.000 OA
ATOM      8  HXT UNL     1       7.463   4.623  14.195  0.00  0.00    +0.000 HD
ENDBRANCH   5   7
ENDBRANCH   1   5
BRANCH   1   9
ATOM      9  C   UNL     1       4.823   4.195  16.349  0.00  0.00    +0.000 C 
BRANCH   9  10
ATOM     10  C   UNL     1       3.891   3.919  17.544  0.00  0.00    +0.000 C 
ATOM     11  C   UNL     1       3.591   2.451  17.847  0.00  0.00    +0.000 C 
BRANCH  10  13
ATOM     12  C   UNL     1       3.247   5.884  19.485  0.00  0.00    +0.000 C 
ATOM     13  S   UNL     1       4.576   4.717  19.069  0.00  0.00    +0.000 S 
ENDBRANCH  10  13
ENDBRANCH   9  10
ENDBRANCH   1   9
TORSDOF 6
ENDMDL
MODEL 4
REMARK VINA RESULT:      -4.2      3.406      4.329
REMARK  Name = 
REMARK  8 active torsions:
REMARK  status: ('A' for Active; 'I' for Inactive)
REMARK    1  A    between atoms: C_1  and  S_2
REMARK    2  A    between atoms: S_2  and  C_3
REMARK    3  A    between atoms: C_3  and  C_4
REMARK    4  A    between atoms: C_3  and  C_5
REMARK    5  A    between atoms: C_5  and  CA_6
REMARK    6  A    between atoms: CA_6  and  N_7
REMARK    7  A    between atoms: CA_6  and  C_8
REMARK    8  A    between atoms: C_8  and  OXT_10
REMARK                            x       y       z     vdW  Elec       q    Type
REMARK                         _______ _______ _______ _____ _____    ______ ____
ROOT
ATOM      1  CA  UNL     1       5.803   4.695  15.970  0.00  0.00    +0.000 C 
ENDROOT
BRANCH   1   2
ATOM      2  N   UNL     1       5.761   3.224  16.085  0.00  0.00    +0.000 NA
ATOM      3  H1  UNL     1       6.727   2.881  16.069  0.00  0.00    +0.000 HD
ATOM      4  H2  UNL     1       5.356   2.837  15.229  0.00  0.00    +0.000 HD
ENDBRANCH   1   2
BRANCH   1   5
ATOM      5  C   UNL     1       7.166   5.186  16.494  0.00  0.00    +0.000 C 
ATOM      6  O   UNL     1       7.541   6.352  16.430  0.00  0.00    +0.000 OA
BRANCH   5   7
ATOM      7  OXT UNL     1       7.938   4.214  17.032  0.00  0.00    +0.000 OA
ATOM      8  HXT UNL     1       8.454   4.496  17.812  0.00  0.00    +0.000 HD
ENDBRANCH   5   7
ENDBRANCH   1   5
BRANCH   1   9
ATOM      9  C   UNL     1       4.699   5.369  16.799  0.00  0.00    +0.000 C 
BRANCH   9  10
ATOM     10  C   UNL     1       4.191   4.608  18.038  0.00  0.00    +0.000 C 
ATOM     11  C   UNL     1       4.308   5.335  19.376  0.00  0.00    +0.000 C 
BRANCH  10  13
ATOM     12  C   UNL     1       2.579   2.291  17.764  0.00  0.00    +0.000 C 
ATOM     13  S   UNL     1       2.429   4.102  17.782  0.00  0.00    +0.000 S 
ENDBRANCH  10  13
ENDBRANCH   9  10
ENDBRANCH   1   9
TORSDOF 6
ENDMDL
MODEL 5
REMARK VINA RESULT:      -4.2      4.031      4.898
REMARK  Name = 
REMARK  8 active torsions:
REMARK  status: ('A' for Active; 'I' for Inactive)
REMARK    1  A    between atoms: C_1  and  S_2
REMARK    2  A    between atoms: S_2  and  C_3
REMARK    3  A    between atoms: C_3  and  C_4
REMARK    4  A    between atoms: C_3  and  C_5
REMARK    5  A    between atoms: C_5  and  CA_6
REMARK    6  A    between atoms: CA_6  and  N_7
REMARK    7  A    between atoms: CA_6  and  C_8
REMARK    8  A    between atoms: C_8  and  OXT_10
REMARK                            x       y       z     vdW  Elec       q    Type
REMARK                         _______ _______ _______ _____ _____    ______ ____
ROOT
ATOM      1  CA  UNL     1       6.953   5.204  17.605  0.00  0.00    +0.000 C 
ENDROOT
BRANCH   1   2
ATOM      2  N   UNL     1       8.017   4.181  17.573  0.00  0.00    +0.000 NA
ATOM      3  H1  UNL     1       7.572   3.263  17.669  0.00  0.00    +0.000 HD
ATOM      4  H2  UNL     1       8.580   4.264  18.423  0.00  0.00    +0.000 HD
ENDBRANCH   1   2
BRANCH   1   5
ATOM      5  C   UNL     1       7.609   6.581  17.818  0.00  0.00    +0.000 C 
ATOM      6  O   UNL     1       7.544   7.500  17.007  0.00  0.00    +0.000 OA
BRANCH   5   7
ATOM      7  OXT UNL     1       8.282   6.703  18.985  0.00  0.00    +0.000 OA
ATOM      8  HXT UNL     1       9.200   6.372  18.957  0.00  0.00    +0.000 HD
ENDBRANCH   5   7
ENDBRANCH   1   5
BRANCH   1   9
ATOM      9  C   UNL     1       5.957   4.963  18.750  0.00  0.00    +0.000 C 
BRANCH   9  10
ATOM     10  C   UNL     1       4.575   4.400  18.368  0.00  0.00    +0.000 C 
ATOM     11  C   UNL     1       4.350   4.099  16.887  0.00  0.00    +0.000 C 
BRANCH  10  13
ATOM     12  C   UNL     1       2.844   3.417  20.388  0.00  0.00    +0.000 C 
ATOM     13  S   UNL     1       4.231   2.869  19.350  0.00  0.00    +0.000 S 
ENDBRANCH  10  13
ENDBRANCH   9  10
ENDBRANCH   1   9
TORSDOF 6
ENDMDL
MODEL 6
REMARK VINA RESULT:      -4.2      3.615      4.356
REMARK  Name = 
REMARK  8 active torsions:
REMARK  status: ('A' for Active; 'I' for Inactive)
REMARK    1  A    between atoms: C_1  and  S_2
REMARK    2  A    between atoms: S_2  and  C_3
REMARK    3  A    between atoms: C_3  and  C_4
REMARK    4  A    between atoms: C_3  and  C_5
REMARK    5  A    between atoms: C_5  and  CA_6
REMARK    6  A    between atoms: CA_6  and  N_7
REMARK    7  A    between atoms: CA_6  and  C_8
REMARK    8  A    between atoms: C_8  and  OXT_10
REMARK                            x       y       z     vdW  Elec       q    Type
REMARK                         _______ _______ _______ _____ _____    ______ ____
ROOT
ATOM      1  CA  UNL     1       4.051   3.533  18.385  0.00  0.00    +0.000 C 
ENDROOT
BRANCH   1   2
ATOM      2  N   UNL     1       5.291   3.195  19.111  0.00  0.00    +0.000 NA
ATOM      3  H1  UNL     1       6.044   3.778  18.732  0.00  0.00    +0.000 HD
ATOM      4  H2  UNL     1       5.574   2.245  18.857  0.00  0.00    +0.000 HD
ENDBRANCH   1   2
BRANCH   1   5
ATOM      5  C   UNL     1       3.338   2.222  18.003  0.00  0.00    +0.000 C 
ATOM      6  O   UNL     1       2.263   2.177  17.414  0.00  0.00    +0.000 OA
BRANCH   5   7
ATOM      7  OXT UNL     1       3.995   1.101  18.381  0.00  0.00    +0.000 OA
ATOM      8  HXT UNL     1       3.503   0.539  19.009  0.00  0.00    +0.000 HD
ENDBRANCH   5   7
ENDBRANCH   1   5
BRANCH   1   9
ATOM      9  C   UNL     1       4.334   4.319  17.096  0.00  0.00    +0.000 C 
BRANCH   9  10
ATOM     10  C   UNL     1       5.796   4.375  16.618  0.00  0.00    +0.000 C 
ATOM     11  C   UNL     1       6.058   3.938  15.178  0.00  0.00    +0.000 C 
BRANCH  10  13
ATOM     12  C   UNL     1       7.516   5.855  18.320  0.00  0.00    +0.000 C 
ATOM     13  S   UNL     1       6.466   6.086  16.856  0.00  0.00    +0.000 S 
ENDBRANCH  10  13
ENDBRANCH   9  10
ENDBRANCH   1   9
TORSDOF 6
ENDMDL
MODEL 7
REMARK VINA RESULT:      -4.2      3.246      4.122
REMARK  Name = 
REMARK  8 active torsions:
REMARK  status: ('A' for Active; 'I' for Inactive)
REMARK    1  A    between atoms: C_1  and  S_2
REMARK    2  A    between atoms: S_2  and  C_3
REMARK    3  A    between atoms: C_3  and  C_4
REMARK    4  A    between atoms: C_3  and  C_5
REMARK    5  A    between atoms: C_5  and  CA_6
REMARK    6  A    between atoms: CA_6  and  N_7
REMARK    7  A    between atoms: CA_6  and  C_8
REMARK    8  A    between atoms: C_8  and  OXT_10
REMARK                            x       y       z     vdW  Elec       q    Type
REMARK                         _______ _______ _______ _____ _____    ______ ____
ROOT
ATOM      1  CA  UNL     1       5.748   4.495  16.976  0.00  0.00    +0.000 C 
ENDROOT
BRANCH   1   2
ATOM      2  N   UNL     1       5.641   3.240  16.205  0.00  0.00    +0.000 NA
ATOM      3  H1  UNL     1       4.936   2.652  16.661  0.00  0.00    +0.000 HD
ATOM      4  H2  UNL     1       6.507   2.707  16.319  0.00  0.00    +0.000 HD
ENDBRANCH   1   2
BRANCH   1   5
ATOM      5  C   UNL     1       7.194   5.013  16.862  0.00  0.00    +0.000 C 
ATOM      6  O   UNL     1       7.492   6.102  16.379  0.00  0.00    +0.000 OA
BRANCH   5   7
ATOM      7  OXT UNL     1       8.132   4.159  17.333  0.00  0.00    +0.000 OA
ATOM      8  HXT UNL     1       8.563   3.616  16.645  0.00  0.00    +0.000 HD
ENDBRANCH   5   7
ENDBRANCH   1   5
BRANCH   1   9
ATOM      9  C   UNL     1       5.430   4.285  18.464  0.00  0.00    +0.000 C 
BRANCH   9  10
ATOM     10  C   UNL     1       3.966   4.482  18.901  0.00  0.00    +0.000 C 
ATOM     11  C   UNL     1       3.035   5.135  17.880  0.00  0.00    +0.000 C 
BRANCH  10  13
ATOM     12  C   UNL     1       2.549   2.263  17.849  0.00  0.00    +0.000 C 
ATOM     13  S   UNL     1       3.244   2.858  19.419  0.00  0.00    +0.000 S 
ENDBRANCH  10  13
ENDBRANCH   9  10
ENDBRANCH   1   9
TORSDOF 6
ENDMDL
MODEL 8
REMARK VINA RESULT:      -4.2      3.274      4.262
REMARK  Name = 
REMARK  8 active torsions:
REMARK  status: ('A' for Active; 'I' for Inactive)
REMARK    1  A    between atoms: C_1  and  S_2
REMARK    2  A    between atoms: S_2  and  C_3
REMARK    3  A    between atoms: C_3  and  C_4
REMARK    4  A    between atoms: C_3  and  C_5
REMARK    5  A    between atoms: C_5  and  CA_6
REMARK    6  A    between atoms: CA_6  and  N_7
REMARK    7  A    between atoms: CA_6  and  C_8
REMARK    8  A    between atoms: C_8  and  OXT_10
REMARK                            x       y       z     vdW  Elec       q    Type
REMARK                         _______ _______ _______ _____ _____    ______ ____
ROOT
ATOM      1  CA  UNL     1       5.731   5.612  16.889  0.00  0.00    +0.000 C 
ENDROOT
BRANCH   1   2
ATOM      2  N   UNL     1       5.932   6.212  15.555  0.00  0.00    +0.000 NA
ATOM      3  H1  UNL     1       5.047   6.642  15.268  0.00  0.00    +0.000 HD
ATOM      4  H2  UNL     1       6.065   5.461  14.872  0.00  0.00    +0.000 HD
ENDBRANCH   1   2
BRANCH   1   5
ATOM      5  C   UNL     1       6.931   4.696  17.196  0.00  0.00    +0.000 C 
ATOM      6  O   UNL     1       7.856   4.500  16.414  0.00  0.00    +0.000 OA
BRANCH   5   7
ATOM      7  OXT UNL     1       6.884   4.105  18.412  0.00  0.00    +0.000 OA
ATOM      8  HXT UNL     1       7.304   3.224  18.447  0.00  0.00    +0.000 HD
ENDBRANCH   5   7
ENDBRANCH   1   5
BRANCH   1   9
ATOM      9  C   UNL     1       4.451   4.765  16.952  0.00  0.00    +0.000 C 
BRANCH   9  10
ATOM     10  C   UNL     1       3.420   5.136  18.034  0.00  0.00    +0.000 C 
ATOM     11  C   UNL     1       3.017   6.608  18.111  0.00  0.00    +0.000 C 
BRANCH  10  13
ATOM     12  C   UNL     1       2.601   2.434  17.767  0.00  0.00    +0.000 C 
ATOM     13  S   UNL     1       1.894   4.107  17.822  0.00  0.00    +0.000 S 
ENDBRANCH  10  13
ENDBRANCH   9  10
ENDBRANCH   1   9
TORSDOF 6
ENDMDL
MODEL 9
REMARK VINA RESULT:      -4.1      3.713      4.552
REMARK  Name = 
REMARK  8 active torsions:
REMARK  status: ('A' for Active; 'I' for Inactive)
REMARK    1  A    between atoms: C_1  and  S_2
REMARK    2  A    between atoms: S_2  and  C_3
REMARK    3  A    between atoms: C_3  and  C_4
REMARK    4  A    between atoms: C_3  and  C_5
REMARK    5  A    between atoms: C_5  and  CA_6
REMARK    6  A    between atoms: CA_6  and  N_7
REMARK    7  A    between atoms: CA_6  and  C_8
REMARK    8  A    between atoms: C_8  and  OXT_10
REMARK                            x       y       z     vdW  Elec       q    Type
REMARK                         _______ _______ _______ _____ _____    ______ ____
ROOT
ATOM      1  CA  UNL     1       6.503   4.356  16.659  0.00  0.00    +0.000 C 
ENDROOT
BRANCH   1   2
ATOM      2  N   UNL     1       6.943   4.259  18.065  0.00  0.00    +0.000 NA
ATOM      3  H1  UNL     1       7.658   3.527  18.120  0.00  0.00    +0.000 HD
ATOM      4  H2  UNL     1       6.174   3.885  18.627  0.00  0.00    +0.000 HD
ENDBRANCH   1   2
BRANCH   1   5
ATOM      5  C   UNL     1       6.619   5.826  16.214  0.00  0.00    +0.000 C 
ATOM      6  O   UNL     1       7.551   6.561  16.525  0.00  0.00    +0.000 OA
BRANCH   5   7
ATOM      7  OXT UNL     1       5.592   6.259  15.447  0.00  0.00    +0.000 OA
ATOM      8  HXT UNL     1       5.366   7.201  15.571  0.00  0.00    +0.000 HD
ENDBRANCH   5   7
ENDBRANCH   1   5
BRANCH   1   9
ATOM      9  C   UNL     1       5.043   3.913  16.481  0.00  0.00    +0.000 C 
BRANCH   9  10
ATOM     10  C   UNL     1       4.150   3.928  17.736  0.00  0.00    +0.000 C 
ATOM     11  C   UNL     1       3.041   4.979  17.768  0.00  0.00    +0.000 C 
BRANCH  10  13
ATOM     12  C   UNL     1       2.349   2.552  19.441  0.00  0.00    +0.000 C 
ATOM     13  S   UNL     1       3.398   2.255  17.987  0.00  0.00    +0.000 S 
ENDBRANCH  10  13
ENDBRANCH   9  10
ENDBRANCH   1   9
TORSDOF 6
ENDMDL
