MODEL 1
REMARK VINA RESULT:      -6.8      0.000      0.000
REMARK  Name = 
REMARK  7 active torsions:
REMARK  status: ('A' for Active; 'I' for Inactive)
REMARK    1  A    between atoms: C_1  and  C_2
REMARK    2  A    between atoms: C_5  and  C_6
REMARK    3  A    between atoms: C_6  and  O_7
REMARK    4  A    between atoms: O_7  and  C_8
REMARK    5  A    between atoms: C_8  and  N_9
REMARK    6  A    between atoms: C_12  and  C_13
REMARK    7  A    between atoms: N_14  and  O_15
REMARK                            x       y       z     vdW  Elec       q    Type
REMARK                         _______ _______ _______ _____ _____    ______ ____
ROOT
ATOM      1  C   UNL     1       4.721   4.078  19.357  0.00  0.00    +0.000 C 
ENDROOT
BRANCH   1   2
ATOM      2  N   UNL     1       5.308   4.222  18.001  0.00  0.00    +0.000 N 
ATOM      3  C   UNL     1       6.547   4.743  17.874  0.00  0.00    +0.000 A 
ATOM      4  C   UNL     1       7.104   4.961  16.620  0.00  0.00    +0.000 A 
ATOM      5  C   UNL     1       6.363   4.632  15.489  0.00  0.00    +0.000 A 
ATOM      6  C   UNL     1       5.095   4.079  15.630  0.00  0.00    +0.000 A 
ATOM      7  C   UNL     1       4.579   3.884  16.911  0.00  0.00    +0.000 A 
BRANCH   5   8
ATOM      8  C   UNL     1       6.904   4.892  14.146  0.00  0.00    +0.000 C 
ATOM      9  N   UNL     1       8.014   5.545  13.983  0.00  0.00    +0.000 NA
BRANCH   9  10
ATOM     10  O   UNL     1       8.276   5.652  12.615  0.00  0.00    +0.000 OA
ATOM     11  H   UNL     1       7.465   6.073  12.269  0.00  0.00    +0.000 HD
ENDBRANCH   9  10
ENDBRANCH   5   8
ENDBRANCH   1   2
BRANCH   1  12
ATOM     12  O   UNL     1       4.248   5.323  19.826  0.00  0.00    +0.000 OA
BRANCH  12  13
ATOM     13  C   UNL     1       2.818   5.363  19.808  0.00  0.00    +0.000 C 
BRANCH  13  18
ATOM     14  C   UNL     1       0.792  10.699  18.675  0.00  0.00    +0.000 C 
ATOM     15  C   UNL     1       1.352   9.338  18.955  0.00  0.00    +0.000 A 
ATOM     16  C   UNL     1       1.972   8.585  17.955  0.00  0.00    +0.000 A 
ATOM     17  C   UNL     1       2.463   7.306  18.235  0.00  0.00    +0.000 A 
ATOM     18  C   UNL     1       2.347   6.758  19.520  0.00  0.00    +0.000 A 
ATOM     19  C   UNL     1       1.741   7.524  20.523  0.00  0.00    +0.000 A 
ATOM     20  C   UNL     1       1.247   8.799  20.239  0.00  0.00    +0.000 A 
ENDBRANCH  13  18
ENDBRANCH  12  13
ENDBRANCH   1  12
TORSDOF 6
ENDMDL
MODEL 2
REMARK VINA RESULT:      -6.8      1.098      1.643
REMARK  Name = 
REMARK  7 active torsions:
REMARK  status: ('A' for Active; 'I' for Inactive)
REMARK    1  A    between atoms: C_1  and  C_2
REMARK    2  A    between atoms: C_5  and  C_6
REMARK    3  A    between atoms: C_6  and  O_7
REMARK    4  A    between atoms: O_7  and  C_8
REMARK    5  A    between atoms: C_8  and  N_9
REMARK    6  A    between atoms: C_12  and  C_13
REMARK    7  A    between atoms: N_14  and  O_15
REMARK                            x       y       z     vdW  Elec       q    Type
REMARK                         _______ _______ _______ _____ _____    ______ ____
ROOT
ATOM      1  C   UNL     1       3.316   3.326  19.799  0.00  0.00    +0.000 C 
ENDROOT
BRANCH   1   2
ATOM      2  N   UNL     1       4.178   3.710  18.653  0.00  0.00    +0.000 N 
ATOM      3  C   UNL     1       3.772   3.418  17.400  0.00  0.00    +0.000 A 
ATOM      4  C   UNL     1       4.581   3.696  16.304  0.00  0.00    +0.000 A 
ATOM      5  C   UNL     1       5.823   4.285  16.519  0.00  0.00    +0.000 A 
ATOM      6  C   UNL     1       6.226   4.598  17.812  0.00  0.00    +0.000 A 
ATOM      7  C   UNL     1       5.379   4.296  18.878  0.00  0.00    +0.000 A 
BRANCH   5   8
ATOM      8  C   UNL     1       6.724   4.550  15.386  0.00  0.00    +0.000 C 
ATOM      9  N   UNL     1       7.353   5.680  15.276  0.00  0.00    +0.000 NA
BRANCH   9  10
ATOM     10  O   UNL     1       8.120   5.656  14.109  0.00  0.00    +0.000 OA
ATOM     11  H   UNL     1       8.637   6.484  14.170  0.00  0.00    +0.000 HD
ENDBRANCH   9  10
ENDBRANCH   5   8
ENDBRANCH   1   2
BRANCH   1  12
ATOM     12  O   UNL     1       2.139   4.105  19.817  0.00  0.00    +0.000 OA
BRANCH  12  13
ATOM     13  C   UNL     1       2.235   5.148  20.791  0.00  0.00    +0.000 C 
BRANCH  13  18
ATOM     14  C   UNL     1       1.435  10.290  18.188  0.00  0.00    +0.000 C 
ATOM     15  C   UNL     1       1.682   8.970  18.852  0.00  0.00    +0.000 A 
ATOM     16  C   UNL     1       2.287   7.913  18.168  0.00  0.00    +0.000 A 
ATOM     17  C   UNL     1       2.484   6.682  18.801  0.00  0.00    +0.000 A 
ATOM     18  C   UNL     1       2.081   6.486  20.130  0.00  0.00    +0.000 A 
ATOM     19  C   UNL     1       1.492   7.553  20.816  0.00  0.00    +0.000 A 
ATOM     20  C   UNL     1       1.293   8.781  20.180  0.00  0.00    +0.000 A 
ENDBRANCH  13  18
ENDBRANCH  12  13
ENDBRANCH   1  12
TORSDOF 6
ENDMDL
MODEL 3
REMARK VINA RESULT:      -6.6      1.085      1.661
REMARK  Name = 
REMARK  7 active torsions:
REMARK  status: ('A' for Active; 'I' for Inactive)
REMARK    1  A    between atoms: C_1  and  C_2
REMARK    2  A    between atoms: C_5  and  C_6
REMARK    3  A    between atoms: C_6  and  O_7
REMARK    4  A    between atoms: O_7  and  C_8
REMARK    5  A    between atoms: C_8  and  N_9
REMARK    6  A    between atoms: C_12  and  C_13
REMARK    7  A    between atoms: N_14  and  O_15
REMARK                            x       y       z     vdW  Elec       q    Type
REMARK                         _______ _______ _______ _____ _____    ______ ____
ROOT
ATOM      1  C   UNL     1       3.479   3.169  19.696  0.00  0.00    +0.000 C 
ENDROOT
BRANCH   1   2
ATOM      2  N   UNL     1       4.449   3.682  18.696  0.00  0.00    +0.000 N 
ATOM      3  C   UNL     1       5.457   4.480  19.107  0.00  0.00    +0.000 A 
ATOM      4  C   UNL     1       6.342   5.039  18.193  0.00  0.00    +0.000 A 
ATOM      5  C   UNL     1       6.176   4.760  16.840  0.00  0.00    +0.000 A 
ATOM      6  C   UNL     1       5.147   3.923  16.427  0.00  0.00    +0.000 A 
ATOM      7  C   UNL     1       4.282   3.390  17.383  0.00  0.00    +0.000 A 
BRANCH   5   8
ATOM      8  C   UNL     1       7.069   5.372  15.843  0.00  0.00    +0.000 C 
ATOM      9  N   UNL     1       7.146   4.908  14.634  0.00  0.00    +0.000 NA
BRANCH   9  10
ATOM     10  O   UNL     1       8.072   5.670  13.917  0.00  0.00    +0.000 OA
ATOM     11  H   UNL     1       7.506   6.183  13.306  0.00  0.00    +0.000 HD
ENDBRANCH   9  10
ENDBRANCH   5   8
ENDBRANCH   1   2
BRANCH   1  12
ATOM     12  O   UNL     1       2.293   3.934  19.672  0.00  0.00    +0.000 OA
BRANCH  12  13
ATOM     13  C   UNL     1       2.330   4.962  20.665  0.00  0.00    +0.000 C 
BRANCH  13  18
ATOM     14  C   UNL     1       1.640  10.198  18.224  0.00  0.00    +0.000 C 
ATOM     15  C   UNL     1       1.777   8.849  18.860  0.00  0.00    +0.000 A 
ATOM     16  C   UNL     1       1.429   8.635  20.197  0.00  0.00    +0.000 A 
ATOM     17  C   UNL     1       1.590   7.373  20.776  0.00  0.00    +0.000 A 
ATOM     18  C   UNL     1       2.099   6.301  20.030  0.00  0.00    +0.000 A 
ATOM     19  C   UNL     1       2.429   6.515  18.687  0.00  0.00    +0.000 A 
ATOM     20  C   UNL     1       2.271   7.779  18.112  0.00  0.00    +0.000 A 
ENDBRANCH  13  18
ENDBRANCH  12  13
ENDBRANCH   1  12
TORSDOF 6
ENDMDL
MODEL 4
REMARK VINA RESULT:      -6.6      2.328      3.086
REMARK  Name = 
REMARK  7 active torsions:
REMARK  status: ('A' for Active; 'I' for Inactive)
REMARK    1  A    between atoms: C_1  and  C_2
REMARK    2  A    between atoms: C_5  and  C_6
REMARK    3  A    between atoms: C_6  and  O_7
REMARK    4  A    between atoms: O_7  and  C_8
REMARK    5  A    between atoms: C_8  and  N_9
REMARK    6  A    between atoms: C_12  and  C_13
REMARK    7  A    between atoms: N_14  and  O_15
REMARK                            x       y       z     vdW  Elec       q    Type
REMARK                         _______ _______ _______ _____ _____    ______ ____
ROOT
ATOM      1  C   UNL     1       3.483   1.923  18.029  0.00  0.00    +0.000 C 
ENDROOT
BRANCH   1   2
ATOM      2  N   UNL     1       4.428   3.067  17.998  0.00  0.00    +0.000 N 
ATOM      3  C   UNL     1       4.881   3.577  19.162  0.00  0.00    +0.000 A 
ATOM      4  C   UNL     1       5.709   4.693  19.178  0.00  0.00    +0.000 A 
ATOM      5  C   UNL     1       6.069   5.280  17.969  0.00  0.00    +0.000 A 
ATOM      6  C   UNL     1       5.612   4.738  16.774  0.00  0.00    +0.000 A 
ATOM      7  C   UNL     1       4.780   3.619  16.811  0.00  0.00    +0.000 A 
BRANCH   5   8
ATOM      8  C   UNL     1       6.907   6.489  17.953  0.00  0.00    +0.000 C 
ATOM      9  N   UNL     1       7.050   7.195  16.873  0.00  0.00    +0.000 NA
BRANCH   9  10
ATOM     10  O   UNL     1       7.901   8.269  17.146  0.00  0.00    +0.000 OA
ATOM     11  H   UNL     1       7.462   8.709  17.900  0.00  0.00    +0.000 HD
ENDBRANCH   9  10
ENDBRANCH   5   8
ENDBRANCH   1   2
BRANCH   1  12
ATOM     12  O   UNL     1       2.261   2.272  17.414  0.00  0.00    +0.000 OA
BRANCH  12  13
ATOM     13  C   UNL     1       1.276   2.608  18.395  0.00  0.00    +0.000 C 
BRANCH  13  18
ATOM     14  C   UNL     1       1.949   8.045  20.355  0.00  0.00    +0.000 C 
ATOM     15  C   UNL     1       1.814   6.647  19.835  0.00  0.00    +0.000 A 
ATOM     16  C   UNL     1       1.917   6.364  18.470  0.00  0.00    +0.000 A 
ATOM     17  C   UNL     1       1.761   5.055  18.006  0.00  0.00    +0.000 A 
ATOM     18  C   UNL     1       1.503   4.003  18.897  0.00  0.00    +0.000 A 
ATOM     19  C   UNL     1       1.420   4.289  20.264  0.00  0.00    +0.000 A 
ATOM     20  C   UNL     1       1.571   5.599  20.725  0.00  0.00    +0.000 A 
ENDBRANCH  13  18
ENDBRANCH  12  13
ENDBRANCH   1  12
TORSDOF 6
ENDMDL
MODEL 5
REMARK VINA RESULT:      -6.5      1.063      1.235
REMARK  Name = 
REMARK  7 active torsions:
REMARK  status: ('A' for Active; 'I' for Inactive)
REMARK    1  A    between atoms: C_1  and  C_2
REMARK    2  A    between atoms: C_5  and  C_6
REMARK    3  A    between atoms: C_6  and  O_7
REMARK    4  A    between atoms: O_7  and  C_8
REMARK    5  A    between atoms: C_8  and  N_9
REMARK    6  A    between atoms: C_12  and  C_13
REMARK    7  A    between atoms: N_14  and  O_15
REMARK                            x       y       z     vdW  Elec       q    Type
REMARK                         _______ _______ _______ _____ _____    ______ ____
ROOT
ATOM      1  C   UNL     1       3.813   3.078  20.045  0.00  0.00    +0.000 C 
ENDROOT
BRANCH   1   2
ATOM      2  N   UNL     1       4.514   3.460  18.793  0.00  0.00    +0.000 N 
ATOM      3  C   UNL     1       5.636   4.205  18.870  0.00  0.00    +0.000 A 
ATOM      4  C   UNL     1       6.282   4.644  17.720  0.00  0.00    +0.000 A 
ATOM      5  C   UNL     1       5.752   4.301  16.480  0.00  0.00    +0.000 A 
ATOM      6  C   UNL     1       4.606   3.519  16.410  0.00  0.00    +0.000 A 
ATOM      7  C   UNL     1       3.993   3.107  17.593  0.00  0.00    +0.000 A 
BRANCH   5   8
ATOM      8  C   UNL     1       6.385   4.787  15.244  0.00  0.00    +0.000 C 
ATOM      9  N   UNL     1       7.599   5.247  15.245  0.00  0.00    +0.000 NA
BRANCH   9  10
ATOM     10  O   UNL     1       7.931   5.644  13.947  0.00  0.00    +0.000 OA
ATOM     11  H   UNL     1       8.906   5.581  13.942  0.00  0.00    +0.000 HD
ENDBRANCH   9  10
ENDBRANCH   5   8
ENDBRANCH   1   2
BRANCH   1  12
ATOM     12  O   UNL     1       3.251   4.216  20.664  0.00  0.00    +0.000 OA
BRANCH  12  13
ATOM     13  C   UNL     1       2.000   4.557  20.061  0.00  0.00    +0.000 C 
BRANCH  13  18
ATOM     14  C   UNL     1       1.952  10.023  18.065  0.00  0.00    +0.000 C 
ATOM     15  C   UNL     1       2.004   8.613  18.568  0.00  0.00    +0.000 A 
ATOM     16  C   UNL     1       2.320   7.548  17.720  0.00  0.00    +0.000 A 
ATOM     17  C   UNL     1       2.337   6.238  18.207  0.00  0.00    +0.000 A 
ATOM     18  C   UNL     1       2.042   5.967  19.551  0.00  0.00    +0.000 A 
ATOM     19  C   UNL     1       1.744   7.039  20.400  0.00  0.00    +0.000 A 
ATOM     20  C   UNL     1       1.723   8.347  19.910  0.00  0.00    +0.000 A 
ENDBRANCH  13  18
ENDBRANCH  12  13
ENDBRANCH   1  12
TORSDOF 6
ENDMDL
MODEL 6
REMARK VINA RESULT:      -6.5      1.217      2.067
REMARK  Name = 
REMARK  7 active torsions:
REMARK  status: ('A' for Active; 'I' for Inactive)
REMARK    1  A    between atoms: C_1  and  C_2
REMARK    2  A    between atoms: C_5  and  C_6
REMARK    3  A    between atoms: C_6  and  O_7
REMARK    4  A    between atoms: O_7  and  C_8
REMARK    5  A    between atoms: C_8  and  N_9
REMARK    6  A    between atoms: C_12  and  C_13
REMARK    7  A    between atoms: N_14  and  O_15
REMARK                            x       y       z     vdW  Elec       q    Type
REMARK                         _______ _______ _______ _____ _____    ______ ____
ROOT
ATOM      1  C   UNL     1       2.933   3.163  19.687  0.00  0.00    +0.000 C 
ENDROOT
BRANCH   1   2
ATOM      2  N   UNL     1       3.810   3.632  18.586  0.00  0.00    +0.000 N 
ATOM      3  C   UNL     1       3.364   3.558  17.314  0.00  0.00    +0.000 A 
ATOM      4  C   UNL     1       4.181   3.919  16.249  0.00  0.00    +0.000 A 
ATOM      5  C   UNL     1       5.473   4.361  16.514  0.00  0.00    +0.000 A 
ATOM      6  C   UNL     1       5.919   4.451  17.827  0.00  0.00    +0.000 A 
ATOM      7  C   UNL     1       5.061   4.074  18.861  0.00  0.00    +0.000 A 
BRANCH   5   8
ATOM      8  C   UNL     1       6.379   4.707  15.408  0.00  0.00    +0.000 C 
ATOM      9  N   UNL     1       7.441   5.428  15.606  0.00  0.00    +0.000 NA
BRANCH   9  10
ATOM     10  O   UNL     1       8.099   5.606  14.387  0.00  0.00    +0.000 OA
ATOM     11  H   UNL     1       7.364   5.626  13.743  0.00  0.00    +0.000 HD
ENDBRANCH   9  10
ENDBRANCH   5   8
ENDBRANCH   1   2
BRANCH   1  12
ATOM     12  O   UNL     1       1.926   4.116  19.958  0.00  0.00    +0.000 OA
BRANCH  12  13
ATOM     13  C   UNL     1       2.450   5.203  20.726  0.00  0.00    +0.000 C 
BRANCH  13  18
ATOM     14  C   UNL     1       1.524  10.314  18.103  0.00  0.00    +0.000 C 
ATOM     15  C   UNL     1       1.721   8.994  18.782  0.00  0.00    +0.000 A 
ATOM     16  C   UNL     1       1.266   8.769  20.084  0.00  0.00    +0.000 A 
ATOM     17  C   UNL     1       1.485   7.536  20.707  0.00  0.00    +0.000 A 
ATOM     18  C   UNL     1       2.160   6.505  20.039  0.00  0.00    +0.000 A 
ATOM     19  C   UNL     1       2.598   6.729  18.728  0.00  0.00    +0.000 A 
ATOM     20  C   UNL     1       2.382   7.963  18.111  0.00  0.00    +0.000 A 
ENDBRANCH  13  18
ENDBRANCH  12  13
ENDBRANCH   1  12
TORSDOF 6
ENDMDL
MODEL 7
REMARK VINA RESULT:      -6.4      2.387      3.268
REMARK  Name = 
REMARK  7 active torsions:
REMARK  status: ('A' for Active; 'I' for Inactive)
REMARK    1  A    between atoms: C_1  and  C_2
REMARK    2  A    between atoms: C_5  and  C_6
REMARK    3  A    between atoms: C_6  and  O_7
REMARK    4  A    between atoms: O_7  and  C_8
REMARK    5  A    between atoms: C_8  and  N_9
REMARK    6  A    between atoms: C_12  and  C_13
REMARK    7  A    between atoms: N_14  and  O_15
REMARK                            x       y       z     vdW  Elec       q    Type
REMARK                         _______ _______ _______ _____ _____    ______ ____
ROOT
ATOM      1  C   UNL     1       3.517   1.853  18.627  0.00  0.00    +0.000 C 
ENDROOT
BRANCH   1   2
ATOM      2  N   UNL     1       4.381   2.986  18.209  0.00  0.00    +0.000 N 
ATOM      3  C   UNL     1       4.952   3.760  19.155  0.00  0.00    +0.000 A 
ATOM      4  C   UNL     1       5.708   4.873  18.806  0.00  0.00    +0.000 A 
ATOM      5  C   UNL     1       5.870   5.178  17.458  0.00  0.00    +0.000 A 
ATOM      6  C   UNL     1       5.294   4.365  16.490  0.00  0.00    +0.000 A 
ATOM      7  C   UNL     1       4.540   3.262  16.891  0.00  0.00    +0.000 A 
BRANCH   5   8
ATOM      8  C   UNL     1       6.626   6.375  17.055  0.00  0.00    +0.000 C 
ATOM      9  N   UNL     1       7.361   7.025  17.906  0.00  0.00    +0.000 NA
BRANCH   9  10
ATOM     10  O   UNL     1       7.947   8.113  17.254  0.00  0.00    +0.000 OA
ATOM     11  H   UNL     1       8.902   7.972  17.411  0.00  0.00    +0.000 HD
ENDBRANCH   9  10
ENDBRANCH   5   8
ENDBRANCH   1   2
BRANCH   1  12
ATOM     12  O   UNL     1       2.300   1.868  17.910  0.00  0.00    +0.000 OA
BRANCH  12  13
ATOM     13  C   UNL     1       1.227   2.321  18.741  0.00  0.00    +0.000 C 
BRANCH  13  18
ATOM     14  C   UNL     1       2.110   7.945  19.948  0.00  0.00    +0.000 C 
ATOM     15  C   UNL     1       1.845   6.499  19.655  0.00  0.00    +0.000 A 
ATOM     16  C   UNL     1       1.608   5.580  20.680  0.00  0.00    +0.000 A 
ATOM     17  C   UNL     1       1.389   4.231  20.384  0.00  0.00    +0.000 A 
ATOM     18  C   UNL     1       1.401   3.777  19.057  0.00  0.00    +0.000 A 
ATOM     19  C   UNL     1       1.621   4.705  18.033  0.00  0.00    +0.000 A 
ATOM     20  C   UNL     1       1.843   6.051  18.333  0.00  0.00    +0.000 A 
ENDBRANCH  13  18
ENDBRANCH  12  13
ENDBRANCH   1  12
TORSDOF 6
ENDMDL
MODEL 8
REMARK VINA RESULT:      -6.4      2.757      3.715
REMARK  Name = 
REMARK  7 active torsions:
REMARK  status: ('A' for Active; 'I' for Inactive)
REMARK    1  A    between atoms: C_1  and  C_2
REMARK    2  A    between atoms: C_5  and  C_6
REMARK    3  A    between atoms: C_6  and  O_7
REMARK    4  A    between atoms: O_7  and  C_8
REMARK    5  A    between atoms: C_8  and  N_9
REMARK    6  A    between atoms: C_12  and  C_13
REMARK    7  A    between atoms: N_14  and  O_15
REMARK                            x       y       z     vdW  Elec       q    Type
REMARK                         _______ _______ _______ _____ _____    ______ ____
ROOT
ATOM      1  C   UNL     1       5.359   3.995  16.572  0.00  0.00    +0.000 C 
ENDROOT
BRANCH   1   2
ATOM      2  N   UNL     1       6.136   5.115  17.159  0.00  0.00    +0.000 N 
ATOM      3  C   UNL     1       5.981   6.357  16.655  0.00  0.00    +0.000 A 
ATOM      4  C   UNL     1       6.742   7.420  17.127  0.00  0.00    +0.000 A 
ATOM      5  C   UNL     1       7.671   7.184  18.136  0.00  0.00    +0.000 A 
ATOM      6  C   UNL     1       7.812   5.905  18.662  0.00  0.00    +0.000 A 
ATOM      7  C   UNL     1       7.027   4.872  18.151  0.00  0.00    +0.000 A 
BRANCH   5   8
ATOM      8  C   UNL     1       8.525   8.277  18.627  0.00  0.00    +0.000 C 
ATOM      9  N   UNL     1       8.469   9.463  18.102  0.00  0.00    +0.000 NA
BRANCH   9  10
ATOM     10  O   UNL     1       9.391  10.287  18.753  0.00  0.00    +0.000 OA
ATOM     11  H   UNL     1       8.872  10.648  19.499  0.00  0.00    +0.000 HD
ENDBRANCH   9  10
ENDBRANCH   5   8
ENDBRANCH   1   2
BRANCH   1  12
ATOM     12  O   UNL     1       4.508   3.421  17.541  0.00  0.00    +0.000 OA
BRANCH  12  13
ATOM     13  C   UNL     1       3.151   3.819  17.325  0.00  0.00    +0.000 C 
BRANCH  13  18
ATOM     14  C   UNL     1       1.437   7.899  21.103  0.00  0.00    +0.000 C 
ATOM     15  C   UNL     1       1.916   6.865  20.130  0.00  0.00    +0.000 A 
ATOM     16  C   UNL     1       2.413   7.222  18.873  0.00  0.00    +0.000 A 
ATOM     17  C   UNL     1       2.830   6.237  17.973  0.00  0.00    +0.000 A 
ATOM     18  C   UNL     1       2.761   4.879  18.312  0.00  0.00    +0.000 A 
ATOM     19  C   UNL     1       2.280   4.527  19.578  0.00  0.00    +0.000 A 
ATOM     20  C   UNL     1       1.860   5.513  20.474  0.00  0.00    +0.000 A 
ENDBRANCH  13  18
ENDBRANCH  12  13
ENDBRANCH   1  12
TORSDOF 6
ENDMDL
MODEL 9
REMARK VINA RESULT:      -6.3      0.849      1.763
REMARK  Name = 
REMARK  7 active torsions:
REMARK  status: ('A' for Active; 'I' for Inactive)
REMARK    1  A    between atoms: C_1  and  C_2
REMARK    2  A    between atoms: C_5  and  C_6
REMARK    3  A    between atoms: C_6  and  O_7
REMARK    4  A    between atoms: O_7  and  C_8
REMARK    5  A    between atoms: C_8  and  N_9
REMARK    6  A    between atoms: C_12  and  C_13
REMARK    7  A    between atoms: N_14  and  O_15
REMARK                            x       y       z     vdW  Elec       q    Type
REMARK                         _______ _______ _______ _____ _____    ______ ____
ROOT
ATOM      1  C   UNL     1       4.728   4.377  19.327  0.00  0.00    +0.000 C 
ENDROOT
BRANCH   1   2
ATOM      2  N   UNL     1       5.300   4.422  17.958  0.00  0.00    +0.000 N 
ATOM      3  C   UNL     1       4.491   4.202  16.900  0.00  0.00    +0.000 A 
ATOM      4  C   UNL     1       5.000   4.163  15.608  0.00  0.00    +0.000 A 
ATOM      5  C   UNL     1       6.365   4.357  15.417  0.00  0.00    +0.000 A 
ATOM      6  C   UNL     1       7.188   4.601  16.510  0.00  0.00    +0.000 A 
ATOM      7  C   UNL     1       6.629   4.626  17.788  0.00  0.00    +0.000 A 
BRANCH   5   8
ATOM      8  C   UNL     1       6.943   4.277  14.067  0.00  0.00    +0.000 C 
ATOM      9  N   UNL     1       6.252   3.829  13.064  0.00  0.00    +0.000 NA
BRANCH   9  10
ATOM     10  O   UNL     1       7.052   3.856  11.918  0.00  0.00    +0.000 OA
ATOM     11  H   UNL     1       6.546   4.432  11.312  0.00  0.00    +0.000 HD
ENDBRANCH   9  10
ENDBRANCH   5   8
ENDBRANCH   1   2
BRANCH   1  12
ATOM     12  O   UNL     1       4.286   5.659  19.720  0.00  0.00    +0.000 OA
BRANCH  12  13
ATOM     13  C   UNL     1       2.884   5.647  20.008  0.00  0.00    +0.000 C 
BRANCH  13  18
ATOM     14  C   UNL     1       0.724  10.893  18.714  0.00  0.00    +0.000 C 
ATOM     15  C   UNL     1       1.242   9.530  19.058  0.00  0.00    +0.000 A 
ATOM     16  C   UNL     1       1.109   9.002  20.345  0.00  0.00    +0.000 A 
ATOM     17  C   UNL     1       1.624   7.738  20.648  0.00  0.00    +0.000 A 
ATOM     18  C   UNL     1       2.278   6.977  19.669  0.00  0.00    +0.000 A 
ATOM     19  C   UNL     1       2.392   7.501  18.377  0.00  0.00    +0.000 A 
ATOM     20  C   UNL     1       1.881   8.766  18.079  0.00  0.00    +0.000 A 
ENDBRANCH  13  18
ENDBRANCH  12  13
ENDBRANCH   1  12
TORSDOF 6
ENDMDL
