MODEL 1
REMARK VINA RESULT:      -7.3      0.000      0.000
REMARK  Name = 
REMARK  4 active torsions:
REMARK  status: ('A' for Active; 'I' for Inactive)
REMARK    1  A    between atoms: C_2  and  O_3
REMARK    2  A    between atoms: C_2  and  C_4
REMARK    3  A    between atoms: C_6  and  C_7
REMARK    4  A    between atoms: N_12  and  C_13
REMARK                            x       y       z     vdW  Elec       q    Type
REMARK                         _______ _______ _______ _____ _____    ______ ____
ROOT
ATOM      1  C   UNL     1       6.724   4.696  15.929  0.00  0.00    +0.000 A 
ATOM      2  C   UNL     1       7.243   4.542  14.655  0.00  0.00    +0.000 A 
ATOM      3  C   UNL     1       6.202   4.005  13.866  0.00  0.00    +0.000 A 
ATOM      4  N   UNL     1       5.101   3.814  14.618  0.00  0.00    +0.000 NA
ATOM      5  N   UNL     1       5.376   4.418  15.803  0.00  0.00    +0.000 N 
ENDROOT
BRANCH   5   6
ATOM      6  C   UNL     1       4.328   4.666  16.732  0.00  0.00    +0.000 A 
ATOM      7  C   UNL     1       4.144   5.961  17.237  0.00  0.00    +0.000 A 
ATOM      8  C   UNL     1       3.065   6.229  18.082  0.00  0.00    +0.000 A 
ATOM      9  C   UNL     1       2.194   5.205  18.454  0.00  0.00    +0.000 A 
ATOM     10  C   UNL     1       2.408   3.906  17.998  0.00  0.00    +0.000 A 
ATOM     11  C   UNL     1       3.474   3.633  17.140  0.00  0.00    +0.000 A 
ENDBRANCH   5   6
BRANCH   3  12
ATOM     12  C   UNL     1       6.279   3.654  12.401  0.00  0.00    +0.000 C 
ATOM     13  F   UNL     1       7.131   4.481  11.732  0.00  0.00    +0.000 F 
ATOM     14  F   UNL     1       6.727   2.390  12.189  0.00  0.00    +0.000 F 
ATOM     15  F   UNL     1       5.074   3.764  11.781  0.00  0.00    +0.000 F 
ENDBRANCH   3  12
BRANCH   1  17
ATOM     16  O   UNL     1       7.709   6.251  17.394  0.00  0.00    +0.000 OA
ATOM     17  C   UNL     1       7.456   5.094  17.098  0.00  0.00    +0.000 C 
BRANCH  17  18
ATOM     18  O   UNL     1       7.929   4.056  17.830  0.00  0.00    +0.000 OA
ATOM     19  H   UNL     1       8.123   3.234  17.343  0.00  0.00    +0.000 HD
ENDBRANCH  17  18
ENDBRANCH   1  17
TORSDOF 4
ENDMDL
MODEL 2
REMARK VINA RESULT:      -7.2      0.331      1.440
REMARK  Name = 
REMARK  4 active torsions:
REMARK  status: ('A' for Active; 'I' for Inactive)
REMARK    1  A    between atoms: C_2  and  O_3
REMARK    2  A    between atoms: C_2  and  C_4
REMARK    3  A    between atoms: C_6  and  C_7
REMARK    4  A    between atoms: N_12  and  C_13
REMARK                            x       y       z     vdW  Elec       q    Type
REMARK                         _______ _______ _______ _____ _____    ______ ____
ROOT
ATOM      1  C   UNL     1       6.716   4.718  15.913  0.00  0.00    +0.000 A 
ATOM      2  C   UNL     1       7.176   4.474  14.631  0.00  0.00    +0.000 A 
ATOM      3  C   UNL     1       6.065   4.005  13.895  0.00  0.00    +0.000 A 
ATOM      4  N   UNL     1       4.978   3.939  14.687  0.00  0.00    +0.000 NA
ATOM      5  N   UNL     1       5.345   4.558  15.840  0.00  0.00    +0.000 N 
ENDROOT
BRANCH   5   6
ATOM      6  C   UNL     1       4.355   4.931  16.790  0.00  0.00    +0.000 A 
ATOM      7  C   UNL     1       3.568   3.941  17.394  0.00  0.00    +0.000 A 
ATOM      8  C   UNL     1       2.655   4.293  18.391  0.00  0.00    +0.000 A 
ATOM      9  C   UNL     1       2.498   5.629  18.757  0.00  0.00    +0.000 A 
ATOM     10  C   UNL     1       3.239   6.621  18.118  0.00  0.00    +0.000 A 
ATOM     11  C   UNL     1       4.166   6.276  17.134  0.00  0.00    +0.000 A 
ENDBRANCH   5   6
BRANCH   3  12
ATOM     12  C   UNL     1       6.061   3.597  12.443  0.00  0.00    +0.000 C 
ATOM     13  F   UNL     1       4.892   3.937  11.830  0.00  0.00    +0.000 F 
ATOM     14  F   UNL     1       7.054   4.190  11.731  0.00  0.00    +0.000 F 
ATOM     15  F   UNL     1       6.199   2.254  12.284  0.00  0.00    +0.000 F 
ENDBRANCH   3  12
BRANCH   1  17
ATOM     16  O   UNL     1       7.695   6.240  17.418  0.00  0.00    +0.000 OA
ATOM     17  C   UNL     1       7.519   5.091  17.043  0.00  0.00    +0.000 C 
BRANCH  17  18
ATOM     18  O   UNL     1       8.153   4.050  17.634  0.00  0.00    +0.000 OA
ATOM     19  H   UNL     1       8.581   3.407  17.038  0.00  0.00    +0.000 HD
ENDBRANCH  17  18
ENDBRANCH   1  17
TORSDOF 4
ENDMDL
MODEL 3
REMARK VINA RESULT:      -7.1      0.160      1.634
REMARK  Name = 
REMARK  4 active torsions:
REMARK  status: ('A' for Active; 'I' for Inactive)
REMARK    1  A    between atoms: C_2  and  O_3
REMARK    2  A    between atoms: C_2  and  C_4
REMARK    3  A    between atoms: C_6  and  C_7
REMARK    4  A    between atoms: N_12  and  C_13
REMARK                            x       y       z     vdW  Elec       q    Type
REMARK                         _______ _______ _______ _____ _____    ______ ____
ROOT
ATOM      1  C   UNL     1       6.687   4.741  15.967  0.00  0.00    +0.000 A 
ATOM      2  C   UNL     1       7.216   4.583  14.698  0.00  0.00    +0.000 A 
ATOM      3  C   UNL     1       6.182   4.042  13.902  0.00  0.00    +0.000 A 
ATOM      4  N   UNL     1       5.076   3.852  14.646  0.00  0.00    +0.000 NA
ATOM      5  N   UNL     1       5.340   4.461  15.832  0.00  0.00    +0.000 N 
ENDROOT
BRANCH   5   6
ATOM      6  C   UNL     1       4.285   4.711  16.751  0.00  0.00    +0.000 A 
ATOM      7  C   UNL     1       3.446   3.659  17.144  0.00  0.00    +0.000 A 
ATOM      8  C   UNL     1       2.464   3.880  18.112  0.00  0.00    +0.000 A 
ATOM      9  C   UNL     1       2.290   5.152  18.658  0.00  0.00    +0.000 A 
ATOM     10  C   UNL     1       3.086   6.211  18.227  0.00  0.00    +0.000 A 
ATOM     11  C   UNL     1       4.082   5.995  17.274  0.00  0.00    +0.000 A 
ENDBRANCH   5   6
BRANCH   3  12
ATOM     12  C   UNL     1       6.271   3.686  12.439  0.00  0.00    +0.000 C 
ATOM     13  F   UNL     1       6.710   2.408  12.261  0.00  0.00    +0.000 F 
ATOM     14  F   UNL     1       5.072   3.772  11.807  0.00  0.00    +0.000 F 
ATOM     15  F   UNL     1       7.140   4.485  11.766  0.00  0.00    +0.000 F 
ENDBRANCH   3  12
BRANCH   1  17
ATOM     16  O   UNL     1       7.698   4.400  18.065  0.00  0.00    +0.000 OA
ATOM     17  C   UNL     1       7.409   5.144  17.141  0.00  0.00    +0.000 C 
BRANCH  17  18
ATOM     18  O   UNL     1       7.684   6.470  17.187  0.00  0.00    +0.000 OA
ATOM     19  H   UNL     1       7.552   6.911  18.046  0.00  0.00    +0.000 HD
ENDBRANCH  17  18
ENDBRANCH   1  17
TORSDOF 4
ENDMDL
MODEL 4
REMARK VINA RESULT:      -6.9      2.977      4.169
REMARK  Name = 
REMARK  4 active torsions:
REMARK  status: ('A' for Active; 'I' for Inactive)
REMARK    1  A    between atoms: C_2  and  O_3
REMARK    2  A    between atoms: C_2  and  C_4
REMARK    3  A    between atoms: C_6  and  C_7
REMARK    4  A    between atoms: N_12  and  C_13
REMARK                            x       y       z     vdW  Elec       q    Type
REMARK                         _______ _______ _______ _____ _____    ______ ____
ROOT
ATOM      1  C   UNL     1       3.714   6.278  17.764  0.00  0.00    +0.000 A 
ATOM      2  C   UNL     1       4.652   6.278  16.746  0.00  0.00    +0.000 A 
ATOM      3  C   UNL     1       5.287   5.017  16.794  0.00  0.00    +0.000 A 
ATOM      4  N   UNL     1       4.785   4.282  17.805  0.00  0.00    +0.000 NA
ATOM      5  N   UNL     1       3.708   4.982  18.248  0.00  0.00    +0.000 N 
ENDROOT
BRANCH   5   6
ATOM      6  C   UNL     1       2.766   4.362  19.114  0.00  0.00    +0.000 A 
ATOM      7  C   UNL     1       1.665   3.688  18.569  0.00  0.00    +0.000 A 
ATOM      8  C   UNL     1       0.785   3.004  19.410  0.00  0.00    +0.000 A 
ATOM      9  C   UNL     1       0.977   3.024  20.791  0.00  0.00    +0.000 A 
ATOM     10  C   UNL     1       2.040   3.740  21.339  0.00  0.00    +0.000 A 
ATOM     11  C   UNL     1       2.934   4.411  20.504  0.00  0.00    +0.000 A 
ENDBRANCH   5   6
BRANCH   3  12
ATOM     12  C   UNL     1       6.391   4.536  15.886  0.00  0.00    +0.000 C 
ATOM     13  F   UNL     1       6.107   3.313  15.357  0.00  0.00    +0.000 F 
ATOM     14  F   UNL     1       6.602   5.369  14.834  0.00  0.00    +0.000 F 
ATOM     15  F   UNL     1       7.576   4.404  16.539  0.00  0.00    +0.000 F 
ENDBRANCH   3  12
BRANCH   1  17
ATOM     16  O   UNL     1       2.403   7.510  19.280  0.00  0.00    +0.000 OA
ATOM     17  C   UNL     1       2.913   7.396  18.177  0.00  0.00    +0.000 C 
BRANCH  17  18
ATOM     18  O   UNL     1       2.690   8.303  17.196  0.00  0.00    +0.000 OA
ATOM     19  H   UNL     1       3.217   9.122  17.234  0.00  0.00    +0.000 HD
ENDBRANCH  17  18
ENDBRANCH   1  17
TORSDOF 4
ENDMDL
MODEL 5
REMARK VINA RESULT:      -6.9      3.520      4.553
REMARK  Name = 
REMARK  4 active torsions:
REMARK  status: ('A' for Active; 'I' for Inactive)
REMARK    1  A    between atoms: C_2  and  O_3
REMARK    2  A    between atoms: C_2  and  C_4
REMARK    3  A    between atoms: C_6  and  C_7
REMARK    4  A    between atoms: N_12  and  C_13
REMARK                            x       y       z     vdW  Elec       q    Type
REMARK                         _______ _______ _______ _____ _____    ______ ____
ROOT
ATOM      1  C   UNL     1       3.707   6.841  17.957  0.00  0.00    +0.000 A 
ATOM      2  C   UNL     1       4.890   7.053  17.272  0.00  0.00    +0.000 A 
ATOM      3  C   UNL     1       5.683   5.904  17.486  0.00  0.00    +0.000 A 
ATOM      4  N   UNL     1       5.033   5.033  18.282  0.00  0.00    +0.000 NA
ATOM      5  N   UNL     1       3.773   5.529  18.391  0.00  0.00    +0.000 N 
ENDROOT
BRANCH   5   6
ATOM      6  C   UNL     1       2.733   4.715  18.918  0.00  0.00    +0.000 A 
ATOM      7  C   UNL     1       1.965   3.927  18.051  0.00  0.00    +0.000 A 
ATOM      8  C   UNL     1       1.001   3.061  18.571  0.00  0.00    +0.000 A 
ATOM      9  C   UNL     1       0.775   3.008  19.947  0.00  0.00    +0.000 A 
ATOM     10  C   UNL     1       1.500   3.831  20.806  0.00  0.00    +0.000 A 
ATOM     11  C   UNL     1       2.477   4.687  20.296  0.00  0.00    +0.000 A 
ENDBRANCH   5   6
BRANCH   3  12
ATOM     12  C   UNL     1       7.070   5.660  16.946  0.00  0.00    +0.000 C 
ATOM     13  F   UNL     1       7.884   6.733  17.154  0.00  0.00    +0.000 F 
ATOM     14  F   UNL     1       7.680   4.597  17.533  0.00  0.00    +0.000 F 
ATOM     15  F   UNL     1       7.070   5.434  15.606  0.00  0.00    +0.000 F 
ENDBRANCH   3  12
BRANCH   1  17
ATOM     16  O   UNL     1       2.224   8.524  17.247  0.00  0.00    +0.000 OA
ATOM     17  C   UNL     1       2.646   7.793  18.129  0.00  0.00    +0.000 C 
BRANCH  17  18
ATOM     18  O   UNL     1       2.186   7.879  19.400  0.00  0.00    +0.000 OA
ATOM     19  H   UNL     1       1.585   7.171  19.694  0.00  0.00    +0.000 HD
ENDBRANCH  17  18
ENDBRANCH   1  17
TORSDOF 4
ENDMDL
MODEL 6
REMARK VINA RESULT:      -6.9      4.724      6.229
REMARK  Name = 
REMARK  4 active torsions:
REMARK  status: ('A' for Active; 'I' for Inactive)
REMARK    1  A    between atoms: C_2  and  O_3
REMARK    2  A    between atoms: C_2  and  C_4
REMARK    3  A    between atoms: C_6  and  C_7
REMARK    4  A    between atoms: N_12  and  C_13
REMARK                            x       y       z     vdW  Elec       q    Type
REMARK                         _______ _______ _______ _____ _____    ______ ____
ROOT
ATOM      1  C   UNL     1       2.602   5.811  19.245  0.00  0.00    +0.000 A 
ATOM      2  C   UNL     1       1.726   4.800  19.597  0.00  0.00    +0.000 A 
ATOM      3  C   UNL     1       2.295   3.599  19.117  0.00  0.00    +0.000 A 
ATOM      4  N   UNL     1       3.453   3.856  18.479  0.00  0.00    +0.000 NA
ATOM      5  N   UNL     1       3.715   5.164  18.740  0.00  0.00    +0.000 N 
ENDROOT
BRANCH   5   6
ATOM      6  C   UNL     1       5.005   5.696  18.468  0.00  0.00    +0.000 A 
ATOM      7  C   UNL     1       6.083   5.353  19.295  0.00  0.00    +0.000 A 
ATOM      8  C   UNL     1       7.367   5.803  18.983  0.00  0.00    +0.000 A 
ATOM      9  C   UNL     1       7.573   6.624  17.875  0.00  0.00    +0.000 A 
ATOM     10  C   UNL     1       6.493   7.013  17.084  0.00  0.00    +0.000 A 
ATOM     11  C   UNL     1       5.210   6.553  17.378  0.00  0.00    +0.000 A 
ENDBRANCH   5   6
BRANCH   3  12
ATOM     12  C   UNL     1       1.710   2.215  19.250  0.00  0.00    +0.000 C 
ATOM     13  F   UNL     1       2.541   1.268  18.732  0.00  0.00    +0.000 F 
ATOM     14  F   UNL     1       1.487   1.864  20.543  0.00  0.00    +0.000 F 
ATOM     15  F   UNL     1       0.529   2.089  18.589  0.00  0.00    +0.000 F 
ENDBRANCH   3  12
BRANCH   1  17
ATOM     16  O   UNL     1       2.411   8.039  18.511  0.00  0.00    +0.000 OA
ATOM     17  C   UNL     1       2.381   7.220  19.416  0.00  0.00    +0.000 C 
BRANCH  17  18
ATOM     18  O   UNL     1       2.212   7.596  20.706  0.00  0.00    +0.000 OA
ATOM     19  H   UNL     1       2.500   6.959  21.386  0.00  0.00    +0.000 HD
ENDBRANCH  17  18
ENDBRANCH   1  17
TORSDOF 4
ENDMDL
MODEL 7
REMARK VINA RESULT:      -6.9      4.697      6.147
REMARK  Name = 
REMARK  4 active torsions:
REMARK  status: ('A' for Active; 'I' for Inactive)
REMARK    1  A    between atoms: C_2  and  O_3
REMARK    2  A    between atoms: C_2  and  C_4
REMARK    3  A    between atoms: C_6  and  C_7
REMARK    4  A    between atoms: N_12  and  C_13
REMARK                            x       y       z     vdW  Elec       q    Type
REMARK                         _______ _______ _______ _____ _____    ______ ____
ROOT
ATOM      1  C   UNL     1       2.680   5.788  19.131  0.00  0.00    +0.000 A 
ATOM      2  C   UNL     1       1.788   4.793  19.490  0.00  0.00    +0.000 A 
ATOM      3  C   UNL     1       2.363   3.574  19.066  0.00  0.00    +0.000 A 
ATOM      4  N   UNL     1       3.541   3.805  18.454  0.00  0.00    +0.000 NA
ATOM      5  N   UNL     1       3.802   5.119  18.680  0.00  0.00    +0.000 N 
ENDROOT
BRANCH   5   6
ATOM      6  C   UNL     1       5.103   5.636  18.430  0.00  0.00    +0.000 A 
ATOM      7  C   UNL     1       5.307   6.498  17.343  0.00  0.00    +0.000 A 
ATOM      8  C   UNL     1       6.562   7.077  17.143  0.00  0.00    +0.000 A 
ATOM      9  C   UNL     1       7.621   6.769  17.998  0.00  0.00    +0.000 A 
ATOM     10  C   UNL     1       7.434   5.870  19.046  0.00  0.00    +0.000 A 
ATOM     11  C   UNL     1       6.179   5.301  19.263  0.00  0.00    +0.000 A 
ENDBRANCH   5   6
BRANCH   3  12
ATOM     12  C   UNL     1       1.766   2.199  19.227  0.00  0.00    +0.000 C 
ATOM     13  F   UNL     1       2.593   1.234  18.735  0.00  0.00    +0.000 F 
ATOM     14  F   UNL     1       1.533   1.879  20.526  0.00  0.00    +0.000 F 
ATOM     15  F   UNL     1       0.587   2.067  18.562  0.00  0.00    +0.000 F 
ENDBRANCH   3  12
BRANCH   1  17
ATOM     16  O   UNL     1       2.534   7.993  18.322  0.00  0.00    +0.000 OA
ATOM     17  C   UNL     1       2.462   7.203  19.250  0.00  0.00    +0.000 C 
BRANCH  17  18
ATOM     18  O   UNL     1       2.245   7.620  20.520  0.00  0.00    +0.000 OA
ATOM     19  H   UNL     1       2.350   6.951  21.222  0.00  0.00    +0.000 HD
ENDBRANCH  17  18
ENDBRANCH   1  17
TORSDOF 4
ENDMDL
MODEL 8
REMARK VINA RESULT:      -6.9      1.913      2.311
REMARK  Name = 
REMARK  4 active torsions:
REMARK  status: ('A' for Active; 'I' for Inactive)
REMARK    1  A    between atoms: C_2  and  O_3
REMARK    2  A    between atoms: C_2  and  C_4
REMARK    3  A    between atoms: C_6  and  C_7
REMARK    4  A    between atoms: N_12  and  C_13
REMARK                            x       y       z     vdW  Elec       q    Type
REMARK                         _______ _______ _______ _____ _____    ______ ____
ROOT
ATOM      1  C   UNL     1       6.676   5.177  17.920  0.00  0.00    +0.000 A 
ATOM      2  C   UNL     1       7.085   5.302  16.604  0.00  0.00    +0.000 A 
ATOM      3  C   UNL     1       6.165   4.560  15.831  0.00  0.00    +0.000 A 
ATOM      4  N   UNL     1       5.245   3.984  16.630  0.00  0.00    +0.000 NA
ATOM      5  N   UNL     1       5.456   4.529  17.857  0.00  0.00    +0.000 N 
ENDROOT
BRANCH   5   6
ATOM      6  C   UNL     1       4.481   4.371  18.880  0.00  0.00    +0.000 A 
ATOM      7  C   UNL     1       3.689   5.466  19.255  0.00  0.00    +0.000 A 
ATOM      8  C   UNL     1       2.672   5.295  20.196  0.00  0.00    +0.000 A 
ATOM      9  C   UNL     1       2.469   4.050  20.791  0.00  0.00    +0.000 A 
ATOM     10  C   UNL     1       3.291   2.975  20.461  0.00  0.00    +0.000 A 
ATOM     11  C   UNL     1       4.298   3.132  19.509  0.00  0.00    +0.000 A 
ENDBRANCH   5   6
BRANCH   3  12
ATOM     12  C   UNL     1       6.189   4.385  14.333  0.00  0.00    +0.000 C 
ATOM     13  F   UNL     1       7.074   5.238  13.744  0.00  0.00    +0.000 F 
ATOM     14  F   UNL     1       6.557   3.132  13.959  0.00  0.00    +0.000 F 
ATOM     15  F   UNL     1       4.981   4.636  13.765  0.00  0.00    +0.000 F 
ENDBRANCH   3  12
BRANCH   1  17
ATOM     16  O   UNL     1       7.291   5.175  20.191  0.00  0.00    +0.000 OA
ATOM     17  C   UNL     1       7.379   5.661  19.075  0.00  0.00    +0.000 C 
BRANCH  17  18
ATOM     18  O   UNL     1       8.107   6.780  18.845  0.00  0.00    +0.000 OA
ATOM     19  H   UNL     1       8.300   6.989  17.913  0.00  0.00    +0.000 HD
ENDBRANCH  17  18
ENDBRANCH   1  17
TORSDOF 4
ENDMDL
MODEL 9
REMARK VINA RESULT:      -6.9      3.427      4.520
REMARK  Name = 
REMARK  4 active torsions:
REMARK  status: ('A' for Active; 'I' for Inactive)
REMARK    1  A    between atoms: C_2  and  O_3
REMARK    2  A    between atoms: C_2  and  C_4
REMARK    3  A    between atoms: C_6  and  C_7
REMARK    4  A    between atoms: N_12  and  C_13
REMARK                            x       y       z     vdW  Elec       q    Type
REMARK                         _______ _______ _______ _____ _____    ______ ____
ROOT
ATOM      1  C   UNL     1       3.627   6.666  18.050  0.00  0.00    +0.000 A 
ATOM      2  C   UNL     1       4.753   6.944  17.294  0.00  0.00    +0.000 A 
ATOM      3  C   UNL     1       5.591   5.812  17.401  0.00  0.00    +0.000 A 
ATOM      4  N   UNL     1       5.025   4.889  18.202  0.00  0.00    +0.000 NA
ATOM      5  N   UNL     1       3.762   5.341  18.420  0.00  0.00    +0.000 N 
ENDROOT
BRANCH   5   6
ATOM      6  C   UNL     1       2.786   4.473  18.982  0.00  0.00    +0.000 A 
ATOM      7  C   UNL     1       2.643   4.403  20.375  0.00  0.00    +0.000 A 
ATOM      8  C   UNL     1       1.629   3.619  20.930  0.00  0.00    +0.000 A 
ATOM      9  C   UNL     1       0.786   2.876  20.104  0.00  0.00    +0.000 A 
ATOM     10  C   UNL     1       0.961   2.901  18.722  0.00  0.00    +0.000 A 
ATOM     11  C   UNL     1       1.960   3.695  18.159  0.00  0.00    +0.000 A 
ENDBRANCH   5   6
BRANCH   3  12
ATOM     12  C   UNL     1       6.943   5.635  16.756  0.00  0.00    +0.000 C 
ATOM     13  F   UNL     1       6.832   5.405  15.417  0.00  0.00    +0.000 F 
ATOM     14  F   UNL     1       7.735   6.730  16.892  0.00  0.00    +0.000 F 
ATOM     15  F   UNL     1       7.625   4.578  17.270  0.00  0.00    +0.000 F 
ENDBRANCH   3  12
BRANCH   1  17
ATOM     16  O   UNL     1       1.988   8.263  17.500  0.00  0.00    +0.000 OA
ATOM     17  C   UNL     1       2.554   7.576  18.337  0.00  0.00    +0.000 C 
BRANCH  17  18
ATOM     18  O   UNL     1       2.261   7.681  19.655  0.00  0.00    +0.000 OA
ATOM     19  H   UNL     1       2.998   7.924  20.246  0.00  0.00    +0.000 HD
ENDBRANCH  17  18
ENDBRANCH   1  17
TORSDOF 4
ENDMDL
