MODEL 1
REMARK VINA RESULT:      -7.8      0.000      0.000
REMARK  Name = 
REMARK  2 active torsions:
REMARK  status: ('A' for Active; 'I' for Inactive)
REMARK    1  A    between atoms: N_3  and  C_4
REMARK    2  A    between atoms: N_12  and  C_13
REMARK                            x       y       z     vdW  Elec       q    Type
REMARK                         _______ _______ _______ _____ _____    ______ ____
ROOT
ATOM      1  O   UNL     1       4.027   4.370  16.685  0.00  0.00    +0.000 OA
ATOM      2  C   UNL     1       4.570   3.277  16.780  0.00  0.00    +0.000 C 
ATOM      3  N   UNL     1       4.254   2.332  17.734  0.00  0.00    +0.000 N 
ATOM      4  N   UNL     1       5.607   2.875  15.963  0.00  0.00    +0.000 N 
ATOM      5  H   UNL     1       4.871   1.534  17.832  0.00  0.00    +0.000 HD
ATOM      6  H   UNL     1       5.900   1.903  15.985  0.00  0.00    +0.000 HD
ENDROOT
BRANCH   4   7
ATOM      7  C   UNL     1       6.282   3.662  15.044  0.00  0.00    +0.000 A 
ATOM      8  C   UNL     1       6.115   3.657  13.715  0.00  0.00    +0.000 A 
ATOM      9  N   UNL     1       6.803   4.507  12.892  0.00  0.00    +0.000 N 
ATOM     10  C   UNL     1       7.692   5.442  13.336  0.00  0.00    +0.000 A 
ATOM     11  O   UNL     1       8.270   6.206  12.573  0.00  0.00    +0.000 OA
ATOM     12  N   UNL     1       7.892   5.467  14.686  0.00  0.00    +0.000 N 
ATOM     13  C   UNL     1       7.275   4.645  15.592  0.00  0.00    +0.000 A 
ATOM     14  O   UNL     1       7.501   4.699  16.800  0.00  0.00    +0.000 OA
ATOM     15  H   UNL     1       6.641   4.480  11.890  0.00  0.00    +0.000 HD
ATOM     16  H   UNL     1       8.551   6.144  15.035  0.00  0.00    +0.000 HD
ENDBRANCH   4   7
BRANCH   3  17
ATOM     17  C   UNL     1       3.307   2.494  18.776  0.00  0.00    +0.000 A 
ATOM     18  C   UNL     1       1.946   2.745  18.569  0.00  0.00    +0.000 A 
ATOM     19  C   UNL     1       1.088   2.943  19.654  0.00  0.00    +0.000 A 
ATOM     20  C   UNL     1       1.588   2.884  20.949  0.00  0.00    +0.000 A 
ATOM     21  F   UNL     1       0.762   3.087  21.983  0.00  0.00    +0.000 F 
ATOM     22  C   UNL     1       2.929   2.619  21.184  0.00  0.00    +0.000 A 
ATOM     23  C   UNL     1       3.773   2.419  20.097  0.00  0.00    +0.000 A 
ATOM     24  F   UNL     1       5.074   2.176  20.323  0.00  0.00    +0.000 F 
ENDBRANCH   3  17
TORSDOF 2
ENDMDL
MODEL 2
REMARK VINA RESULT:      -7.7      1.025      1.463
REMARK  Name = 
REMARK  2 active torsions:
REMARK  status: ('A' for Active; 'I' for Inactive)
REMARK    1  A    between atoms: N_3  and  C_4
REMARK    2  A    between atoms: N_12  and  C_13
REMARK                            x       y       z     vdW  Elec       q    Type
REMARK                         _______ _______ _______ _____ _____    ______ ____
ROOT
ATOM      1  O   UNL     1       4.120   4.378  16.746  0.00  0.00    +0.000 OA
ATOM      2  C   UNL     1       4.668   3.286  16.820  0.00  0.00    +0.000 C 
ATOM      3  N   UNL     1       4.398   2.345  17.793  0.00  0.00    +0.000 N 
ATOM      4  N   UNL     1       5.667   2.881  15.958  0.00  0.00    +0.000 N 
ATOM      5  H   UNL     1       5.021   1.549  17.866  0.00  0.00    +0.000 HD
ATOM      6  H   UNL     1       5.963   1.910  15.971  0.00  0.00    +0.000 HD
ENDROOT
BRANCH   4   7
ATOM      7  C   UNL     1       6.297   3.665  15.005  0.00  0.00    +0.000 A 
ATOM      8  C   UNL     1       6.102   3.621  13.681  0.00  0.00    +0.000 A 
ATOM      9  N   UNL     1       6.746   4.470  12.821  0.00  0.00    +0.000 N 
ATOM     10  C   UNL     1       7.615   5.442  13.223  0.00  0.00    +0.000 A 
ATOM     11  O   UNL     1       8.153   6.204  12.428  0.00  0.00    +0.000 OA
ATOM     12  N   UNL     1       7.844   5.508  14.567  0.00  0.00    +0.000 N 
ATOM     13  C   UNL     1       7.271   4.691  15.507  0.00  0.00    +0.000 A 
ATOM     14  O   UNL     1       7.521   4.783  16.708  0.00  0.00    +0.000 OA
ATOM     15  H   UNL     1       6.563   4.413  11.824  0.00  0.00    +0.000 HD
ATOM     16  H   UNL     1       8.488   6.213  14.884  0.00  0.00    +0.000 HD
ENDBRANCH   4   7
BRANCH   3  17
ATOM     17  C   UNL     1       3.500   2.511  18.877  0.00  0.00    +0.000 A 
ATOM     18  C   UNL     1       3.895   2.827  20.182  0.00  0.00    +0.000 A 
ATOM     19  C   UNL     1       2.948   2.923  21.205  0.00  0.00    +0.000 A 
ATOM     20  C   UNL     1       1.605   2.710  20.925  0.00  0.00    +0.000 A 
ATOM     21  F   UNL     1       0.705   2.792  21.913  0.00  0.00    +0.000 F 
ATOM     22  C   UNL     1       1.183   2.412  19.637  0.00  0.00    +0.000 A 
ATOM     23  C   UNL     1       2.133   2.324  18.625  0.00  0.00    +0.000 A 
ATOM     24  F   UNL     1       1.729   2.022  17.380  0.00  0.00    +0.000 F 
ENDBRANCH   3  17
TORSDOF 2
ENDMDL
MODEL 3
REMARK VINA RESULT:      -7.7      0.930      1.493
REMARK  Name = 
REMARK  2 active torsions:
REMARK  status: ('A' for Active; 'I' for Inactive)
REMARK    1  A    between atoms: N_3  and  C_4
REMARK    2  A    between atoms: N_12  and  C_13
REMARK                            x       y       z     vdW  Elec       q    Type
REMARK                         _______ _______ _______ _____ _____    ______ ____
ROOT
ATOM      1  O   UNL     1       4.173   4.627  16.938  0.00  0.00    +0.000 OA
ATOM      2  C   UNL     1       4.529   3.466  16.783  0.00  0.00    +0.000 C 
ATOM      3  N   UNL     1       4.072   2.405  17.537  0.00  0.00    +0.000 N 
ATOM      4  N   UNL     1       5.478   3.085  15.856  0.00  0.00    +0.000 N 
ATOM      5  H   UNL     1       4.551   1.517  17.442  0.00  0.00    +0.000 HD
ATOM      6  H   UNL     1       5.607   2.096  15.665  0.00  0.00    +0.000 HD
ENDROOT
BRANCH   4   7
ATOM      7  C   UNL     1       6.264   3.929  15.089  0.00  0.00    +0.000 A 
ATOM      8  C   UNL     1       7.159   4.816  15.542  0.00  0.00    +0.000 A 
ATOM      9  N   UNL     1       7.921   5.579  14.699  0.00  0.00    +0.000 N 
ATOM     10  C   UNL     1       7.862   5.495  13.338  0.00  0.00    +0.000 A 
ATOM     11  O   UNL     1       8.579   6.174  12.611  0.00  0.00    +0.000 OA
ATOM     12  N   UNL     1       6.952   4.607  12.842  0.00  0.00    +0.000 N 
ATOM     13  C   UNL     1       6.127   3.816  13.599  0.00  0.00    +0.000 A 
ATOM     14  O   UNL     1       5.313   3.039  13.102  0.00  0.00    +0.000 OA
ATOM     15  H   UNL     1       8.596   6.233  15.080  0.00  0.00    +0.000 HD
ATOM     16  H   UNL     1       6.886   4.535  11.840  0.00  0.00    +0.000 HD
ENDBRANCH   4   7
BRANCH   3  17
ATOM     17  C   UNL     1       3.175   2.494  18.630  0.00  0.00    +0.000 A 
ATOM     18  C   UNL     1       1.786   2.600  18.500  0.00  0.00    +0.000 A 
ATOM     19  C   UNL     1       0.976   2.734  19.631  0.00  0.00    +0.000 A 
ATOM     20  C   UNL     1       1.553   2.757  20.895  0.00  0.00    +0.000 A 
ATOM     21  F   UNL     1       0.772   2.899  21.973  0.00  0.00    +0.000 F 
ATOM     22  C   UNL     1       2.926   2.637  21.054  0.00  0.00    +0.000 A 
ATOM     23  C   UNL     1       3.722   2.498  19.922  0.00  0.00    +0.000 A 
ATOM     24  F   UNL     1       5.052   2.396  20.073  0.00  0.00    +0.000 F 
ENDBRANCH   3  17
TORSDOF 2
ENDMDL
MODEL 4
REMARK VINA RESULT:      -7.6      1.374      2.121
REMARK  Name = 
REMARK  2 active torsions:
REMARK  status: ('A' for Active; 'I' for Inactive)
REMARK    1  A    between atoms: N_3  and  C_4
REMARK    2  A    between atoms: N_12  and  C_13
REMARK                            x       y       z     vdW  Elec       q    Type
REMARK                         _______ _______ _______ _____ _____    ______ ____
ROOT
ATOM      1  O   UNL     1       4.442   4.773  17.245  0.00  0.00    +0.000 OA
ATOM      2  C   UNL     1       4.625   3.596  16.964  0.00  0.00    +0.000 C 
ATOM      3  N   UNL     1       4.107   2.536  17.681  0.00  0.00    +0.000 N 
ATOM      4  N   UNL     1       5.420   3.184  15.913  0.00  0.00    +0.000 N 
ATOM      5  H   UNL     1       4.453   1.608  17.467  0.00  0.00    +0.000 HD
ATOM      6  H   UNL     1       5.398   2.207  15.635  0.00  0.00    +0.000 HD
ENDROOT
BRANCH   4   7
ATOM      7  C   UNL     1       6.231   3.989  15.131  0.00  0.00    +0.000 A 
ATOM      8  C   UNL     1       7.151   4.859  15.569  0.00  0.00    +0.000 A 
ATOM      9  N   UNL     1       7.936   5.582  14.712  0.00  0.00    +0.000 N 
ATOM     10  C   UNL     1       7.878   5.473  13.353  0.00  0.00    +0.000 A 
ATOM     11  O   UNL     1       8.615   6.115  12.615  0.00  0.00    +0.000 OA
ATOM     12  N   UNL     1       6.943   4.601  12.873  0.00  0.00    +0.000 N 
ATOM     13  C   UNL     1       6.093   3.850  13.643  0.00  0.00    +0.000 A 
ATOM     14  O   UNL     1       5.258   3.087  13.160  0.00  0.00    +0.000 OA
ATOM     15  H   UNL     1       8.630   6.223  15.082  0.00  0.00    +0.000 HD
ATOM     16  H   UNL     1       6.877   4.511  11.873  0.00  0.00    +0.000 HD
ENDBRANCH   4   7
BRANCH   3  17
ATOM     17  C   UNL     1       3.342   2.638  18.869  0.00  0.00    +0.000 A 
ATOM     18  C   UNL     1       3.859   2.442  20.155  0.00  0.00    +0.000 A 
ATOM     19  C   UNL     1       3.024   2.511  21.273  0.00  0.00    +0.000 A 
ATOM     20  C   UNL     1       1.671   2.782  21.109  0.00  0.00    +0.000 A 
ATOM     21  F   UNL     1       0.875   2.835  22.184  0.00  0.00    +0.000 F 
ATOM     22  C   UNL     1       1.136   2.998  19.847  0.00  0.00    +0.000 A 
ATOM     23  C   UNL     1       1.977   2.932  18.742  0.00  0.00    +0.000 A 
ATOM     24  F   UNL     1       1.458   3.127  17.519  0.00  0.00    +0.000 F 
ENDBRANCH   3  17
TORSDOF 2
ENDMDL
MODEL 5
REMARK VINA RESULT:      -7.6      1.359      1.375
REMARK  Name = 
REMARK  2 active torsions:
REMARK  status: ('A' for Active; 'I' for Inactive)
REMARK    1  A    between atoms: N_3  and  C_4
REMARK    2  A    between atoms: N_12  and  C_13
REMARK                            x       y       z     vdW  Elec       q    Type
REMARK                         _______ _______ _______ _____ _____    ______ ____
ROOT
ATOM      1  O   UNL     1       4.128   2.994  17.123  0.00  0.00    +0.000 OA
ATOM      2  C   UNL     1       4.891   3.715  17.754  0.00  0.00    +0.000 C 
ATOM      3  N   UNL     1       4.712   4.069  19.075  0.00  0.00    +0.000 N 
ATOM      4  N   UNL     1       6.009   4.303  17.197  0.00  0.00    +0.000 N 
ATOM      5  H   UNL     1       5.304   4.799  19.453  0.00  0.00    +0.000 HD
ATOM      6  H   UNL     1       6.684   4.751  17.810  0.00  0.00    +0.000 HD
ENDROOT
BRANCH   4   7
ATOM      7  C   UNL     1       6.355   4.305  15.856  0.00  0.00    +0.000 A 
ATOM      8  C   UNL     1       5.966   3.417  14.931  0.00  0.00    +0.000 A 
ATOM      9  N   UNL     1       6.329   3.529  13.616  0.00  0.00    +0.000 N 
ATOM     10  C   UNL     1       7.088   4.549  13.122  0.00  0.00    +0.000 A 
ATOM     11  O   UNL     1       7.372   4.634  11.933  0.00  0.00    +0.000 OA
ATOM     12  N   UNL     1       7.510   5.467  14.041  0.00  0.00    +0.000 N 
ATOM     13  C   UNL     1       7.223   5.433  15.380  0.00  0.00    +0.000 A 
ATOM     14  O   UNL     1       7.639   6.278  16.171  0.00  0.00    +0.000 OA
ATOM     15  H   UNL     1       6.005   2.842  12.942  0.00  0.00    +0.000 HD
ATOM     16  H   UNL     1       8.079   6.224  13.699  0.00  0.00    +0.000 HD
ENDBRANCH   4   7
BRANCH   3  17
ATOM     17  C   UNL     1       3.605   3.711  19.884  0.00  0.00    +0.000 A 
ATOM     18  C   UNL     1       2.409   4.435  19.944  0.00  0.00    +0.000 A 
ATOM     19  C   UNL     1       1.383   4.040  20.807  0.00  0.00    +0.000 A 
ATOM     20  C   UNL     1       1.549   2.917  21.608  0.00  0.00    +0.000 A 
ATOM     21  F   UNL     1       0.567   2.552  22.442  0.00  0.00    +0.000 F 
ATOM     22  C   UNL     1       2.717   2.171  21.557  0.00  0.00    +0.000 A 
ATOM     23  C   UNL     1       3.730   2.569  20.690  0.00  0.00    +0.000 A 
ATOM     24  F   UNL     1       4.867   1.857  20.649  0.00  0.00    +0.000 F 
ENDBRANCH   3  17
TORSDOF 2
ENDMDL
MODEL 6
REMARK VINA RESULT:      -7.3      6.974      9.080
REMARK  Name = 
REMARK  2 active torsions:
REMARK  status: ('A' for Active; 'I' for Inactive)
REMARK    1  A    between atoms: N_3  and  C_4
REMARK    2  A    between atoms: N_12  and  C_13
REMARK                            x       y       z     vdW  Elec       q    Type
REMARK                         _______ _______ _______ _____ _____    ______ ____
ROOT
ATOM      1  O   UNL     1       7.792   9.530  17.748  0.00  0.00    +0.000 OA
ATOM      2  C   UNL     1       8.491   8.986  18.593  0.00  0.00    +0.000 C 
ATOM      3  N   UNL     1       9.456   9.633  19.338  0.00  0.00    +0.000 N 
ATOM      4  N   UNL     1       8.429   7.635  18.870  0.00  0.00    +0.000 N 
ATOM      5  H   UNL     1      10.090   9.064  19.885  0.00  0.00    +0.000 HD
ATOM      6  H   UNL     1       8.914   7.279  19.688  0.00  0.00    +0.000 HD
ENDROOT
BRANCH   4   7
ATOM      7  C   UNL     1       7.712   6.684  18.164  0.00  0.00    +0.000 A 
ATOM      8  C   UNL     1       7.351   6.750  16.876  0.00  0.00    +0.000 A 
ATOM      9  N   UNL     1       6.675   5.734  16.255  0.00  0.00    +0.000 N 
ATOM     10  C   UNL     1       6.331   4.565  16.868  0.00  0.00    +0.000 A 
ATOM     11  O   UNL     1       5.750   3.664  16.275  0.00  0.00    +0.000 OA
ATOM     12  N   UNL     1       6.676   4.468  18.186  0.00  0.00    +0.000 N 
ATOM     13  C   UNL     1       7.329   5.435  18.904  0.00  0.00    +0.000 A 
ATOM     14  O   UNL     1       7.606   5.304  20.096  0.00  0.00    +0.000 OA
ATOM     15  H   UNL     1       6.428   5.818  15.274  0.00  0.00    +0.000 HD
ATOM     16  H   UNL     1       6.423   3.617  18.660  0.00  0.00    +0.000 HD
ENDBRANCH   4   7
BRANCH   3  17
ATOM     17  C   UNL     1       9.826  10.994  19.206  0.00  0.00    +0.000 A 
ATOM     18  C   UNL     1      10.470  11.528  18.083  0.00  0.00    +0.000 A 
ATOM     19  C   UNL     1      10.846  12.874  18.055  0.00  0.00    +0.000 A 
ATOM     20  C   UNL     1      10.575  13.690  19.146  0.00  0.00    +0.000 A 
ATOM     21  F   UNL     1      10.949  14.975  19.116  0.00  0.00    +0.000 F 
ATOM     22  C   UNL     1       9.923  13.191  20.264  0.00  0.00    +0.000 A 
ATOM     23  C   UNL     1       9.548  11.852  20.280  0.00  0.00    +0.000 A 
ATOM     24  F   UNL     1       8.929  11.364  21.368  0.00  0.00    +0.000 F 
ENDBRANCH   3  17
TORSDOF 2
ENDMDL
MODEL 7
REMARK VINA RESULT:      -7.3      1.875      2.182
REMARK  Name = 
REMARK  2 active torsions:
REMARK  status: ('A' for Active; 'I' for Inactive)
REMARK    1  A    between atoms: N_3  and  C_4
REMARK    2  A    between atoms: N_12  and  C_13
REMARK                            x       y       z     vdW  Elec       q    Type
REMARK                         _______ _______ _______ _____ _____    ______ ____
ROOT
ATOM      1  O   UNL     1       4.572   3.194  17.352  0.00  0.00    +0.000 OA
ATOM      2  C   UNL     1       4.353   4.398  17.366  0.00  0.00    +0.000 C 
ATOM      3  N   UNL     1       3.551   5.031  18.293  0.00  0.00    +0.000 N 
ATOM      4  N   UNL     1       4.849   5.268  16.416  0.00  0.00    +0.000 N 
ATOM      5  H   UNL     1       3.300   5.998  18.119  0.00  0.00    +0.000 HD
ATOM      6  H   UNL     1       4.768   6.268  16.577  0.00  0.00    +0.000 HD
ENDROOT
BRANCH   4   7
ATOM      7  C   UNL     1       5.518   4.921  15.254  0.00  0.00    +0.000 A 
ATOM      8  C   UNL     1       5.032   4.193  14.241  0.00  0.00    +0.000 A 
ATOM      9  N   UNL     1       5.761   3.939  13.111  0.00  0.00    +0.000 N 
ATOM     10  C   UNL     1       7.022   4.413  12.898  0.00  0.00    +0.000 A 
ATOM     11  O   UNL     1       7.637   4.189  11.861  0.00  0.00    +0.000 OA
ATOM     12  N   UNL     1       7.552   5.152  13.916  0.00  0.00    +0.000 N 
ATOM     13  C   UNL     1       6.917   5.443  15.095  0.00  0.00    +0.000 A 
ATOM     14  O   UNL     1       7.444   6.104  15.988  0.00  0.00    +0.000 OA
ATOM     15  H   UNL     1       5.353   3.391  12.359  0.00  0.00    +0.000 HD
ATOM     16  H   UNL     1       8.485   5.505  13.783  0.00  0.00    +0.000 HD
ENDBRANCH   4   7
BRANCH   3  17
ATOM     17  C   UNL     1       2.819   4.394  19.326  0.00  0.00    +0.000 A 
ATOM     18  C   UNL     1       3.296   4.209  20.628  0.00  0.00    +0.000 A 
ATOM     19  C   UNL     1       2.529   3.524  21.574  0.00  0.00    +0.000 A 
ATOM     20  C   UNL     1       1.281   3.027  21.221  0.00  0.00    +0.000 A 
ATOM     21  F   UNL     1       0.557   2.360  22.129  0.00  0.00    +0.000 F 
ATOM     22  C   UNL     1       0.776   3.210  19.942  0.00  0.00    +0.000 A 
ATOM     23  C   UNL     1       1.545   3.898  19.010  0.00  0.00    +0.000 A 
ATOM     24  F   UNL     1       1.064   4.064  17.768  0.00  0.00    +0.000 F 
ENDBRANCH   3  17
TORSDOF 2
ENDMDL
MODEL 8
REMARK VINA RESULT:      -7.2      3.382      7.520
REMARK  Name = 
REMARK  2 active torsions:
REMARK  status: ('A' for Active; 'I' for Inactive)
REMARK    1  A    between atoms: N_3  and  C_4
REMARK    2  A    between atoms: N_12  and  C_13
REMARK                            x       y       z     vdW  Elec       q    Type
REMARK                         _______ _______ _______ _____ _____    ______ ____
ROOT
ATOM      1  O   UNL     1       4.412   4.790  16.358  0.00  0.00    +0.000 OA
ATOM      2  C   UNL     1       4.986   3.720  16.512  0.00  0.00    +0.000 C 
ATOM      3  N   UNL     1       5.928   3.211  15.642  0.00  0.00    +0.000 N 
ATOM      4  N   UNL     1       4.720   2.863  17.561  0.00  0.00    +0.000 N 
ATOM      5  H   UNL     1       6.218   2.248  15.769  0.00  0.00    +0.000 HD
ATOM      6  H   UNL     1       5.341   2.076  17.721  0.00  0.00    +0.000 HD
ENDROOT
BRANCH   4   7
ATOM      7  C   UNL     1       3.698   2.991  18.487  0.00  0.00    +0.000 A 
ATOM      8  C   UNL     1       2.443   3.387  18.240  0.00  0.00    +0.000 A 
ATOM      9  N   UNL     1       1.489   3.441  19.220  0.00  0.00    +0.000 N 
ATOM     10  C   UNL     1       1.712   3.079  20.517  0.00  0.00    +0.000 A 
ATOM     11  O   UNL     1       0.827   3.113  21.364  0.00  0.00    +0.000 OA
ATOM     12  N   UNL     1       2.985   2.679  20.805  0.00  0.00    +0.000 N 
ATOM     13  C   UNL     1       4.015   2.613  19.905  0.00  0.00    +0.000 A 
ATOM     14  O   UNL     1       5.150   2.257  20.218  0.00  0.00    +0.000 OA
ATOM     15  H   UNL     1       0.546   3.737  18.991  0.00  0.00    +0.000 HD
ATOM     16  H   UNL     1       3.173   2.415  21.758  0.00  0.00    +0.000 HD
ENDBRANCH   4   7
BRANCH   3  17
ATOM     17  C   UNL     1       6.334   3.807  14.422  0.00  0.00    +0.000 A 
ATOM     18  C   UNL     1       5.935   3.359  13.158  0.00  0.00    +0.000 A 
ATOM     19  C   UNL     1       6.422   3.974  12.001  0.00  0.00    +0.000 A 
ATOM     20  C   UNL     1       7.305   5.041  12.106  0.00  0.00    +0.000 A 
ATOM     21  F   UNL     1       7.777   5.617  10.993  0.00  0.00    +0.000 F 
ATOM     22  C   UNL     1       7.704   5.517  13.346  0.00  0.00    +0.000 A 
ATOM     23  C   UNL     1       7.209   4.901  14.491  0.00  0.00    +0.000 A 
ATOM     24  F   UNL     1       7.606   5.351  15.693  0.00  0.00    +0.000 F 
ENDBRANCH   3  17
TORSDOF 2
ENDMDL
MODEL 9
REMARK VINA RESULT:      -7.1      7.120      9.167
REMARK  Name = 
REMARK  2 active torsions:
REMARK  status: ('A' for Active; 'I' for Inactive)
REMARK    1  A    between atoms: N_3  and  C_4
REMARK    2  A    between atoms: N_12  and  C_13
REMARK                            x       y       z     vdW  Elec       q    Type
REMARK                         _______ _______ _______ _____ _____    ______ ____
ROOT
ATOM      1  O   UNL     1       7.797   9.662  17.843  0.00  0.00    +0.000 OA
ATOM      2  C   UNL     1       8.505   9.142  18.696  0.00  0.00    +0.000 C 
ATOM      3  N   UNL     1       9.401   9.830  19.487  0.00  0.00    +0.000 N 
ATOM      4  N   UNL     1       8.523   7.783  18.937  0.00  0.00    +0.000 N 
ATOM      5  H   UNL     1      10.055   9.289  20.041  0.00  0.00    +0.000 HD
ATOM      6  H   UNL     1       9.005   7.438  19.762  0.00  0.00    +0.000 HD
ENDROOT
BRANCH   4   7
ATOM      7  C   UNL     1       7.892   6.806  18.185  0.00  0.00    +0.000 A 
ATOM      8  C   UNL     1       7.599   6.869  16.880  0.00  0.00    +0.000 A 
ATOM      9  N   UNL     1       7.008   5.829  16.214  0.00  0.00    +0.000 N 
ATOM     10  C   UNL     1       6.687   4.639  16.798  0.00  0.00    +0.000 A 
ATOM     11  O   UNL     1       6.183   3.717  16.166  0.00  0.00    +0.000 OA
ATOM     12  N   UNL     1       6.963   4.545  18.132  0.00  0.00    +0.000 N 
ATOM     13  C   UNL     1       7.529   5.533  18.894  0.00  0.00    +0.000 A 
ATOM     14  O   UNL     1       7.746   5.403  20.097  0.00  0.00    +0.000 OA
ATOM     15  H   UNL     1       6.812   5.911  15.222  0.00  0.00    +0.000 HD
ATOM     16  H   UNL     1       6.726   3.677  18.585  0.00  0.00    +0.000 HD
ENDBRANCH   4   7
BRANCH   3  17
ATOM     17  C   UNL     1       9.685  11.216  19.401  0.00  0.00    +0.000 A 
ATOM     18  C   UNL     1       9.330  12.152  20.379  0.00  0.00    +0.000 A 
ATOM     19  C   UNL     1       9.603  13.510  20.193  0.00  0.00    +0.000 A 
ATOM     20  C   UNL     1      10.236  13.934  19.032  0.00  0.00    +0.000 A 
ATOM     21  F   UNL     1      10.483  15.238  18.855  0.00  0.00    +0.000 F 
ATOM     22  C   UNL     1      10.615  13.026  18.054  0.00  0.00    +0.000 A 
ATOM     23  C   UNL     1      10.343  11.676  18.251  0.00  0.00    +0.000 A 
ATOM     24  F   UNL     1      10.696  10.797  17.300  0.00  0.00    +0.000 F 
ENDBRANCH   3  17
TORSDOF 2
ENDMDL
