MODEL 1
REMARK VINA RESULT:      -7.9      0.000      0.000
REMARK  Name = 
REMARK  13 active torsions:
REMARK  status: ('A' for Active; 'I' for Inactive)
REMARK    1  A    between atoms: C_1  and  O_2
REMARK    2  A    between atoms: O_2  and  C_3
REMARK    3  A    between atoms: C_6  and  N_7
REMARK    4  A    between atoms: C_8  and  C_10
REMARK    5  A    between atoms: C_10  and  O_11
REMARK    6  A    between atoms: O_11  and  C_12
REMARK    7  A    between atoms: C_12  and  C_14
REMARK    8  A    between atoms: C_14  and  C_15
REMARK    9  A    between atoms: C_15  and  C_16
REMARK   10  A    between atoms: C_19  and  S_20
REMARK   11  A    between atoms: S_20  and  N_23
REMARK   12  A    between atoms: C_31  and  O_32
REMARK   13  A    between atoms: O_32  and  C_33
REMARK                            x       y       z     vdW  Elec       q    Type
REMARK                         _______ _______ _______ _____ _____    ______ ____
ROOT
ATOM      1  C   UNL     1       0.576  10.403  21.957  0.00  0.00    +0.000 C 
ATOM      2  O   UNL     1       0.559  10.051  23.129  0.00  0.00    +0.000 OA
ENDROOT
BRANCH   1   3
ATOM      3  O   UNL     1       0.635  11.697  21.537  0.00  0.00    +0.000 OA
BRANCH   3   4
ATOM      4  C   UNL     1      -0.633  12.329  21.393  0.00  0.00    +0.000 C 
BRANCH   4   6
ATOM      5  N   UNL     1      -2.183  11.363  19.794  0.00  0.00    +0.000 N 
ATOM      6  C   UNL     1      -1.196  12.331  19.974  0.00  0.00    +0.000 C 
ATOM      7  O   UNL     1      -0.764  13.088  19.108  0.00  0.00    +0.000 OA
ATOM      8  H   UNL     1      -1.934  10.504  20.278  0.00  0.00    +0.000 HD
BRANCH   5  12
ATOM      9  C   UNL     1      -3.603  10.743  15.891  0.00  0.00    +0.000 A 
ATOM     10  C   UNL     1      -2.390  10.193  16.310  0.00  0.00    +0.000 A 
ATOM     11  C   UNL     1      -1.938  10.390  17.610  0.00  0.00    +0.000 A 
ATOM     12  C   UNL     1      -2.691  11.165  18.492  0.00  0.00    +0.000 A 
ATOM     13  C   UNL     1      -3.920  11.717  18.096  0.00  0.00    +0.000 A 
ATOM     14  C   UNL     1      -4.372  11.495  16.788  0.00  0.00    +0.000 A 
BRANCH   9  16
ATOM     15  C   UNL     1      -2.947   9.803  13.806  0.00  0.00    +0.000 C 
ATOM     16  O   UNL     1      -3.936  10.452  14.595  0.00  0.00    +0.000 OA
ENDBRANCH   9  16
BRANCH  13  17
ATOM     17  O   UNL     1      -4.643  12.370  19.065  0.00  0.00    +0.000 OA
ATOM     18  C   UNL     1      -6.023  12.587  18.801  0.00  0.00    +0.000 C 
ENDBRANCH  13  17
ENDBRANCH   5  12
ENDBRANCH   4   6
ENDBRANCH   3   4
ENDBRANCH   1   3
BRANCH   1  19
ATOM     19  C   UNL     1       0.669   9.470  20.774  0.00  0.00    +0.000 C 
BRANCH  19  20
ATOM     20  C   UNL     1       0.643   8.029  21.301  0.00  0.00    +0.000 C 
BRANCH  20  21
ATOM     21  C   UNL     1       1.535   7.078  20.547  0.00  0.00    +0.000 A 
ATOM     22  C   UNL     1       2.341   7.535  19.495  0.00  0.00    +0.000 A 
ATOM     23  C   UNL     1       3.202   6.652  18.831  0.00  0.00    +0.000 A 
ATOM     24  C   UNL     1       3.278   5.313  19.232  0.00  0.00    +0.000 A 
ATOM     25  C   UNL     1       2.449   4.846  20.256  0.00  0.00    +0.000 A 
ATOM     26  C   UNL     1       1.586   5.727  20.912  0.00  0.00    +0.000 A 
BRANCH  24  27
ATOM     27  S   UNL     1       4.276   4.150  18.313  0.00  0.00    +0.000 S 
ATOM     28  O   UNL     1       5.102   3.459  19.282  0.00  0.00    +0.000 OA
ATOM     29  O   UNL     1       3.378   3.415  17.447  0.00  0.00    +0.000 OA
BRANCH  27  30
ATOM     30  N   UNL     1       5.303   5.064  17.337  0.00  0.00    +0.000 NA
ATOM     31  C   UNL     1       5.325   4.865  15.870  0.00  0.00    +0.000 C 
ATOM     32  C   UNL     1       6.464   3.922  15.471  0.00  0.00    +0.000 C 
ATOM     33  O   UNL     1       7.733   4.368  15.975  0.00  0.00    +0.000 OA
ATOM     34  C   UNL     1       7.722   4.546  17.399  0.00  0.00    +0.000 C 
ATOM     35  C   UNL     1       6.622   5.512  17.839  0.00  0.00    +0.000 C 
ENDBRANCH  27  30
ENDBRANCH  24  27
ENDBRANCH  20  21
ENDBRANCH  19  20
ENDBRANCH   1  19
TORSDOF 11
ENDMDL
MODEL 2
REMARK VINA RESULT:      -7.7      3.225     10.294
REMARK  Name = 
REMARK  13 active torsions:
REMARK  status: ('A' for Active; 'I' for Inactive)
REMARK    1  A    between atoms: C_1  and  O_2
REMARK    2  A    between atoms: O_2  and  C_3
REMARK    3  A    between atoms: C_6  and  N_7
REMARK    4  A    between atoms: C_8  and  C_10
REMARK    5  A    between atoms: C_10  and  O_11
REMARK    6  A    between atoms: O_11  and  C_12
REMARK    7  A    between atoms: C_12  and  C_14
REMARK    8  A    between atoms: C_14  and  C_15
REMARK    9  A    between atoms: C_15  and  C_16
REMARK   10  A    between atoms: C_19  and  S_20
REMARK   11  A    between atoms: S_20  and  N_23
REMARK   12  A    between atoms: C_31  and  O_32
REMARK   13  A    between atoms: O_32  and  C_33
REMARK                            x       y       z     vdW  Elec       q    Type
REMARK                         _______ _______ _______ _____ _____    ______ ____
ROOT
ATOM      1  C   UNL     1       1.343   4.067  19.559  0.00  0.00    +0.000 C 
ATOM      2  O   UNL     1       1.119   4.118  18.356  0.00  0.00    +0.000 OA
ENDROOT
BRANCH   1   3
ATOM      3  O   UNL     1       1.729   2.947  20.228  0.00  0.00    +0.000 OA
BRANCH   3   4
ATOM      4  C   UNL     1       3.139   2.803  20.375  0.00  0.00    +0.000 C 
BRANCH   4   6
ATOM      5  N   UNL     1       4.641   4.002  18.893  0.00  0.00    +0.000 N 
ATOM      6  C   UNL     1       3.928   2.817  19.068  0.00  0.00    +0.000 C 
ATOM      7  O   UNL     1       3.872   1.886  18.269  0.00  0.00    +0.000 OA
ATOM      8  H   UNL     1       4.093   4.799  19.205  0.00  0.00    +0.000 HD
BRANCH   5  12
ATOM      9  C   UNL     1       6.536   4.565  15.187  0.00  0.00    +0.000 A 
ATOM     10  C   UNL     1       5.160   4.344  15.265  0.00  0.00    +0.000 A 
ATOM     11  C   UNL     1       4.540   4.176  16.498  0.00  0.00    +0.000 A 
ATOM     12  C   UNL     1       5.306   4.204  17.664  0.00  0.00    +0.000 A 
ATOM     13  C   UNL     1       6.690   4.437  17.611  0.00  0.00    +0.000 A 
ATOM     14  C   UNL     1       7.298   4.622  16.362  0.00  0.00    +0.000 A 
BRANCH   9  16
ATOM     15  C   UNL     1       6.512   3.848  12.919  0.00  0.00    +0.000 C 
ATOM     16  O   UNL     1       7.010   4.734  13.914  0.00  0.00    +0.000 OA
ENDBRANCH   9  16
BRANCH  13  17
ATOM     17  O   UNL     1       7.340   4.557  18.815  0.00  0.00    +0.000 OA
ATOM     18  C   UNL     1       7.744   5.866  19.198  0.00  0.00    +0.000 C 
ENDBRANCH  13  17
ENDBRANCH   5  12
ENDBRANCH   4   6
ENDBRANCH   3   4
ENDBRANCH   1   3
BRANCH   1  19
ATOM     19  C   UNL     1       1.363   5.258  20.487  0.00  0.00    +0.000 C 
BRANCH  19  20
ATOM     20  C   UNL     1       2.265   6.332  19.863  0.00  0.00    +0.000 C 
BRANCH  20  21
ATOM     21  C   UNL     1       1.759   7.740  20.034  0.00  0.00    +0.000 A 
ATOM     22  C   UNL     1       1.344   8.204  21.289  0.00  0.00    +0.000 A 
ATOM     23  C   UNL     1       0.920   9.530  21.447  0.00  0.00    +0.000 A 
ATOM     24  C   UNL     1       0.931  10.404  20.353  0.00  0.00    +0.000 A 
ATOM     25  C   UNL     1       1.308   9.934  19.092  0.00  0.00    +0.000 A 
ATOM     26  C   UNL     1       1.725   8.610  18.937  0.00  0.00    +0.000 A 
BRANCH  24  27
ATOM     27  S   UNL     1       0.273  12.058  20.512  0.00  0.00    +0.000 S 
ATOM     28  O   UNL     1       1.167  12.774  21.400  0.00  0.00    +0.000 OA
ATOM     29  O   UNL     1       0.017  12.541  19.172  0.00  0.00    +0.000 OA
BRANCH  27  30
ATOM     30  N   UNL     1      -1.209  11.912  21.301  0.00  0.00    +0.000 NA
ATOM     31  C   UNL     1      -2.451  12.421  20.676  0.00  0.00    +0.000 C 
ATOM     32  C   UNL     1      -2.781  13.823  21.198  0.00  0.00    +0.000 C 
ATOM     33  O   UNL     1      -2.844  13.862  22.632  0.00  0.00    +0.000 OA
ATOM     34  C   UNL     1      -1.636  13.385  23.244  0.00  0.00    +0.000 C 
ATOM     35  C   UNL     1      -1.288  11.971  22.779  0.00  0.00    +0.000 C 
ENDBRANCH  27  30
ENDBRANCH  24  27
ENDBRANCH  20  21
ENDBRANCH  19  20
ENDBRANCH   1  19
TORSDOF 11
ENDMDL
MODEL 3
REMARK VINA RESULT:      -7.7      3.232     10.105
REMARK  Name = 
REMARK  13 active torsions:
REMARK  status: ('A' for Active; 'I' for Inactive)
REMARK    1  A    between atoms: C_1  and  O_2
REMARK    2  A    between atoms: O_2  and  C_3
REMARK    3  A    between atoms: C_6  and  N_7
REMARK    4  A    between atoms: C_8  and  C_10
REMARK    5  A    between atoms: C_10  and  O_11
REMARK    6  A    between atoms: O_11  and  C_12
REMARK    7  A    between atoms: C_12  and  C_14
REMARK    8  A    between atoms: C_14  and  C_15
REMARK    9  A    between atoms: C_15  and  C_16
REMARK   10  A    between atoms: C_19  and  S_20
REMARK   11  A    between atoms: S_20  and  N_23
REMARK   12  A    between atoms: C_31  and  O_32
REMARK   13  A    between atoms: O_32  and  C_33
REMARK                            x       y       z     vdW  Elec       q    Type
REMARK                         _______ _______ _______ _____ _____    ______ ____
ROOT
ATOM      1  C   UNL     1       1.449   4.131  19.218  0.00  0.00    +0.000 C 
ATOM      2  O   UNL     1       1.346   4.428  18.034  0.00  0.00    +0.000 OA
ENDROOT
BRANCH   1   3
ATOM      3  O   UNL     1       1.591   2.862  19.689  0.00  0.00    +0.000 OA
BRANCH   3   4
ATOM      4  C   UNL     1       2.941   2.454  19.889  0.00  0.00    +0.000 C 
BRANCH   4   6
ATOM      5  N   UNL     1       4.562   3.836  18.725  0.00  0.00    +0.000 N 
ATOM      6  C   UNL     1       3.855   2.636  18.680  0.00  0.00    +0.000 C 
ATOM      7  O   UNL     1       3.895   1.811  17.770  0.00  0.00    +0.000 OA
ATOM      8  H   UNL     1       3.971   4.586  19.076  0.00  0.00    +0.000 HD
BRANCH   5  12
ATOM      9  C   UNL     1       6.809   4.856  15.326  0.00  0.00    +0.000 A 
ATOM     10  C   UNL     1       5.462   4.502  15.218  0.00  0.00    +0.000 A 
ATOM     11  C   UNL     1       4.723   4.182  16.352  0.00  0.00    +0.000 A 
ATOM     12  C   UNL     1       5.341   4.193  17.603  0.00  0.00    +0.000 A 
ATOM     13  C   UNL     1       6.690   4.559  17.737  0.00  0.00    +0.000 A 
ATOM     14  C   UNL     1       7.417   4.896  16.587  0.00  0.00    +0.000 A 
BRANCH   9  16
ATOM     15  C   UNL     1       7.003   4.417  12.997  0.00  0.00    +0.000 C 
ATOM     16  O   UNL     1       7.407   5.166  14.135  0.00  0.00    +0.000 OA
ENDBRANCH   9  16
BRANCH  13  17
ATOM     17  O   UNL     1       7.179   4.648  19.017  0.00  0.00    +0.000 OA
ATOM     18  C   UNL     1       7.839   5.858  19.370  0.00  0.00    +0.000 C 
ENDBRANCH  13  17
ENDBRANCH   5  12
ENDBRANCH   4   6
ENDBRANCH   3   4
ENDBRANCH   1   3
BRANCH   1  19
ATOM     19  C   UNL     1       1.571   5.121  20.351  0.00  0.00    +0.000 C 
BRANCH  19  20
ATOM     20  C   UNL     1       2.606   6.181  19.948  0.00  0.00    +0.000 C 
BRANCH  20  21
ATOM     21  C   UNL     1       2.027   7.550  19.708  0.00  0.00    +0.000 A 
ATOM     22  C   UNL     1       2.141   8.166  18.454  0.00  0.00    +0.000 A 
ATOM     23  C   UNL     1       1.558   9.419  18.227  0.00  0.00    +0.000 A 
ATOM     24  C   UNL     1       0.837  10.052  19.247  0.00  0.00    +0.000 A 
ATOM     25  C   UNL     1       0.753   9.458  20.510  0.00  0.00    +0.000 A 
ATOM     26  C   UNL     1       1.341   8.210  20.735  0.00  0.00    +0.000 A 
BRANCH  24  27
ATOM     27  S   UNL     1       0.199  11.704  19.012  0.00  0.00    +0.000 S 
ATOM     28  O   UNL     1       1.318  12.522  18.591  0.00  0.00    +0.000 OA
ATOM     29  O   UNL     1      -0.984  11.586  18.185  0.00  0.00    +0.000 OA
BRANCH  27  30
ATOM     30  N   UNL     1      -0.284  12.254  20.530  0.00  0.00    +0.000 NA
ATOM     31  C   UNL     1      -1.719  12.320  20.888  0.00  0.00    +0.000 C 
ATOM     32  C   UNL     1      -2.266  13.733  20.661  0.00  0.00    +0.000 C 
ATOM     33  O   UNL     1      -1.492  14.727  21.350  0.00  0.00    +0.000 OA
ATOM     34  C   UNL     1      -0.102  14.678  20.994  0.00  0.00    +0.000 C 
ATOM     35  C   UNL     1       0.496  13.293  21.241  0.00  0.00    +0.000 C 
ENDBRANCH  27  30
ENDBRANCH  24  27
ENDBRANCH  20  21
ENDBRANCH  19  20
ENDBRANCH   1  19
TORSDOF 11
ENDMDL
MODEL 4
REMARK VINA RESULT:      -7.7      2.422      9.779
REMARK  Name = 
REMARK  13 active torsions:
REMARK  status: ('A' for Active; 'I' for Inactive)
REMARK    1  A    between atoms: C_1  and  O_2
REMARK    2  A    between atoms: O_2  and  C_3
REMARK    3  A    between atoms: C_6  and  N_7
REMARK    4  A    between atoms: C_8  and  C_10
REMARK    5  A    between atoms: C_10  and  O_11
REMARK    6  A    between atoms: O_11  and  C_12
REMARK    7  A    between atoms: C_12  and  C_14
REMARK    8  A    between atoms: C_14  and  C_15
REMARK    9  A    between atoms: C_15  and  C_16
REMARK   10  A    between atoms: C_19  and  S_20
REMARK   11  A    between atoms: S_20  and  N_23
REMARK   12  A    between atoms: C_31  and  O_32
REMARK   13  A    between atoms: O_32  and  C_33
REMARK                            x       y       z     vdW  Elec       q    Type
REMARK                         _______ _______ _______ _____ _____    ______ ____
ROOT
ATOM      1  C   UNL     1       1.328   3.435  18.883  0.00  0.00    +0.000 C 
ATOM      2  O   UNL     1       1.043   3.835  17.761  0.00  0.00    +0.000 OA
ENDROOT
BRANCH   1   3
ATOM      3  O   UNL     1       1.923   2.240  19.152  0.00  0.00    +0.000 OA
BRANCH   3   4
ATOM      4  C   UNL     1       3.050   1.945  18.333  0.00  0.00    +0.000 C 
BRANCH   4   6
ATOM      5  N   UNL     1       4.118   3.850  17.275  0.00  0.00    +0.000 N 
ATOM      6  C   UNL     1       4.165   2.987  18.368  0.00  0.00    +0.000 C 
ATOM      7  O   UNL     1       5.013   2.996  19.257  0.00  0.00    +0.000 OA
ATOM      8  H   UNL     1       3.877   3.342  16.428  0.00  0.00    +0.000 HD
BRANCH   5  12
ATOM      9  C   UNL     1       7.202   6.670  16.849  0.00  0.00    +0.000 A 
ATOM     10  C   UNL     1       6.254   6.790  17.867  0.00  0.00    +0.000 A 
ATOM     11  C   UNL     1       5.247   5.841  18.009  0.00  0.00    +0.000 A 
ATOM     12  C   UNL     1       5.171   4.776  17.112  0.00  0.00    +0.000 A 
ATOM     13  C   UNL     1       6.122   4.628  16.088  0.00  0.00    +0.000 A 
ATOM     14  C   UNL     1       7.141   5.582  15.968  0.00  0.00    +0.000 A 
BRANCH   9  16
ATOM     15  C   UNL     1       8.154   8.554  17.944  0.00  0.00    +0.000 C 
ATOM     16  O   UNL     1       8.146   7.660  16.839  0.00  0.00    +0.000 OA
ENDBRANCH   9  16
BRANCH  13  17
ATOM     17  O   UNL     1       6.031   3.490  15.325  0.00  0.00    +0.000 OA
ATOM     18  C   UNL     1       6.008   3.664  13.913  0.00  0.00    +0.000 C 
ENDBRANCH  13  17
ENDBRANCH   5  12
ENDBRANCH   4   6
ENDBRANCH   3   4
ENDBRANCH   1   3
BRANCH   1  19
ATOM     19  C   UNL     1       1.194   4.244  20.151  0.00  0.00    +0.000 C 
BRANCH  19  20
ATOM     20  C   UNL     1       2.308   5.300  20.160  0.00  0.00    +0.000 C 
BRANCH  20  21
ATOM     21  C   UNL     1       1.813   6.721  20.103  0.00  0.00    +0.000 A 
ATOM     22  C   UNL     1       1.033   7.250  21.141  0.00  0.00    +0.000 A 
ATOM     23  C   UNL     1       0.618   8.587  21.101  0.00  0.00    +0.000 A 
ATOM     24  C   UNL     1       1.001   9.408  20.034  0.00  0.00    +0.000 A 
ATOM     25  C   UNL     1       1.747   8.875  18.979  0.00  0.00    +0.000 A 
ATOM     26  C   UNL     1       2.155   7.539  19.019  0.00  0.00    +0.000 A 
BRANCH  24  27
ATOM     27  S   UNL     1       0.372  11.077  19.907  0.00  0.00    +0.000 S 
ATOM     28  O   UNL     1      -0.607  11.230  20.964  0.00  0.00    +0.000 OA
ATOM     29  O   UNL     1       1.520  11.955  19.828  0.00  0.00    +0.000 OA
BRANCH  27  30
ATOM     30  N   UNL     1      -0.452  11.169  18.440  0.00  0.00    +0.000 NA
ATOM     31  C   UNL     1      -1.293  12.346  18.119  0.00  0.00    +0.000 C 
ATOM     32  C   UNL     1      -2.762  12.065  18.453  0.00  0.00    +0.000 C 
ATOM     33  O   UNL     1      -3.239  10.870  17.814  0.00  0.00    +0.000 OA
ATOM     34  C   UNL     1      -2.437   9.723  18.135  0.00  0.00    +0.000 C 
ATOM     35  C   UNL     1      -0.967   9.946  17.783  0.00  0.00    +0.000 C 
ENDBRANCH  27  30
ENDBRANCH  24  27
ENDBRANCH  20  21
ENDBRANCH  19  20
ENDBRANCH   1  19
TORSDOF 11
ENDMDL
MODEL 5
REMARK VINA RESULT:      -7.7      3.461      9.772
REMARK  Name = 
REMARK  13 active torsions:
REMARK  status: ('A' for Active; 'I' for Inactive)
REMARK    1  A    between atoms: C_1  and  O_2
REMARK    2  A    between atoms: O_2  and  C_3
REMARK    3  A    between atoms: C_6  and  N_7
REMARK    4  A    between atoms: C_8  and  C_10
REMARK    5  A    between atoms: C_10  and  O_11
REMARK    6  A    between atoms: O_11  and  C_12
REMARK    7  A    between atoms: C_12  and  C_14
REMARK    8  A    between atoms: C_14  and  C_15
REMARK    9  A    between atoms: C_15  and  C_16
REMARK   10  A    between atoms: C_19  and  S_20
REMARK   11  A    between atoms: S_20  and  N_23
REMARK   12  A    between atoms: C_31  and  O_32
REMARK   13  A    between atoms: O_32  and  C_33
REMARK                            x       y       z     vdW  Elec       q    Type
REMARK                         _______ _______ _______ _____ _____    ______ ____
ROOT
ATOM      1  C   UNL     1       1.348   3.477  18.751  0.00  0.00    +0.000 C 
ATOM      2  O   UNL     1       1.273   4.041  17.666  0.00  0.00    +0.000 OA
ENDROOT
BRANCH   1   3
ATOM      3  O   UNL     1       1.742   2.187  18.929  0.00  0.00    +0.000 OA
BRANCH   3   4
ATOM      4  C   UNL     1       3.009   1.873  18.359  0.00  0.00    +0.000 C 
BRANCH   4   6
ATOM      5  N   UNL     1       4.249   3.859  17.720  0.00  0.00    +0.000 N 
ATOM      6  C   UNL     1       4.126   2.861  18.685  0.00  0.00    +0.000 C 
ATOM      7  O   UNL     1       4.841   2.725  19.675  0.00  0.00    +0.000 OA
ATOM      8  H   UNL     1       4.121   3.473  16.788  0.00  0.00    +0.000 HD
BRANCH   5  12
ATOM      9  C   UNL     1       7.448   6.549  18.139  0.00  0.00    +0.000 A 
ATOM     10  C   UNL     1       6.870   5.939  19.255  0.00  0.00    +0.000 A 
ATOM     11  C   UNL     1       5.823   5.037  19.103  0.00  0.00    +0.000 A 
ATOM     12  C   UNL     1       5.331   4.760  17.828  0.00  0.00    +0.000 A 
ATOM     13  C   UNL     1       5.905   5.351  16.690  0.00  0.00    +0.000 A 
ATOM     14  C   UNL     1       6.972   6.244  16.857  0.00  0.00    +0.000 A 
BRANCH   9  16
ATOM     15  C   UNL     1       8.314   8.763  18.076  0.00  0.00    +0.000 C 
ATOM     16  O   UNL     1       8.482   7.397  18.431  0.00  0.00    +0.000 OA
ENDBRANCH   9  16
BRANCH  13  17
ATOM     17  O   UNL     1       5.428   4.932  15.472  0.00  0.00    +0.000 OA
ATOM     18  C   UNL     1       6.273   4.076  14.712  0.00  0.00    +0.000 C 
ENDBRANCH  13  17
ENDBRANCH   5  12
ENDBRANCH   4   6
ENDBRANCH   3   4
ENDBRANCH   1   3
BRANCH   1  19
ATOM     19  C   UNL     1       1.146   4.146  20.089  0.00  0.00    +0.000 C 
BRANCH  19  20
ATOM     20  C   UNL     1       2.318   5.110  20.320  0.00  0.00    +0.000 C 
BRANCH  20  21
ATOM     21  C   UNL     1       2.019   6.543  19.966  0.00  0.00    +0.000 A 
ATOM     22  C   UNL     1       2.441   7.081  18.743  0.00  0.00    +0.000 A 
ATOM     23  C   UNL     1       2.117   8.401  18.403  0.00  0.00    +0.000 A 
ATOM     24  C   UNL     1       1.347   9.180  19.275  0.00  0.00    +0.000 A 
ATOM     25  C   UNL     1       0.956   8.659  20.511  0.00  0.00    +0.000 A 
ATOM     26  C   UNL     1       1.286   7.345  20.850  0.00  0.00    +0.000 A 
BRANCH  24  27
ATOM     27  S   UNL     1       1.034  10.902  18.910  0.00  0.00    +0.000 S 
ATOM     28  O   UNL     1       2.182  11.380  18.165  0.00  0.00    +0.000 OA
ATOM     29  O   UNL     1      -0.298  10.980  18.350  0.00  0.00    +0.000 OA
BRANCH  27  30
ATOM     30  N   UNL     1       1.022  11.711  20.389  0.00  0.00    +0.000 NA
ATOM     31  C   UNL     1      -0.237  11.870  21.152  0.00  0.00    +0.000 C 
ATOM     32  C   UNL     1      -0.869  13.237  20.869  0.00  0.00    +0.000 C 
ATOM     33  O   UNL     1       0.049  14.315  21.112  0.00  0.00    +0.000 OA
ATOM     34  C   UNL     1       1.265  14.174  20.362  0.00  0.00    +0.000 C 
ATOM     35  C   UNL     1       1.950  12.837  20.643  0.00  0.00    +0.000 C 
ENDBRANCH  27  30
ENDBRANCH  24  27
ENDBRANCH  20  21
ENDBRANCH  19  20
ENDBRANCH   1  19
TORSDOF 11
ENDMDL
MODEL 6
REMARK VINA RESULT:      -7.6      3.629      9.787
REMARK  Name = 
REMARK  13 active torsions:
REMARK  status: ('A' for Active; 'I' for Inactive)
REMARK    1  A    between atoms: C_1  and  O_2
REMARK    2  A    between atoms: O_2  and  C_3
REMARK    3  A    between atoms: C_6  and  N_7
REMARK    4  A    between atoms: C_8  and  C_10
REMARK    5  A    between atoms: C_10  and  O_11
REMARK    6  A    between atoms: O_11  and  C_12
REMARK    7  A    between atoms: C_12  and  C_14
REMARK    8  A    between atoms: C_14  and  C_15
REMARK    9  A    between atoms: C_15  and  C_16
REMARK   10  A    between atoms: C_19  and  S_20
REMARK   11  A    between atoms: S_20  and  N_23
REMARK   12  A    between atoms: C_31  and  O_32
REMARK   13  A    between atoms: O_32  and  C_33
REMARK                            x       y       z     vdW  Elec       q    Type
REMARK                         _______ _______ _______ _____ _____    ______ ____
ROOT
ATOM      1  C   UNL     1       1.857   3.193  21.256  0.00  0.00    +0.000 C 
ATOM      2  O   UNL     1       1.548   2.920  22.409  0.00  0.00    +0.000 OA
ENDROOT
BRANCH   1   3
ATOM      3  O   UNL     1       2.590   2.389  20.438  0.00  0.00    +0.000 OA
BRANCH   3   4
ATOM      4  C   UNL     1       2.280   2.515  19.054  0.00  0.00    +0.000 C 
BRANCH   4   6
ATOM      5  N   UNL     1       3.939   4.009  18.101  0.00  0.00    +0.000 N 
ATOM      6  C   UNL     1       3.488   2.690  18.136  0.00  0.00    +0.000 C 
ATOM      7  O   UNL     1       3.946   1.755  17.485  0.00  0.00    +0.000 OA
ATOM      8  H   UNL     1       3.155   4.655  18.095  0.00  0.00    +0.000 HD
BRANCH   5  12
ATOM      9  C   UNL     1       6.929   4.954  15.306  0.00  0.00    +0.000 A 
ATOM     10  C   UNL     1       5.609   4.740  14.903  0.00  0.00    +0.000 A 
ATOM     11  C   UNL     1       4.624   4.445  15.839  0.00  0.00    +0.000 A 
ATOM     12  C   UNL     1       4.965   4.337  17.187  0.00  0.00    +0.000 A 
ATOM     13  C   UNL     1       6.283   4.560  17.617  0.00  0.00    +0.000 A 
ATOM     14  C   UNL     1       7.261   4.875  16.665  0.00  0.00    +0.000 A 
BRANCH   9  16
ATOM     15  C   UNL     1       7.407   4.845  12.979  0.00  0.00    +0.000 C 
ATOM     16  O   UNL     1       7.789   5.256  14.285  0.00  0.00    +0.000 OA
ENDBRANCH   9  16
BRANCH  13  17
ATOM     17  O   UNL     1       6.499   4.542  18.974  0.00  0.00    +0.000 OA
ATOM     18  C   UNL     1       7.305   5.584  19.509  0.00  0.00    +0.000 C 
ENDBRANCH  13  17
ENDBRANCH   5  12
ENDBRANCH   4   6
ENDBRANCH   3   4
ENDBRANCH   1   3
BRANCH   1  19
ATOM     19  C   UNL     1       1.371   4.402  20.493  0.00  0.00    +0.000 C 
BRANCH  19  20
ATOM     20  C   UNL     1       2.337   5.562  20.774  0.00  0.00    +0.000 C 
BRANCH  20  21
ATOM     21  C   UNL     1       1.756   6.927  20.514  0.00  0.00    +0.000 A 
ATOM     22  C   UNL     1       0.905   7.533  21.448  0.00  0.00    +0.000 A 
ATOM     23  C   UNL     1       0.409   8.823  21.218  0.00  0.00    +0.000 A 
ATOM     24  C   UNL     1       0.780   9.521  20.062  0.00  0.00    +0.000 A 
ATOM     25  C   UNL     1       1.599   8.905  19.111  0.00  0.00    +0.000 A 
ATOM     26  C   UNL     1       2.088   7.616  19.340  0.00  0.00    +0.000 A 
BRANCH  24  27
ATOM     27  S   UNL     1       0.054  11.112  19.696  0.00  0.00    +0.000 S 
ATOM     28  O   UNL     1      -0.080  11.182  18.254  0.00  0.00    +0.000 OA
ATOM     29  O   UNL     1      -1.101  11.257  20.555  0.00  0.00    +0.000 OA
BRANCH  27  30
ATOM     30  N   UNL     1       1.187  12.274  20.153  0.00  0.00    +0.000 NA
ATOM     31  C   UNL     1       0.894  13.223  21.251  0.00  0.00    +0.000 C 
ATOM     32  C   UNL     1       0.374  14.551  20.690  0.00  0.00    +0.000 C 
ATOM     33  O   UNL     1       1.269  15.111  19.716  0.00  0.00    +0.000 OA
ATOM     34  C   UNL     1       1.543  14.200  18.640  0.00  0.00    +0.000 C 
ATOM     35  C   UNL     1       2.101  12.873  19.153  0.00  0.00    +0.000 C 
ENDBRANCH  27  30
ENDBRANCH  24  27
ENDBRANCH  20  21
ENDBRANCH  19  20
ENDBRANCH   1  19
TORSDOF 11
ENDMDL
MODEL 7
REMARK VINA RESULT:      -7.5      3.244      9.664
REMARK  Name = 
REMARK  13 active torsions:
REMARK  status: ('A' for Active; 'I' for Inactive)
REMARK    1  A    between atoms: C_1  and  O_2
REMARK    2  A    between atoms: O_2  and  C_3
REMARK    3  A    between atoms: C_6  and  N_7
REMARK    4  A    between atoms: C_8  and  C_10
REMARK    5  A    between atoms: C_10  and  O_11
REMARK    6  A    between atoms: O_11  and  C_12
REMARK    7  A    between atoms: C_12  and  C_14
REMARK    8  A    between atoms: C_14  and  C_15
REMARK    9  A    between atoms: C_15  and  C_16
REMARK   10  A    between atoms: C_19  and  S_20
REMARK   11  A    between atoms: S_20  and  N_23
REMARK   12  A    between atoms: C_31  and  O_32
REMARK   13  A    between atoms: O_32  and  C_33
REMARK                            x       y       z     vdW  Elec       q    Type
REMARK                         _______ _______ _______ _____ _____    ______ ____
ROOT
ATOM      1  C   UNL     1       1.947   2.952  19.758  0.00  0.00    +0.000 C 
ATOM      2  O   UNL     1       0.734   3.112  19.713  0.00  0.00    +0.000 OA
ENDROOT
BRANCH   1   3
ATOM      3  O   UNL     1       2.610   1.892  19.218  0.00  0.00    +0.000 OA
BRANCH   3   4
ATOM      4  C   UNL     1       2.792   1.967  17.808  0.00  0.00    +0.000 C 
BRANCH   4   6
ATOM      5  N   UNL     1       4.899   3.165  17.684  0.00  0.00    +0.000 N 
ATOM      6  C   UNL     1       3.554   3.196  17.319  0.00  0.00    +0.000 C 
ATOM      7  O   UNL     1       2.993   4.108  16.717  0.00  0.00    +0.000 OA
ATOM      8  H   UNL     1       5.005   2.799  18.627  0.00  0.00    +0.000 HD
BRANCH   5  12
ATOM      9  C   UNL     1       7.209   6.598  16.965  0.00  0.00    +0.000 A 
ATOM     10  C   UNL     1       6.619   6.376  18.212  0.00  0.00    +0.000 A 
ATOM     11  C   UNL     1       5.871   5.228  18.444  0.00  0.00    +0.000 A 
ATOM     12  C   UNL     1       5.689   4.304  17.415  0.00  0.00    +0.000 A 
ATOM     13  C   UNL     1       6.283   4.499  16.157  0.00  0.00    +0.000 A 
ATOM     14  C   UNL     1       7.050   5.653  15.944  0.00  0.00    +0.000 A 
BRANCH   9  16
ATOM     15  C   UNL     1       8.088   8.506  18.080  0.00  0.00    +0.000 C 
ATOM     16  O   UNL     1       7.934   7.756  16.883  0.00  0.00    +0.000 OA
ENDBRANCH   9  16
BRANCH  13  17
ATOM     17  O   UNL     1       6.141   3.483  15.245  0.00  0.00    +0.000 OA
ATOM     18  C   UNL     1       5.933   3.862  13.890  0.00  0.00    +0.000 C 
ENDBRANCH  13  17
ENDBRANCH   5  12
ENDBRANCH   4   6
ENDBRANCH   3   4
ENDBRANCH   1   3
BRANCH   1  19
ATOM     19  C   UNL     1       2.933   3.959  20.299  0.00  0.00    +0.000 C 
BRANCH  19  20
ATOM     20  C   UNL     1       2.167   4.941  21.196  0.00  0.00    +0.000 C 
BRANCH  20  21
ATOM     21  C   UNL     1       1.888   6.275  20.554  0.00  0.00    +0.000 A 
ATOM     22  C   UNL     1       1.170   7.263  21.241  0.00  0.00    +0.000 A 
ATOM     23  C   UNL     1       0.957   8.517  20.654  0.00  0.00    +0.000 A 
ATOM     24  C   UNL     1       1.483   8.796  19.386  0.00  0.00    +0.000 A 
ATOM     25  C   UNL     1       2.168   7.801  18.684  0.00  0.00    +0.000 A 
ATOM     26  C   UNL     1       2.374   6.549  19.269  0.00  0.00    +0.000 A 
BRANCH  24  27
ATOM     27  S   UNL     1       1.110  10.344  18.575  0.00  0.00    +0.000 S 
ATOM     28  O   UNL     1       2.358  10.829  18.019  0.00  0.00    +0.000 OA
ATOM     29  O   UNL     1      -0.037  10.110  17.725  0.00  0.00    +0.000 OA
BRANCH  27  30
ATOM     30  N   UNL     1       0.647  11.422  19.785  0.00  0.00    +0.000 NA
ATOM     31  C   UNL     1      -0.735  11.954  19.833  0.00  0.00    +0.000 C 
ATOM     32  C   UNL     1      -0.807  13.327  19.158  0.00  0.00    +0.000 C 
ATOM     33  O   UNL     1       0.147  14.249  19.711  0.00  0.00    +0.000 OA
ATOM     34  C   UNL     1       1.490  13.745  19.651  0.00  0.00    +0.000 C 
ATOM     35  C   UNL     1       1.616  12.390  20.347  0.00  0.00    +0.000 C 
ENDBRANCH  27  30
ENDBRANCH  24  27
ENDBRANCH  20  21
ENDBRANCH  19  20
ENDBRANCH   1  19
TORSDOF 11
ENDMDL
MODEL 8
REMARK VINA RESULT:      -7.4      6.419     10.480
REMARK  Name = 
REMARK  13 active torsions:
REMARK  status: ('A' for Active; 'I' for Inactive)
REMARK    1  A    between atoms: C_1  and  O_2
REMARK    2  A    between atoms: O_2  and  C_3
REMARK    3  A    between atoms: C_6  and  N_7
REMARK    4  A    between atoms: C_8  and  C_10
REMARK    5  A    between atoms: C_10  and  O_11
REMARK    6  A    between atoms: O_11  and  C_12
REMARK    7  A    between atoms: C_12  and  C_14
REMARK    8  A    between atoms: C_14  and  C_15
REMARK    9  A    between atoms: C_15  and  C_16
REMARK   10  A    between atoms: C_19  and  S_20
REMARK   11  A    between atoms: S_20  and  N_23
REMARK   12  A    between atoms: C_31  and  O_32
REMARK   13  A    between atoms: O_32  and  C_33
REMARK                            x       y       z     vdW  Elec       q    Type
REMARK                         _______ _______ _______ _____ _____    ______ ____
ROOT
ATOM      1  C   UNL     1       7.048   7.192  17.095  0.00  0.00    +0.000 C 
ATOM      2  O   UNL     1       6.210   6.813  16.286  0.00  0.00    +0.000 OA
ENDROOT
BRANCH   1   3
ATOM      3  O   UNL     1       8.077   6.431  17.560  0.00  0.00    +0.000 OA
BRANCH   3   4
ATOM      4  C   UNL     1       7.750   5.061  17.770  0.00  0.00    +0.000 C 
BRANCH   4   6
ATOM      5  N   UNL     1       5.556   4.070  18.079  0.00  0.00    +0.000 N 
ATOM      6  C   UNL     1       6.559   4.817  18.694  0.00  0.00    +0.000 C 
ATOM      7  O   UNL     1       6.515   5.285  19.829  0.00  0.00    +0.000 OA
ATOM      8  H   UNL     1       5.441   4.355  17.110  0.00  0.00    +0.000 HD
BRANCH   5  12
ATOM      9  C   UNL     1       1.973   3.435  20.177  0.00  0.00    +0.000 A 
ATOM     10  C   UNL     1       3.101   2.648  20.425  0.00  0.00    +0.000 A 
ATOM     11  C   UNL     1       4.287   2.878  19.737  0.00  0.00    +0.000 A 
ATOM     12  C   UNL     1       4.341   3.887  18.775  0.00  0.00    +0.000 A 
ATOM     13  C   UNL     1       3.223   4.699  18.518  0.00  0.00    +0.000 A 
ATOM     14  C   UNL     1       2.041   4.467  19.232  0.00  0.00    +0.000 A 
BRANCH   9  16
ATOM     15  C   UNL     1       1.121   2.348  22.114  0.00  0.00    +0.000 C 
ATOM     16  O   UNL     1       0.883   3.113  20.939  0.00  0.00    +0.000 OA
ENDBRANCH   9  16
BRANCH  13  17
ATOM     17  O   UNL     1       3.406   5.735  17.635  0.00  0.00    +0.000 OA
ATOM     18  C   UNL     1       3.184   7.049  18.133  0.00  0.00    +0.000 C 
ENDBRANCH  13  17
ENDBRANCH   5  12
ENDBRANCH   4   6
ENDBRANCH   3   4
ENDBRANCH   1   3
BRANCH   1  19
ATOM     19  C   UNL     1       7.170   8.603  17.618  0.00  0.00    +0.000 C 
BRANCH  19  20
ATOM     20  C   UNL     1       8.446   8.687  18.467  0.00  0.00    +0.000 C 
BRANCH  20  21
ATOM     21  C   UNL     1       8.983  10.084  18.639  0.00  0.00    +0.000 A 
ATOM     22  C   UNL     1       8.644  11.098  17.733  0.00  0.00    +0.000 A 
ATOM     23  C   UNL     1       9.110  12.404  17.929  0.00  0.00    +0.000 A 
ATOM     24  C   UNL     1       9.897  12.707  19.047  0.00  0.00    +0.000 A 
ATOM     25  C   UNL     1      10.268  11.691  19.932  0.00  0.00    +0.000 A 
ATOM     26  C   UNL     1       9.806  10.388  19.731  0.00  0.00    +0.000 A 
BRANCH  24  27
ATOM     27  S   UNL     1      10.602  14.338  19.239  0.00  0.00    +0.000 S 
ATOM     28  O   UNL     1      11.949  14.148  19.739  0.00  0.00    +0.000 OA
ATOM     29  O   UNL     1      10.365  15.050  18.002  0.00  0.00    +0.000 OA
BRANCH  27  30
ATOM     30  N   UNL     1       9.718  15.103  20.454  0.00  0.00    +0.000 NA
ATOM     31  C   UNL     1      10.068  14.908  21.879  0.00  0.00    +0.000 C 
ATOM     32  C   UNL     1       9.194  13.816  22.504  0.00  0.00    +0.000 C 
ATOM     33  O   UNL     1       7.793  14.080  22.323  0.00  0.00    +0.000 OA
ATOM     34  C   UNL     1       7.446  14.253  20.940  0.00  0.00    +0.000 C 
ATOM     35  C   UNL     1       8.270  15.362  20.286  0.00  0.00    +0.000 C 
ENDBRANCH  27  30
ENDBRANCH  24  27
ENDBRANCH  20  21
ENDBRANCH  19  20
ENDBRANCH   1  19
TORSDOF 11
ENDMDL
MODEL 9
REMARK VINA RESULT:      -7.2      5.297      6.979
REMARK  Name = 
REMARK  13 active torsions:
REMARK  status: ('A' for Active; 'I' for Inactive)
REMARK    1  A    between atoms: C_1  and  O_2
REMARK    2  A    between atoms: O_2  and  C_3
REMARK    3  A    between atoms: C_6  and  N_7
REMARK    4  A    between atoms: C_8  and  C_10
REMARK    5  A    between atoms: C_10  and  O_11
REMARK    6  A    between atoms: O_11  and  C_12
REMARK    7  A    between atoms: C_12  and  C_14
REMARK    8  A    between atoms: C_14  and  C_15
REMARK    9  A    between atoms: C_15  and  C_16
REMARK   10  A    between atoms: C_19  and  S_20
REMARK   11  A    between atoms: S_20  and  N_23
REMARK   12  A    between atoms: C_31  and  O_32
REMARK   13  A    between atoms: O_32  and  C_33
REMARK                            x       y       z     vdW  Elec       q    Type
REMARK                         _______ _______ _______ _____ _____    ______ ____
ROOT
ATOM      1  C   UNL     1       1.072  12.018  20.965  0.00  0.00    +0.000 C 
ATOM      2  O   UNL     1       0.368  11.523  21.836  0.00  0.00    +0.000 OA
ENDROOT
BRANCH   1   3
ATOM      3  O   UNL     1       2.059  12.927  21.190  0.00  0.00    +0.000 OA
BRANCH   3   4
ATOM      4  C   UNL     1       2.293  13.824  20.108  0.00  0.00    +0.000 C 
BRANCH   4   6
ATOM      5  N   UNL     1       3.982  14.998  18.821  0.00  0.00    +0.000 N 
ATOM      6  C   UNL     1       3.697  14.422  20.057  0.00  0.00    +0.000 C 
ATOM      7  O   UNL     1       4.470  14.338  21.008  0.00  0.00    +0.000 OA
ATOM      8  H   UNL     1       3.606  14.430  18.066  0.00  0.00    +0.000 HD
BRANCH   5  12
ATOM      9  C   UNL     1       7.916  16.295  18.125  0.00  0.00    +0.000 A 
ATOM     10  C   UNL     1       7.504  15.015  17.750  0.00  0.00    +0.000 A 
ATOM     11  C   UNL     1       6.195  14.602  17.969  0.00  0.00    +0.000 A 
ATOM     12  C   UNL     1       5.295  15.466  18.592  0.00  0.00    +0.000 A 
ATOM     13  C   UNL     1       5.683  16.764  18.967  0.00  0.00    +0.000 A 
ATOM     14  C   UNL     1       7.001  17.172  18.722  0.00  0.00    +0.000 A 
BRANCH   9  16
ATOM     15  C   UNL     1      10.213  15.937  18.626  0.00  0.00    +0.000 C 
ATOM     16  O   UNL     1       9.223  16.576  17.831  0.00  0.00    +0.000 OA
ENDBRANCH   9  16
BRANCH  13  17
ATOM     17  O   UNL     1       4.699  17.579  19.470  0.00  0.00    +0.000 OA
ATOM     18  C   UNL     1       4.888  18.072  20.791  0.00  0.00    +0.000 C 
ENDBRANCH  13  17
ENDBRANCH   5  12
ENDBRANCH   4   6
ENDBRANCH   3   4
ENDBRANCH   1   3
BRANCH   1  19
ATOM     19  C   UNL     1       1.064  11.611  19.511  0.00  0.00    +0.000 C 
BRANCH  19  20
ATOM     20  C   UNL     1       0.337  10.263  19.398  0.00  0.00    +0.000 C 
BRANCH  20  21
ATOM     21  C   UNL     1       1.243   9.095  19.110  0.00  0.00    +0.000 A 
ATOM     22  C   UNL     1       1.924   9.001  17.889  0.00  0.00    +0.000 A 
ATOM     23  C   UNL     1       2.801   7.935  17.650  0.00  0.00    +0.000 A 
ATOM     24  C   UNL     1       3.019   6.971  18.642  0.00  0.00    +0.000 A 
ATOM     25  C   UNL     1       2.313   7.041  19.846  0.00  0.00    +0.000 A 
ATOM     26  C   UNL     1       1.435   8.102  20.079  0.00  0.00    +0.000 A 
BRANCH  24  27
ATOM     27  S   UNL     1       4.034   5.540  18.303  0.00  0.00    +0.000 S 
ATOM     28  O   UNL     1       4.486   5.042  19.587  0.00  0.00    +0.000 OA
ATOM     29  O   UNL     1       3.283   4.692  17.402  0.00  0.00    +0.000 OA
BRANCH  27  30
ATOM     30  N   UNL     1       5.392   6.100  17.475  0.00  0.00    +0.000 NA
ATOM     31  C   UNL     1       5.517   5.905  16.012  0.00  0.00    +0.000 C 
ATOM     32  C   UNL     1       6.356   4.660  15.705  0.00  0.00    +0.000 C 
ATOM     33  O   UNL     1       7.636   4.699  16.356  0.00  0.00    +0.000 OA
ATOM     34  C   UNL     1       7.519   4.871  17.777  0.00  0.00    +0.000 C 
ATOM     35  C   UNL     1       6.720   6.126  18.130  0.00  0.00    +0.000 C 
ENDBRANCH  27  30
ENDBRANCH  24  27
ENDBRANCH  20  21
ENDBRANCH  19  20
ENDBRANCH   1  19
TORSDOF 11
ENDMDL
