MODEL 1
REMARK VINA RESULT:      -7.5      0.000      0.000
REMARK  Name = 
REMARK  9 active torsions:
REMARK  status: ('A' for Active; 'I' for Inactive)
REMARK    1  A    between atoms: C_1  and  C_2
REMARK    2  A    between atoms: C_5  and  N_6
REMARK    3  A    between atoms: N_9  and  C_10
REMARK    4  A    between atoms: C_10  and  C_11
REMARK    5  A    between atoms: C_11  and  O_12
REMARK    6  A    between atoms: O_12  and  C_13
REMARK    7  A    between atoms: N_15  and  C_16
REMARK    8  A    between atoms: C_16  and  N_17
REMARK    9  A    between atoms: C_16  and  C_24
REMARK                            x       y       z     vdW  Elec       q    Type
REMARK                         _______ _______ _______ _____ _____    ______ ____
ROOT
ATOM      1  C   UNL     1       4.612   4.670  16.695  0.00  0.00    +0.000 C 
ATOM      2  O   UNL     1       3.526   4.300  16.275  0.00  0.00    +0.000 OA
ATOM      3  N   UNL     1       5.685   3.834  16.802  0.00  0.00    +0.000 N 
ATOM      4  H   UNL     1       5.615   3.288  17.647  0.00  0.00    +0.000 HD
ENDROOT
BRANCH   1   5
ATOM      5  O   UNL     1       4.812   5.841  17.357  0.00  0.00    +0.000 OA
BRANCH   5   6
ATOM      6  C   UNL     1       3.753   6.170  18.279  0.00  0.00    +0.000 C 
BRANCH   6   7
ATOM      7  C   UNL     1       4.025   5.458  19.609  0.00  0.00    +0.000 C 
BRANCH   7  13
ATOM      8  C   UNL     1       1.368   6.398  20.789  0.00  0.00    +0.000 C 
ATOM      9  C   UNL     1       1.744   4.980  20.543  0.00  0.00    +0.000 A 
ATOM     10  N   UNL     1       0.948   3.947  20.737  0.00  0.00    +0.000 NA
ATOM     11  C   UNL     1       1.660   2.838  20.369  0.00  0.00    +0.000 A 
ATOM     12  C   UNL     1       2.918   3.197  19.958  0.00  0.00    +0.000 A 
ATOM     13  N   UNL     1       2.976   4.567  20.060  0.00  0.00    +0.000 N 
BRANCH  12  14
ATOM     14  N   UNL     1       3.952   2.339  19.498  0.00  0.00    +0.000 N 
ATOM     15  O   UNL     1       3.774   1.788  18.402  0.00  0.00    +0.000 OA
ATOM     16  O   UNL     1       4.949   2.196  20.216  0.00  0.00    +0.000 OA
ENDBRANCH  12  14
ENDBRANCH   7  13
ENDBRANCH   6   7
ENDBRANCH   5   6
ENDBRANCH   1   5
BRANCH   3  17
ATOM     17  C   UNL     1       7.042   4.327  16.677  0.00  0.00    +0.000 C 
BRANCH  17  18
ATOM     18  N   UNL     1       6.888   5.343  15.640  0.00  0.00    +0.000 N 
ATOM     19  C   UNL     1       6.934   4.825  14.351  0.00  0.00    +0.000 A 
ATOM     20  N   UNL     1       6.351   3.650  14.084  0.00  0.00    +0.000 NA
ATOM     21  C   UNL     1       6.386   3.224  12.807  0.00  0.00    +0.000 A 
ATOM     22  C   UNL     1       6.988   3.924  11.793  0.00  0.00    +0.000 A 
ATOM     23  C   UNL     1       7.566   5.110  12.171  0.00  0.00    +0.000 A 
ATOM     24  N   UNL     1       7.553   5.578  13.436  0.00  0.00    +0.000 NA
ATOM     25  H   UNL     1       7.591   6.078  15.664  0.00  0.00    +0.000 HD
ENDBRANCH  17  18
BRANCH  17  26
ATOM     26  C   UNL     1       7.623   4.853  18.042  0.00  0.00    +0.000 C 
ATOM     27  F   UNL     1       6.792   4.498  19.059  0.00  0.00    +0.000 F 
ATOM     28  F   UNL     1       8.822   4.277  18.310  0.00  0.00    +0.000 F 
ATOM     29 CL   UNL     1       7.824   6.626  18.050  0.00  0.00    +0.000 Cl
ENDBRANCH  17  26
ENDBRANCH   3  17
TORSDOF 8
ENDMDL
MODEL 2
REMARK VINA RESULT:      -7.4      1.706      2.119
REMARK  Name = 
REMARK  9 active torsions:
REMARK  status: ('A' for Active; 'I' for Inactive)
REMARK    1  A    between atoms: C_1  and  C_2
REMARK    2  A    between atoms: C_5  and  N_6
REMARK    3  A    between atoms: N_9  and  C_10
REMARK    4  A    between atoms: C_10  and  C_11
REMARK    5  A    between atoms: C_11  and  O_12
REMARK    6  A    between atoms: O_12  and  C_13
REMARK    7  A    between atoms: N_15  and  C_16
REMARK    8  A    between atoms: C_16  and  N_17
REMARK    9  A    between atoms: C_16  and  C_24
REMARK                            x       y       z     vdW  Elec       q    Type
REMARK                         _______ _______ _______ _____ _____    ______ ____
ROOT
ATOM      1  C   UNL     1       3.938   5.087  17.345  0.00  0.00    +0.000 C 
ATOM      2  O   UNL     1       2.979   5.574  17.924  0.00  0.00    +0.000 OA
ATOM      3  N   UNL     1       4.851   5.841  16.668  0.00  0.00    +0.000 N 
ATOM      4  H   UNL     1       4.496   6.073  15.752  0.00  0.00    +0.000 HD
ENDROOT
BRANCH   1   5
ATOM      5  O   UNL     1       4.065   3.763  17.063  0.00  0.00    +0.000 OA
BRANCH   5   6
ATOM      6  C   UNL     1       2.802   3.076  16.948  0.00  0.00    +0.000 C 
BRANCH   6   7
ATOM      7  C   UNL     1       2.751   1.966  18.005  0.00  0.00    +0.000 C 
BRANCH   7  13
ATOM      8  C   UNL     1      -0.009   2.619  19.141  0.00  0.00    +0.000 C 
ATOM      9  C   UNL     1       1.265   2.659  19.906  0.00  0.00    +0.000 A 
ATOM     10  N   UNL     1       1.359   2.914  21.197  0.00  0.00    +0.000 NA
ATOM     11  C   UNL     1       2.689   2.830  21.510  0.00  0.00    +0.000 A 
ATOM     12  C   UNL     1       3.421   2.534  20.390  0.00  0.00    +0.000 A 
ATOM     13  N   UNL     1       2.517   2.416  19.362  0.00  0.00    +0.000 N 
BRANCH  12  14
ATOM     14  N   UNL     1       4.828   2.360  20.302  0.00  0.00    +0.000 N 
ATOM     15  O   UNL     1       5.292   1.311  20.774  0.00  0.00    +0.000 OA
ATOM     16  O   UNL     1       5.491   3.258  19.769  0.00  0.00    +0.000 OA
ENDBRANCH  12  14
ENDBRANCH   7  13
ENDBRANCH   6   7
ENDBRANCH   5   6
ENDBRANCH   1   5
BRANCH   3  17
ATOM     17  C   UNL     1       6.232   5.422  16.539  0.00  0.00    +0.000 C 
BRANCH  17  18
ATOM     18  N   UNL     1       6.604   6.032  15.266  0.00  0.00    +0.000 N 
ATOM     19  C   UNL     1       6.587   5.138  14.202  0.00  0.00    +0.000 A 
ATOM     20  N   UNL     1       5.626   4.210  14.127  0.00  0.00    +0.000 NA
ATOM     21  C   UNL     1       5.635   3.404  13.048  0.00  0.00    +0.000 A 
ATOM     22  C   UNL     1       6.571   3.488  12.049  0.00  0.00    +0.000 A 
ATOM     23  C   UNL     1       7.520   4.464  12.225  0.00  0.00    +0.000 A 
ATOM     24  N   UNL     1       7.549   5.295  13.287  0.00  0.00    +0.000 NA
ATOM     25  H   UNL     1       7.530   6.452  15.255  0.00  0.00    +0.000 HD
ENDBRANCH  17  18
BRANCH  17  26
ATOM     26  C   UNL     1       7.114   5.859  17.768  0.00  0.00    +0.000 C 
ATOM     27  F   UNL     1       7.845   6.958  17.439  0.00  0.00    +0.000 F 
ATOM     28  F   UNL     1       6.334   6.220  18.817  0.00  0.00    +0.000 F 
ATOM     29 CL   UNL     1       8.221   4.563  18.297  0.00  0.00    +0.000 Cl
ENDBRANCH  17  26
ENDBRANCH   3  17
TORSDOF 8
ENDMDL
MODEL 3
REMARK VINA RESULT:      -7.3      2.355      3.209
REMARK  Name = 
REMARK  9 active torsions:
REMARK  status: ('A' for Active; 'I' for Inactive)
REMARK    1  A    between atoms: C_1  and  C_2
REMARK    2  A    between atoms: C_5  and  N_6
REMARK    3  A    between atoms: N_9  and  C_10
REMARK    4  A    between atoms: C_10  and  C_11
REMARK    5  A    between atoms: C_11  and  O_12
REMARK    6  A    between atoms: O_12  and  C_13
REMARK    7  A    between atoms: N_15  and  C_16
REMARK    8  A    between atoms: C_16  and  N_17
REMARK    9  A    between atoms: C_16  and  C_24
REMARK                            x       y       z     vdW  Elec       q    Type
REMARK                         _______ _______ _______ _____ _____    ______ ____
ROOT
ATOM      1  C   UNL     1       7.196   5.005  18.446  0.00  0.00    +0.000 C 
ATOM      2  O   UNL     1       8.083   4.885  19.276  0.00  0.00    +0.000 OA
ATOM      3  N   UNL     1       6.996   6.156  17.742  0.00  0.00    +0.000 N 
ATOM      4  H   UNL     1       6.476   6.816  18.300  0.00  0.00    +0.000 HD
ENDROOT
BRANCH   1   5
ATOM      5  O   UNL     1       6.150   4.145  18.321  0.00  0.00    +0.000 OA
BRANCH   5   6
ATOM      6  C   UNL     1       5.125   4.336  19.317  0.00  0.00    +0.000 C 
BRANCH   6   7
ATOM      7  C   UNL     1       4.413   2.998  19.548  0.00  0.00    +0.000 C 
BRANCH   7  13
ATOM      8  C   UNL     1       3.224   2.406  16.797  0.00  0.00    +0.000 C 
ATOM      9  C   UNL     1       2.439   2.672  18.031  0.00  0.00    +0.000 A 
ATOM     10  N   UNL     1       1.124   2.616  18.112  0.00  0.00    +0.000 NA
ATOM     11  C   UNL     1       0.806   2.898  19.413  0.00  0.00    +0.000 A 
ATOM     12  C   UNL     1       1.945   3.145  20.136  0.00  0.00    +0.000 A 
ATOM     13  N   UNL     1       2.993   2.995  19.260  0.00  0.00    +0.000 N 
BRANCH  12  14
ATOM     14  N   UNL     1       2.035   3.470  21.516  0.00  0.00    +0.000 N 
ATOM     15  O   UNL     1       1.782   2.562  22.321  0.00  0.00    +0.000 OA
ATOM     16  O   UNL     1       2.352   4.627  21.819  0.00  0.00    +0.000 OA
ENDBRANCH  12  14
ENDBRANCH   7  13
ENDBRANCH   6   7
ENDBRANCH   5   6
ENDBRANCH   1   5
BRANCH   3  17
ATOM     17  C   UNL     1       6.438   6.138  16.404  0.00  0.00    +0.000 C 
BRANCH  17  18
ATOM     18  N   UNL     1       6.681   4.754  16.008  0.00  0.00    +0.000 N 
ATOM     19  C   UNL     1       6.844   4.594  14.637  0.00  0.00    +0.000 A 
ATOM     20  N   UNL     1       7.520   5.512  13.936  0.00  0.00    +0.000 NA
ATOM     21  C   UNL     1       7.687   5.278  12.620  0.00  0.00    +0.000 A 
ATOM     22  C   UNL     1       7.196   4.168  11.981  0.00  0.00    +0.000 A 
ATOM     23  C   UNL     1       6.507   3.294  12.785  0.00  0.00    +0.000 A 
ATOM     24  N   UNL     1       6.318   3.485  14.107  0.00  0.00    +0.000 NA
ATOM     25  H   UNL     1       5.943   4.105  16.272  0.00  0.00    +0.000 HD
ENDBRANCH  17  18
BRANCH  17  26
ATOM     26  C   UNL     1       4.930   6.584  16.371  0.00  0.00    +0.000 C 
ATOM     27  F   UNL     1       4.676   7.255  15.215  0.00  0.00    +0.000 F 
ATOM     28  F   UNL     1       4.107   5.506  16.375  0.00  0.00    +0.000 F 
ATOM     29 CL   UNL     1       4.507   7.633  17.753  0.00  0.00    +0.000 Cl
ENDBRANCH  17  26
ENDBRANCH   3  17
TORSDOF 8
ENDMDL
MODEL 4
REMARK VINA RESULT:      -7.2      3.784      5.650
REMARK  Name = 
REMARK  9 active torsions:
REMARK  status: ('A' for Active; 'I' for Inactive)
REMARK    1  A    between atoms: C_1  and  C_2
REMARK    2  A    between atoms: C_5  and  N_6
REMARK    3  A    between atoms: N_9  and  C_10
REMARK    4  A    between atoms: C_10  and  C_11
REMARK    5  A    between atoms: C_11  and  O_12
REMARK    6  A    between atoms: O_12  and  C_13
REMARK    7  A    between atoms: N_15  and  C_16
REMARK    8  A    between atoms: C_16  and  N_17
REMARK    9  A    between atoms: C_16  and  C_24
REMARK                            x       y       z     vdW  Elec       q    Type
REMARK                         _______ _______ _______ _____ _____    ______ ____
ROOT
ATOM      1  C   UNL     1       1.958   3.658  20.774  0.00  0.00    +0.000 C 
ATOM      2  O   UNL     1       1.001   3.148  21.334  0.00  0.00    +0.000 OA
ATOM      3  N   UNL     1       2.855   2.936  20.043  0.00  0.00    +0.000 N 
ATOM      4  H   UNL     1       3.528   2.498  20.655  0.00  0.00    +0.000 HD
ENDROOT
BRANCH   1   5
ATOM      5  O   UNL     1       2.407   4.916  21.027  0.00  0.00    +0.000 OA
BRANCH   5   6
ATOM      6  C   UNL     1       1.525   5.950  20.544  0.00  0.00    +0.000 C 
BRANCH   6   7
ATOM      7  C   UNL     1       2.315   7.261  20.450  0.00  0.00    +0.000 C 
BRANCH   7  13
ATOM      8  C   UNL     1       2.427   8.378  17.608  0.00  0.00    +0.000 C 
ATOM      9  C   UNL     1       1.554   8.891  18.698  0.00  0.00    +0.000 A 
ATOM     10  N   UNL     1       0.662   9.851  18.557  0.00  0.00    +0.000 NA
ATOM     11  C   UNL     1       0.061  10.001  19.777  0.00  0.00    +0.000 A 
ATOM     12  C   UNL     1       0.606   9.127  20.684  0.00  0.00    +0.000 A 
ATOM     13  N   UNL     1       1.556   8.410  19.998  0.00  0.00    +0.000 N 
BRANCH  12  14
ATOM     14  N   UNL     1       0.252   8.973  22.050  0.00  0.00    +0.000 N 
ATOM     15  O   UNL     1      -0.770   8.314  22.292  0.00  0.00    +0.000 OA
ATOM     16  O   UNL     1       0.977   9.503  22.901  0.00  0.00    +0.000 OA
ENDBRANCH  12  14
ENDBRANCH   7  13
ENDBRANCH   6   7
ENDBRANCH   5   6
ENDBRANCH   1   5
BRANCH   3  17
ATOM     17  C   UNL     1       3.560   3.520  18.919  0.00  0.00    +0.000 C 
BRANCH  17  18
ATOM     18  N   UNL     1       4.891   3.722  19.485  0.00  0.00    +0.000 N 
ATOM     19  C   UNL     1       5.629   4.695  18.820  0.00  0.00    +0.000 A 
ATOM     20  N   UNL     1       5.025   5.805  18.381  0.00  0.00    +0.000 NA
ATOM     21  C   UNL     1       5.802   6.732  17.788  0.00  0.00    +0.000 A 
ATOM     22  C   UNL     1       7.154   6.585  17.612  0.00  0.00    +0.000 A 
ATOM     23  C   UNL     1       7.676   5.407  18.087  0.00  0.00    +0.000 A 
ATOM     24  N   UNL     1       6.938   4.452  18.690  0.00  0.00    +0.000 NA
ATOM     25  H   UNL     1       5.476   2.891  19.489  0.00  0.00    +0.000 HD
ENDBRANCH  17  18
BRANCH  17  26
ATOM     26  C   UNL     1       3.514   2.609  17.637  0.00  0.00    +0.000 C 
ATOM     27  F   UNL     1       3.995   1.372  17.937  0.00  0.00    +0.000 F 
ATOM     28  F   UNL     1       2.236   2.430  17.217  0.00  0.00    +0.000 F 
ATOM     29 CL   UNL     1       4.469   3.291  16.291  0.00  0.00    +0.000 Cl
ENDBRANCH  17  26
ENDBRANCH   3  17
TORSDOF 8
ENDMDL
MODEL 5
REMARK VINA RESULT:      -7.2      4.062      5.803
REMARK  Name = 
REMARK  9 active torsions:
REMARK  status: ('A' for Active; 'I' for Inactive)
REMARK    1  A    between atoms: C_1  and  C_2
REMARK    2  A    between atoms: C_5  and  N_6
REMARK    3  A    between atoms: N_9  and  C_10
REMARK    4  A    between atoms: C_10  and  C_11
REMARK    5  A    between atoms: C_11  and  O_12
REMARK    6  A    between atoms: O_12  and  C_13
REMARK    7  A    between atoms: N_15  and  C_16
REMARK    8  A    between atoms: C_16  and  N_17
REMARK    9  A    between atoms: C_16  and  C_24
REMARK                            x       y       z     vdW  Elec       q    Type
REMARK                         _______ _______ _______ _____ _____    ______ ____
ROOT
ATOM      1  C   UNL     1       1.922   4.036  20.633  0.00  0.00    +0.000 C 
ATOM      2  O   UNL     1       0.948   3.582  21.215  0.00  0.00    +0.000 OA
ATOM      3  N   UNL     1       2.829   3.246  19.989  0.00  0.00    +0.000 N 
ATOM      4  H   UNL     1       3.484   2.861  20.652  0.00  0.00    +0.000 HD
ENDROOT
BRANCH   1   5
ATOM      5  O   UNL     1       2.374   5.309  20.785  0.00  0.00    +0.000 OA
BRANCH   5   6
ATOM      6  C   UNL     1       1.413   6.312  20.398  0.00  0.00    +0.000 C 
BRANCH   6   7
ATOM      7  C   UNL     1       2.039   7.696  20.607  0.00  0.00    +0.000 C 
BRANCH   7  13
ATOM      8  C   UNL     1       2.138   8.784  17.754  0.00  0.00    +0.000 C 
ATOM      9  C   UNL     1       1.238   9.278  18.830  0.00  0.00    +0.000 A 
ATOM     10  N   UNL     1       0.314  10.206  18.671  0.00  0.00    +0.000 NA
ATOM     11  C   UNL     1      -0.302  10.347  19.884  0.00  0.00    +0.000 A 
ATOM     12  C   UNL     1       0.265   9.504  20.805  0.00  0.00    +0.000 A 
ATOM     13  N   UNL     1       1.245   8.812  20.136  0.00  0.00    +0.000 N 
BRANCH  12  14
ATOM     14  N   UNL     1      -0.096   9.352  22.171  0.00  0.00    +0.000 N 
ATOM     15  O   UNL     1       0.412  10.148  22.974  0.00  0.00    +0.000 OA
ATOM     16  O   UNL     1      -0.881   8.442  22.465  0.00  0.00    +0.000 OA
ENDBRANCH  12  14
ENDBRANCH   7  13
ENDBRANCH   6   7
ENDBRANCH   5   6
ENDBRANCH   1   5
BRANCH   3  17
ATOM     17  C   UNL     1       3.562   3.725  18.835  0.00  0.00    +0.000 C 
BRANCH  17  18
ATOM     18  N   UNL     1       4.855   4.054  19.428  0.00  0.00    +0.000 N 
ATOM     19  C   UNL     1       5.577   4.987  18.692  0.00  0.00    +0.000 A 
ATOM     20  N   UNL     1       4.942   6.012  18.112  0.00  0.00    +0.000 NA
ATOM     21  C   UNL     1       5.702   6.909  17.454  0.00  0.00    +0.000 A 
ATOM     22  C   UNL     1       7.066   6.814  17.350  0.00  0.00    +0.000 A 
ATOM     23  C   UNL     1       7.619   5.721  17.969  0.00  0.00    +0.000 A 
ATOM     24  N   UNL     1       6.900   4.799  18.642  0.00  0.00    +0.000 NA
ATOM     25  H   UNL     1       5.478   3.258  19.546  0.00  0.00    +0.000 HD
ENDBRANCH  17  18
BRANCH  17  26
ATOM     26  C   UNL     1       3.615   2.667  17.670  0.00  0.00    +0.000 C 
ATOM     27  F   UNL     1       2.433   2.672  16.995  0.00  0.00    +0.000 F 
ATOM     28  F   UNL     1       4.572   2.992  16.766  0.00  0.00    +0.000 F 
ATOM     29 CL   UNL     1       3.931   1.017  18.273  0.00  0.00    +0.000 Cl
ENDBRANCH  17  26
ENDBRANCH   3  17
TORSDOF 8
ENDMDL
MODEL 6
REMARK VINA RESULT:      -7.1      1.969      2.839
REMARK  Name = 
REMARK  9 active torsions:
REMARK  status: ('A' for Active; 'I' for Inactive)
REMARK    1  A    between atoms: C_1  and  C_2
REMARK    2  A    between atoms: C_5  and  N_6
REMARK    3  A    between atoms: N_9  and  C_10
REMARK    4  A    between atoms: C_10  and  C_11
REMARK    5  A    between atoms: C_11  and  O_12
REMARK    6  A    between atoms: O_12  and  C_13
REMARK    7  A    between atoms: N_15  and  C_16
REMARK    8  A    between atoms: C_16  and  N_17
REMARK    9  A    between atoms: C_16  and  C_24
REMARK                            x       y       z     vdW  Elec       q    Type
REMARK                         _______ _______ _______ _____ _____    ______ ____
ROOT
ATOM      1  C   UNL     1       3.561   6.448  18.019  0.00  0.00    +0.000 C 
ATOM      2  O   UNL     1       2.971   7.249  18.730  0.00  0.00    +0.000 OA
ATOM      3  N   UNL     1       4.711   6.760  17.356  0.00  0.00    +0.000 N 
ATOM      4  H   UNL     1       4.495   7.259  16.506  0.00  0.00    +0.000 HD
ENDROOT
BRANCH   1   5
ATOM      5  O   UNL     1       3.022   5.280  17.580  0.00  0.00    +0.000 OA
BRANCH   5   6
ATOM      6  C   UNL     1       1.753   4.965  18.190  0.00  0.00    +0.000 C 
BRANCH   6   7
ATOM      7  C   UNL     1       1.669   3.447  18.388  0.00  0.00    +0.000 C 
BRANCH   7  13
ATOM      8  C   UNL     1       4.077   2.022  17.162  0.00  0.00    +0.000 C 
ATOM      9  C   UNL     1       3.872   2.265  18.614  0.00  0.00    +0.000 A 
ATOM     10  N   UNL     1       4.741   1.957  19.558  0.00  0.00    +0.000 NA
ATOM     11  C   UNL     1       4.185   2.366  20.740  0.00  0.00    +0.000 A 
ATOM     12  C   UNL     1       2.950   2.917  20.518  0.00  0.00    +0.000 A 
ATOM     13  N   UNL     1       2.747   2.863  19.160  0.00  0.00    +0.000 N 
BRANCH  12  14
ATOM     14  N   UNL     1       2.062   3.459  21.485  0.00  0.00    +0.000 N 
ATOM     15  O   UNL     1       2.056   4.692  21.609  0.00  0.00    +0.000 OA
ATOM     16  O   UNL     1       1.362   2.672  22.135  0.00  0.00    +0.000 OA
ENDBRANCH  12  14
ENDBRANCH   7  13
ENDBRANCH   6   7
ENDBRANCH   5   6
ENDBRANCH   1   5
BRANCH   3  17
ATOM     17  C   UNL     1       5.711   5.754  17.063  0.00  0.00    +0.000 C 
BRANCH  17  18
ATOM     18  N   UNL     1       6.325   6.297  15.855  0.00  0.00    +0.000 N 
ATOM     19  C   UNL     1       6.369   5.389  14.803  0.00  0.00    +0.000 A 
ATOM     20  N   UNL     1       5.337   4.564  14.593  0.00  0.00    +0.000 NA
ATOM     21  C   UNL     1       5.417   3.741  13.530  0.00  0.00    +0.000 A 
ATOM     22  C   UNL     1       6.491   3.708  12.678  0.00  0.00    +0.000 A 
ATOM     23  C   UNL     1       7.502   4.584  12.987  0.00  0.00    +0.000 A 
ATOM     24  N   UNL     1       7.464   5.428  14.038  0.00  0.00    +0.000 NA
ATOM     25  H   UNL     1       7.282   6.618  15.978  0.00  0.00    +0.000 HD
ENDBRANCH  17  18
BRANCH  17  26
ATOM     26  C   UNL     1       6.701   5.518  18.263  0.00  0.00    +0.000 C 
ATOM     27  F   UNL     1       7.252   6.703  18.642  0.00  0.00    +0.000 F 
ATOM     28  F   UNL     1       6.040   5.040  19.348  0.00  0.00    +0.000 F 
ATOM     29 CL   UNL     1       8.010   4.379  17.844  0.00  0.00    +0.000 Cl
ENDBRANCH  17  26
ENDBRANCH   3  17
TORSDOF 8
ENDMDL
MODEL 7
REMARK VINA RESULT:      -7.1      3.993      6.007
REMARK  Name = 
REMARK  9 active torsions:
REMARK  status: ('A' for Active; 'I' for Inactive)
REMARK    1  A    between atoms: C_1  and  C_2
REMARK    2  A    between atoms: C_5  and  N_6
REMARK    3  A    between atoms: N_9  and  C_10
REMARK    4  A    between atoms: C_10  and  C_11
REMARK    5  A    between atoms: C_11  and  O_12
REMARK    6  A    between atoms: O_12  and  C_13
REMARK    7  A    between atoms: N_15  and  C_16
REMARK    8  A    between atoms: C_16  and  N_17
REMARK    9  A    between atoms: C_16  and  C_24
REMARK                            x       y       z     vdW  Elec       q    Type
REMARK                         _______ _______ _______ _____ _____    ______ ____
ROOT
ATOM      1  C   UNL     1       2.571   3.932  21.022  0.00  0.00    +0.000 C 
ATOM      2  O   UNL     1       2.078   3.419  22.015  0.00  0.00    +0.000 OA
ATOM      3  N   UNL     1       3.173   3.203  20.039  0.00  0.00    +0.000 N 
ATOM      4  H   UNL     1       4.117   2.970  20.310  0.00  0.00    +0.000 HD
ENDROOT
BRANCH   1   5
ATOM      5  O   UNL     1       2.834   5.260  20.903  0.00  0.00    +0.000 OA
BRANCH   5   6
ATOM      6  C   UNL     1       1.701   6.035  20.460  0.00  0.00    +0.000 C 
BRANCH   6   7
ATOM      7  C   UNL     1       1.968   7.512  20.769  0.00  0.00    +0.000 C 
BRANCH   7  13
ATOM      8  C   UNL     1       3.149   7.050  17.989  0.00  0.00    +0.000 C 
ATOM      9  C   UNL     1       2.277   8.192  18.372  0.00  0.00    +0.000 A 
ATOM     10  N   UNL     1       1.843   9.118  17.539  0.00  0.00    +0.000 NA
ATOM     11  C   UNL     1       1.057   9.961  18.277  0.00  0.00    +0.000 A 
ATOM     12  C   UNL     1       1.024   9.554  19.586  0.00  0.00    +0.000 A 
ATOM     13  N   UNL     1       1.796   8.419  19.652  0.00  0.00    +0.000 N 
BRANCH  12  14
ATOM     14  N   UNL     1       0.319  10.161  20.659  0.00  0.00    +0.000 N 
ATOM     15  O   UNL     1       0.994  10.801  21.479  0.00  0.00    +0.000 OA
ATOM     16  O   UNL     1      -0.908  10.010  20.706  0.00  0.00    +0.000 OA
ENDBRANCH  12  14
ENDBRANCH   7  13
ENDBRANCH   6   7
ENDBRANCH   5   6
ENDBRANCH   1   5
BRANCH   3  17
ATOM     17  C   UNL     1       3.183   3.654  18.662  0.00  0.00    +0.000 C 
BRANCH  17  18
ATOM     18  N   UNL     1       4.443   3.095  18.182  0.00  0.00    +0.000 N 
ATOM     19  C   UNL     1       5.505   3.988  18.258  0.00  0.00    +0.000 A 
ATOM     20  N   UNL     1       5.612   4.807  19.310  0.00  0.00    +0.000 NA
ATOM     21  C   UNL     1       6.690   5.615  19.351  0.00  0.00    +0.000 A 
ATOM     22  C   UNL     1       7.654   5.639  18.377  0.00  0.00    +0.000 A 
ATOM     23  C   UNL     1       7.446   4.771  17.334  0.00  0.00    +0.000 A 
ATOM     24  N   UNL     1       6.386   3.941  17.252  0.00  0.00    +0.000 NA
ATOM     25  H   UNL     1       4.421   2.778  17.215  0.00  0.00    +0.000 HD
ENDBRANCH  17  18
BRANCH  17  26
ATOM     26  C   UNL     1       1.905   3.193  17.866  0.00  0.00    +0.000 C 
ATOM     27  F   UNL     1       1.337   4.267  17.252  0.00  0.00    +0.000 F 
ATOM     28  F   UNL     1       2.238   2.323  16.880  0.00  0.00    +0.000 F 
ATOM     29 CL   UNL     1       0.693   2.422  18.926  0.00  0.00    +0.000 Cl
ENDBRANCH  17  26
ENDBRANCH   3  17
TORSDOF 8
ENDMDL
MODEL 8
REMARK VINA RESULT:      -7.1      3.762      5.679
REMARK  Name = 
REMARK  9 active torsions:
REMARK  status: ('A' for Active; 'I' for Inactive)
REMARK    1  A    between atoms: C_1  and  C_2
REMARK    2  A    between atoms: C_5  and  N_6
REMARK    3  A    between atoms: N_9  and  C_10
REMARK    4  A    between atoms: C_10  and  C_11
REMARK    5  A    between atoms: C_11  and  O_12
REMARK    6  A    between atoms: O_12  and  C_13
REMARK    7  A    between atoms: N_15  and  C_16
REMARK    8  A    between atoms: C_16  and  N_17
REMARK    9  A    between atoms: C_16  and  C_24
REMARK                            x       y       z     vdW  Elec       q    Type
REMARK                         _______ _______ _______ _____ _____    ______ ____
ROOT
ATOM      1  C   UNL     1       1.572   4.644  20.086  0.00  0.00    +0.000 C 
ATOM      2  O   UNL     1       0.505   4.263  20.544  0.00  0.00    +0.000 OA
ATOM      3  N   UNL     1       2.550   3.783  19.684  0.00  0.00    +0.000 N 
ATOM      4  H   UNL     1       3.079   3.463  20.482  0.00  0.00    +0.000 HD
ENDROOT
BRANCH   1   5
ATOM      5  O   UNL     1       2.027   5.922  20.179  0.00  0.00    +0.000 OA
BRANCH   5   6
ATOM      6  C   UNL     1       1.187   6.775  20.984  0.00  0.00    +0.000 C 
BRANCH   6   7
ATOM      7  C   UNL     1       1.741   8.203  20.924  0.00  0.00    +0.000 C 
BRANCH   7  13
ATOM      8  C   UNL     1      -0.449   9.539  22.583  0.00  0.00    +0.000 C 
ATOM      9  C   UNL     1      -0.133   9.855  21.164  0.00  0.00    +0.000 A 
ATOM     10  N   UNL     1      -0.714  10.807  20.459  0.00  0.00    +0.000 NA
ATOM     11  C   UNL     1      -0.125  10.786  19.225  0.00  0.00    +0.000 A 
ATOM     12  C   UNL     1       0.821   9.794  19.169  0.00  0.00    +0.000 A 
ATOM     13  N   UNL     1       0.826   9.201  20.408  0.00  0.00    +0.000 N 
BRANCH  12  14
ATOM     14  N   UNL     1       1.650   9.456  18.065  0.00  0.00    +0.000 N 
ATOM     15  O   UNL     1       2.333  10.369  17.579  0.00  0.00    +0.000 OA
ATOM     16  O   UNL     1       1.631   8.286  17.664  0.00  0.00    +0.000 OA
ENDBRANCH  12  14
ENDBRANCH   7  13
ENDBRANCH   6   7
ENDBRANCH   5   6
ENDBRANCH   1   5
BRANCH   3  17
ATOM     17  C   UNL     1       3.474   4.131  18.623  0.00  0.00    +0.000 C 
BRANCH  17  18
ATOM     18  N   UNL     1       4.688   4.425  19.379  0.00  0.00    +0.000 N 
ATOM     19  C   UNL     1       5.577   5.246  18.696  0.00  0.00    +0.000 A 
ATOM     20  N   UNL     1       5.112   6.258  17.954  0.00  0.00    +0.000 NA
ATOM     21  C   UNL     1       6.024   7.048  17.355  0.00  0.00    +0.000 A 
ATOM     22  C   UNL     1       7.378   6.859  17.465  0.00  0.00    +0.000 A 
ATOM     23  C   UNL     1       7.752   5.787  18.238  0.00  0.00    +0.000 A 
ATOM     24  N   UNL     1       6.875   4.971  18.859  0.00  0.00    +0.000 NA
ATOM     25  H   UNL     1       5.225   3.604  19.647  0.00  0.00    +0.000 HD
ENDBRANCH  17  18
BRANCH  17  26
ATOM     26  C   UNL     1       3.619   2.989  17.550  0.00  0.00    +0.000 C 
ATOM     27  F   UNL     1       2.572   3.041  16.682  0.00  0.00    +0.000 F 
ATOM     28  F   UNL     1       4.740   3.165  16.806  0.00  0.00    +0.000 F 
ATOM     29 CL   UNL     1       3.676   1.367  18.294  0.00  0.00    +0.000 Cl
ENDBRANCH  17  26
ENDBRANCH   3  17
TORSDOF 8
ENDMDL
MODEL 9
REMARK VINA RESULT:      -7.1      3.844      5.641
REMARK  Name = 
REMARK  9 active torsions:
REMARK  status: ('A' for Active; 'I' for Inactive)
REMARK    1  A    between atoms: C_1  and  C_2
REMARK    2  A    between atoms: C_5  and  N_6
REMARK    3  A    between atoms: N_9  and  C_10
REMARK    4  A    between atoms: C_10  and  C_11
REMARK    5  A    between atoms: C_11  and  O_12
REMARK    6  A    between atoms: O_12  and  C_13
REMARK    7  A    between atoms: N_15  and  C_16
REMARK    8  A    between atoms: C_16  and  N_17
REMARK    9  A    between atoms: C_16  and  C_24
REMARK                            x       y       z     vdW  Elec       q    Type
REMARK                         _______ _______ _______ _____ _____    ______ ____
ROOT
ATOM      1  C   UNL     1       2.564   4.687  20.613  0.00  0.00    +0.000 C 
ATOM      2  O   UNL     1       2.206   4.293  21.713  0.00  0.00    +0.000 OA
ATOM      3  N   UNL     1       3.377   3.955  19.798  0.00  0.00    +0.000 N 
ATOM      4  H   UNL     1       4.339   4.064  20.081  0.00  0.00    +0.000 HD
ENDROOT
BRANCH   1   5
ATOM      5  O   UNL     1       2.446   5.973  20.190  0.00  0.00    +0.000 OA
BRANCH   5   6
ATOM      6  C   UNL     1       1.347   6.681  20.799  0.00  0.00    +0.000 C 
BRANCH   6   7
ATOM      7  C   UNL     1       1.752   8.149  20.981  0.00  0.00    +0.000 C 
BRANCH   7  13
ATOM      8  C   UNL     1      -0.486   9.407  22.638  0.00  0.00    +0.000 C 
ATOM      9  C   UNL     1      -0.175   9.740  21.222  0.00  0.00    +0.000 A 
ATOM     10  N   UNL     1      -0.783  10.676  20.520  0.00  0.00    +0.000 NA
ATOM     11  C   UNL     1      -0.188  10.679  19.287  0.00  0.00    +0.000 A 
ATOM     12  C   UNL     1       0.789   9.719  19.230  0.00  0.00    +0.000 A 
ATOM     13  N   UNL     1       0.807   9.119  20.467  0.00  0.00    +0.000 N 
BRANCH  12  14
ATOM     14  N   UNL     1       1.631   9.412  18.128  0.00  0.00    +0.000 N 
ATOM     15  O   UNL     1       1.595   8.247  17.705  0.00  0.00    +0.000 OA
ATOM     16  O   UNL     1       2.341  10.316  17.672  0.00  0.00    +0.000 OA
ENDBRANCH  12  14
ENDBRANCH   7  13
ENDBRANCH   6   7
ENDBRANCH   5   6
ENDBRANCH   1   5
BRANCH   3  17
ATOM     17  C   UNL     1       3.300   4.068  18.355  0.00  0.00    +0.000 C 
BRANCH  17  18
ATOM     18  N   UNL     1       4.587   3.511  17.951  0.00  0.00    +0.000 N 
ATOM     19  C   UNL     1       5.508   4.476  17.562  0.00  0.00    +0.000 A 
ATOM     20  N   UNL     1       5.575   5.637  18.224  0.00  0.00    +0.000 NA
ATOM     21  C   UNL     1       6.520   6.513  17.831  0.00  0.00    +0.000 A 
ATOM     22  C   UNL     1       7.390   6.275  16.799  0.00  0.00    +0.000 A 
ATOM     23  C   UNL     1       7.231   5.061  16.176  0.00  0.00    +0.000 A 
ATOM     24  N   UNL     1       6.302   4.152  16.537  0.00  0.00    +0.000 NA
ATOM     25  H   UNL     1       4.536   2.854  17.176  0.00  0.00    +0.000 HD
ENDBRANCH  17  18
BRANCH  17  26
ATOM     26  C   UNL     1       2.041   3.337  17.757  0.00  0.00    +0.000 C 
ATOM     27  F   UNL     1       1.044   4.239  17.548  0.00  0.00    +0.000 F 
ATOM     28  F   UNL     1       2.327   2.797  16.546  0.00  0.00    +0.000 F 
ATOM     29 CL   UNL     1       1.438   2.045  18.832  0.00  0.00    +0.000 Cl
ENDBRANCH  17  26
ENDBRANCH   3  17
TORSDOF 8
ENDMDL
