MODEL 1
REMARK VINA RESULT:      -7.9      0.000      0.000
REMARK  Name = 
REMARK  5 active torsions:
REMARK  status: ('A' for Active; 'I' for Inactive)
REMARK    1  A    between atoms: C_1  and  C_2
REMARK    2  A    between atoms: C_6  and  N_7
REMARK    3  A    between atoms: C_12  and  C_13
REMARK    4  A    between atoms: C_19  and  C_20
REMARK    5  A    between atoms: C_21  and  C_22
REMARK                            x       y       z     vdW  Elec       q    Type
REMARK                         _______ _______ _______ _____ _____    ______ ____
ROOT
ATOM      1  N   UNL     1       7.150   5.067  15.657  0.00  0.00    +0.000 N 
ATOM      2  C   UNL     1       8.042   4.512  16.558  0.00  0.00    +0.000 A 
ATOM      3  N   UNL     1       7.611   4.569  17.793  0.00  0.00    +0.000 NA
ATOM      4  C   UNL     1       6.402   5.187  17.700  0.00  0.00    +0.000 A 
ATOM      5  C   UNL     1       5.420   5.301  18.674  0.00  0.00    +0.000 A 
ATOM      6  C   UNL     1       4.224   5.965  18.370  0.00  0.00    +0.000 A 
ATOM      7  C   UNL     1       4.177   6.749  17.224  0.00  0.00    +0.000 A 
ATOM      8  C   UNL     1       5.118   6.581  16.183  0.00  0.00    +0.000 A 
ATOM      9  C   UNL     1       6.165   5.684  16.419  0.00  0.00    +0.000 A 
ENDROOT
BRANCH   6  10
ATOM     10  C   UNL     1       3.112   5.698  19.325  0.00  0.00    +0.000 C 
ATOM     11  O   UNL     1       2.518   6.699  19.734  0.00  0.00    +0.000 OA
ATOM     12  N   UNL     1       3.017   4.450  20.005  0.00  0.00    +0.000 N 
ATOM     13  C   UNL     1       2.281   4.581  21.279  0.00  0.00    +0.000 C 
ATOM     14  C   UNL     1       0.769   4.618  21.006  0.00  0.00    +0.000 C 
ATOM     15  O   UNL     1       0.354   3.409  20.355  0.00  0.00    +0.000 OA
ATOM     16  C   UNL     1       1.050   3.182  19.098  0.00  0.00    +0.000 C 
ATOM     17  C   UNL     1       0.498   1.842  18.614  0.00  0.00    +0.000 C 
ATOM     18  C   UNL     1       2.576   3.178  19.343  0.00  0.00    +0.000 C 
BRANCH  18  19
ATOM     19  C   UNL     1       3.436   2.657  18.189  0.00  0.00    +0.000 C 
ATOM     20  N   UNL     1       4.245   1.576  18.487  0.00  0.00    +0.000 N 
ATOM     21  O   UNL     1       3.416   3.083  17.030  0.00  0.00    +0.000 OA
ATOM     22  H   UNL     1       4.529   1.444  19.447  0.00  0.00    +0.000 HD
ATOM     23  H   UNL     1       4.906   1.334  17.769  0.00  0.00    +0.000 HD
ENDBRANCH  18  19
ENDBRANCH   6  10
BRANCH   1  29
ATOM     24  C   UNL     1       5.391   2.480  11.857  0.00  0.00    +0.000 C 
ATOM     25  C   UNL     1       6.250   3.602  12.356  0.00  0.00    +0.000 A 
ATOM     26  C   UNL     1       7.021   4.388  11.497  0.00  0.00    +0.000 A 
ATOM     27  C   UNL     1       7.869   5.372  12.014  0.00  0.00    +0.000 A 
ATOM     28  C   UNL     1       7.980   5.566  13.396  0.00  0.00    +0.000 A 
ATOM     29  C   UNL     1       7.194   4.797  14.261  0.00  0.00    +0.000 A 
ATOM     30  C   UNL     1       6.325   3.829  13.732  0.00  0.00    +0.000 A 
ENDBRANCH   1  29
TORSDOF 3
ENDMDL
MODEL 2
REMARK VINA RESULT:      -7.6      4.493      8.175
REMARK  Name = 
REMARK  5 active torsions:
REMARK  status: ('A' for Active; 'I' for Inactive)
REMARK    1  A    between atoms: C_1  and  C_2
REMARK    2  A    between atoms: C_6  and  N_7
REMARK    3  A    between atoms: C_12  and  C_13
REMARK    4  A    between atoms: C_19  and  C_20
REMARK    5  A    between atoms: C_21  and  C_22
REMARK                            x       y       z     vdW  Elec       q    Type
REMARK                         _______ _______ _______ _____ _____    ______ ____
ROOT
ATOM      1  N   UNL     1       0.858  10.088  19.204  0.00  0.00    +0.000 N 
ATOM      2  C   UNL     1       1.472  10.420  18.009  0.00  0.00    +0.000 A 
ATOM      3  N   UNL     1       2.207   9.447  17.533  0.00  0.00    +0.000 NA
ATOM      4  C   UNL     1       2.076   8.448  18.448  0.00  0.00    +0.000 A 
ATOM      5  C   UNL     1       2.461   7.119  18.328  0.00  0.00    +0.000 A 
ATOM      6  C   UNL     1       2.217   6.235  19.386  0.00  0.00    +0.000 A 
ATOM      7  C   UNL     1       1.885   6.766  20.627  0.00  0.00    +0.000 A 
ATOM      8  C   UNL     1       1.405   8.088  20.753  0.00  0.00    +0.000 A 
ATOM      9  C   UNL     1       1.404   8.871  19.594  0.00  0.00    +0.000 A 
ENDROOT
BRANCH   6  10
ATOM     10  C   UNL     1       2.305   4.794  19.018  0.00  0.00    +0.000 C 
ATOM     11  O   UNL     1       1.222   4.221  18.871  0.00  0.00    +0.000 OA
ATOM     12  N   UNL     1       3.511   4.061  19.218  0.00  0.00    +0.000 N 
ATOM     13  C   UNL     1       3.247   2.617  19.376  0.00  0.00    +0.000 C 
ATOM     14  C   UNL     1       3.013   1.975  18.000  0.00  0.00    +0.000 C 
ATOM     15  O   UNL     1       4.170   2.146  17.171  0.00  0.00    +0.000 OA
ATOM     16  C   UNL     1       4.522   3.543  16.980  0.00  0.00    +0.000 C 
ATOM     17  C   UNL     1       5.787   3.486  16.125  0.00  0.00    +0.000 C 
ATOM     18  C   UNL     1       4.727   4.220  18.355  0.00  0.00    +0.000 C 
BRANCH  18  19
ATOM     19  C   UNL     1       5.391   5.599  18.329  0.00  0.00    +0.000 C 
ATOM     20  N   UNL     1       6.350   5.819  19.299  0.00  0.00    +0.000 N 
ATOM     21  O   UNL     1       5.177   6.481  17.492  0.00  0.00    +0.000 OA
ATOM     22  H   UNL     1       6.294   5.287  20.155  0.00  0.00    +0.000 HD
ATOM     23  H   UNL     1       6.675   6.768  19.362  0.00  0.00    +0.000 HD
ENDBRANCH  18  19
ENDBRANCH   6  10
BRANCH   1  29
ATOM     24  C   UNL     1      -1.240  12.341  23.046  0.00  0.00    +0.000 C 
ATOM     25  C   UNL     1      -1.262  12.012  21.583  0.00  0.00    +0.000 A 
ATOM     26  C   UNL     1      -2.299  12.421  20.743  0.00  0.00    +0.000 A 
ATOM     27  C   UNL     1      -2.319  12.024  19.403  0.00  0.00    +0.000 A 
ATOM     28  C   UNL     1      -1.317  11.191  18.889  0.00  0.00    +0.000 A 
ATOM     29  C   UNL     1      -0.264  10.797  19.720  0.00  0.00    +0.000 A 
ATOM     30  C   UNL     1      -0.237  11.221  21.058  0.00  0.00    +0.000 A 
ENDBRANCH   1  29
TORSDOF 3
ENDMDL
MODEL 3
REMARK VINA RESULT:      -7.3      4.857      8.135
REMARK  Name = 
REMARK  5 active torsions:
REMARK  status: ('A' for Active; 'I' for Inactive)
REMARK    1  A    between atoms: C_1  and  C_2
REMARK    2  A    between atoms: C_6  and  N_7
REMARK    3  A    between atoms: C_12  and  C_13
REMARK    4  A    between atoms: C_19  and  C_20
REMARK    5  A    between atoms: C_21  and  C_22
REMARK                            x       y       z     vdW  Elec       q    Type
REMARK                         _______ _______ _______ _____ _____    ______ ____
ROOT
ATOM      1  N   UNL     1       0.551  10.447  20.210  0.00  0.00    +0.000 N 
ATOM      2  C   UNL     1       0.561   9.881  21.473  0.00  0.00    +0.000 A 
ATOM      3  N   UNL     1       1.148   8.711  21.496  0.00  0.00    +0.000 NA
ATOM      4  C   UNL     1       1.528   8.500  20.207  0.00  0.00    +0.000 A 
ATOM      5  C   UNL     1       2.383   7.523  19.713  0.00  0.00    +0.000 A 
ATOM      6  C   UNL     1       2.667   7.487  18.342  0.00  0.00    +0.000 A 
ATOM      7  C   UNL     1       1.859   8.219  17.481  0.00  0.00    +0.000 A 
ATOM      8  C   UNL     1       1.051   9.277  17.956  0.00  0.00    +0.000 A 
ATOM      9  C   UNL     1       1.008   9.463  19.342  0.00  0.00    +0.000 A 
ENDROOT
BRANCH   6  10
ATOM     10  C   UNL     1       3.864   6.676  17.982  0.00  0.00    +0.000 C 
ATOM     11  O   UNL     1       4.902   7.320  17.808  0.00  0.00    +0.000 OA
ATOM     12  N   UNL     1       3.724   5.346  17.491  0.00  0.00    +0.000 N 
ATOM     13  C   UNL     1       4.878   4.952  16.657  0.00  0.00    +0.000 C 
ATOM     14  C   UNL     1       6.063   4.563  17.554  0.00  0.00    +0.000 C 
ATOM     15  O   UNL     1       5.704   3.460  18.396  0.00  0.00    +0.000 OA
ATOM     16  C   UNL     1       4.555   3.748  19.240  0.00  0.00    +0.000 C 
ATOM     17  C   UNL     1       4.325   2.443  20.000  0.00  0.00    +0.000 C 
ATOM     18  C   UNL     1       3.360   4.178  18.360  0.00  0.00    +0.000 C 
BRANCH  18  19
ATOM     19  C   UNL     1       1.998   4.226  19.059  0.00  0.00    +0.000 C 
ATOM     20  N   UNL     1       0.934   3.729  18.329  0.00  0.00    +0.000 N 
ATOM     21  O   UNL     1       1.799   4.611  20.215  0.00  0.00    +0.000 OA
ATOM     22  H   UNL     1       1.001   3.738  17.322  0.00  0.00    +0.000 HD
ATOM     23  H   UNL     1       0.031   3.894  18.737  0.00  0.00    +0.000 HD
ENDBRANCH  18  19
ENDBRANCH   6  10
BRANCH   1  29
ATOM     24  C   UNL     1       2.311  14.731  18.542  0.00  0.00    +0.000 C 
ATOM     25  C   UNL     1       1.151  13.936  19.060  0.00  0.00    +0.000 A 
ATOM     26  C   UNL     1      -0.108  14.504  19.266  0.00  0.00    +0.000 A 
ATOM     27  C   UNL     1      -1.140  13.745  19.826  0.00  0.00    +0.000 A 
ATOM     28  C   UNL     1      -0.922  12.417  20.211  0.00  0.00    +0.000 A 
ATOM     29  C   UNL     1       0.330  11.835  19.986  0.00  0.00    +0.000 A 
ATOM     30  C   UNL     1       1.353  12.597  19.400  0.00  0.00    +0.000 A 
ENDBRANCH   1  29
TORSDOF 3
ENDMDL
MODEL 4
REMARK VINA RESULT:      -7.3      9.069     11.769
REMARK  Name = 
REMARK  5 active torsions:
REMARK  status: ('A' for Active; 'I' for Inactive)
REMARK    1  A    between atoms: C_1  and  C_2
REMARK    2  A    between atoms: C_6  and  N_7
REMARK    3  A    between atoms: C_12  and  C_13
REMARK    4  A    between atoms: C_19  and  C_20
REMARK    5  A    between atoms: C_21  and  C_22
REMARK                            x       y       z     vdW  Elec       q    Type
REMARK                         _______ _______ _______ _____ _____    ______ ____
ROOT
ATOM      1  N   UNL     1       0.659  10.036  21.420  0.00  0.00    +0.000 N 
ATOM      2  C   UNL     1       0.652   9.434  22.667  0.00  0.00    +0.000 A 
ATOM      3  N   UNL     1      -0.213   9.980  23.484  0.00  0.00    +0.000 NA
ATOM      4  C   UNL     1      -0.786  10.974  22.754  0.00  0.00    +0.000 A 
ATOM      5  C   UNL     1      -1.918  11.718  23.056  0.00  0.00    +0.000 A 
ATOM      6  C   UNL     1      -2.363  12.692  22.153  0.00  0.00    +0.000 A 
ATOM      7  C   UNL     1      -1.500  13.099  21.143  0.00  0.00    +0.000 A 
ATOM      8  C   UNL     1      -0.394  12.307  20.762  0.00  0.00    +0.000 A 
ATOM      9  C   UNL     1      -0.139  11.168  21.533  0.00  0.00    +0.000 A 
ENDROOT
BRANCH   6  10
ATOM     10  C   UNL     1      -3.764  13.146  22.377  0.00  0.00    +0.000 C 
ATOM     11  O   UNL     1      -4.598  12.243  22.489  0.00  0.00    +0.000 OA
ATOM     12  N   UNL     1      -4.155  14.484  22.082  0.00  0.00    +0.000 N 
ATOM     13  C   UNL     1      -5.599  14.575  21.788  0.00  0.00    +0.000 C 
ATOM     14  C   UNL     1      -6.400  14.565  23.100  0.00  0.00    +0.000 C 
ATOM     15  O   UNL     1      -6.023  15.681  23.918  0.00  0.00    +0.000 OA
ATOM     16  C   UNL     1      -4.605  15.689  24.237  0.00  0.00    +0.000 C 
ATOM     17  C   UNL     1      -4.424  16.966  25.057  0.00  0.00    +0.000 C 
ATOM     18  C   UNL     1      -3.778  15.662  22.932  0.00  0.00    +0.000 C 
BRANCH  18  19
ATOM     19  C   UNL     1      -2.286  15.969  23.079  0.00  0.00    +0.000 C 
ATOM     20  N   UNL     1      -1.772  16.886  22.182  0.00  0.00    +0.000 N 
ATOM     21  O   UNL     1      -1.543  15.512  23.954  0.00  0.00    +0.000 OA
ATOM     22  H   UNL     1      -2.240  16.997  21.294  0.00  0.00    +0.000 HD
ATOM     23  H   UNL     1      -0.771  16.973  22.194  0.00  0.00    +0.000 HD
ENDBRANCH  18  19
ENDBRANCH   6  10
BRANCH   1  29
ATOM     24  C   UNL     1       2.894   6.108  19.469  0.00  0.00    +0.000 C 
ATOM     25  C   UNL     1       2.212   7.427  19.267  0.00  0.00    +0.000 A 
ATOM     26  C   UNL     1       2.065   8.003  18.003  0.00  0.00    +0.000 A 
ATOM     27  C   UNL     1       1.493   9.272  17.870  0.00  0.00    +0.000 A 
ATOM     28  C   UNL     1       1.084   9.994  18.998  0.00  0.00    +0.000 A 
ATOM     29  C   UNL     1       1.207   9.413  20.264  0.00  0.00    +0.000 A 
ATOM     30  C   UNL     1       1.759   8.128  20.387  0.00  0.00    +0.000 A 
ENDBRANCH   1  29
TORSDOF 3
ENDMDL
MODEL 5
REMARK VINA RESULT:      -7.2      4.504      7.900
REMARK  Name = 
REMARK  5 active torsions:
REMARK  status: ('A' for Active; 'I' for Inactive)
REMARK    1  A    between atoms: C_1  and  C_2
REMARK    2  A    between atoms: C_6  and  N_7
REMARK    3  A    between atoms: C_12  and  C_13
REMARK    4  A    between atoms: C_19  and  C_20
REMARK    5  A    between atoms: C_21  and  C_22
REMARK                            x       y       z     vdW  Elec       q    Type
REMARK                         _______ _______ _______ _____ _____    ______ ____
ROOT
ATOM      1  N   UNL     1       1.036  10.166  19.085  0.00  0.00    +0.000 N 
ATOM      2  C   UNL     1       1.691  10.395  17.887  0.00  0.00    +0.000 A 
ATOM      3  N   UNL     1       2.385   9.360  17.486  0.00  0.00    +0.000 NA
ATOM      4  C   UNL     1       2.185   8.425  18.455  0.00  0.00    +0.000 A 
ATOM      5  C   UNL     1       2.504   7.074  18.423  0.00  0.00    +0.000 A 
ATOM      6  C   UNL     1       2.193   6.268  19.525  0.00  0.00    +0.000 A 
ATOM      7  C   UNL     1       1.864   6.888  20.724  0.00  0.00    +0.000 A 
ATOM      8  C   UNL     1       1.450   8.238  20.761  0.00  0.00    +0.000 A 
ATOM      9  C   UNL     1       1.512   8.949  19.558  0.00  0.00    +0.000 A 
ENDROOT
BRANCH   6  10
ATOM     10  C   UNL     1       2.215   4.805  19.244  0.00  0.00    +0.000 C 
ATOM     11  O   UNL     1       1.108   4.265  19.180  0.00  0.00    +0.000 OA
ATOM     12  N   UNL     1       3.403   4.042  19.438  0.00  0.00    +0.000 N 
ATOM     13  C   UNL     1       3.098   2.620  19.698  0.00  0.00    +0.000 C 
ATOM     14  C   UNL     1       2.780   1.904  18.375  0.00  0.00    +0.000 C 
ATOM     15  O   UNL     1       3.904   1.982  17.489  0.00  0.00    +0.000 OA
ATOM     16  C   UNL     1       4.295   3.351  17.196  0.00  0.00    +0.000 C 
ATOM     17  C   UNL     1       5.518   3.195  16.293  0.00  0.00    +0.000 C 
ATOM     18  C   UNL     1       4.584   4.102  18.515  0.00  0.00    +0.000 C 
BRANCH  18  19
ATOM     19  C   UNL     1       5.293   5.452  18.375  0.00  0.00    +0.000 C 
ATOM     20  N   UNL     1       6.251   5.727  19.333  0.00  0.00    +0.000 N 
ATOM     21  O   UNL     1       5.116   6.262  17.460  0.00  0.00    +0.000 OA
ATOM     22  H   UNL     1       6.169   5.275  20.232  0.00  0.00    +0.000 HD
ATOM     23  H   UNL     1       6.605   6.667  19.315  0.00  0.00    +0.000 HD
ENDBRANCH  18  19
ENDBRANCH   6  10
BRANCH   1  29
ATOM     24  C   UNL     1      -3.589  11.679  18.344  0.00  0.00    +0.000 C 
ATOM     25  C   UNL     1      -2.385  11.625  19.235  0.00  0.00    +0.000 A 
ATOM     26  C   UNL     1      -2.344  12.272  20.471  0.00  0.00    +0.000 A 
ATOM     27  C   UNL     1      -1.172  12.262  21.233  0.00  0.00    +0.000 A 
ATOM     28  C   UNL     1      -0.017  11.628  20.759  0.00  0.00    +0.000 A 
ATOM     29  C   UNL     1      -0.058  10.959  19.532  0.00  0.00    +0.000 A 
ATOM     30  C   UNL     1      -1.246  10.952  18.785  0.00  0.00    +0.000 A 
ENDBRANCH   1  29
TORSDOF 3
ENDMDL
MODEL 6
REMARK VINA RESULT:      -7.1      4.520      8.459
REMARK  Name = 
REMARK  5 active torsions:
REMARK  status: ('A' for Active; 'I' for Inactive)
REMARK    1  A    between atoms: C_1  and  C_2
REMARK    2  A    between atoms: C_6  and  N_7
REMARK    3  A    between atoms: C_12  and  C_13
REMARK    4  A    between atoms: C_19  and  C_20
REMARK    5  A    between atoms: C_21  and  C_22
REMARK                            x       y       z     vdW  Elec       q    Type
REMARK                         _______ _______ _______ _____ _____    ______ ____
ROOT
ATOM      1  N   UNL     1       0.808  10.154  19.994  0.00  0.00    +0.000 N 
ATOM      2  C   UNL     1       1.042  10.593  18.702  0.00  0.00    +0.000 A 
ATOM      3  N   UNL     1       1.618   9.683  17.957  0.00  0.00    +0.000 NA
ATOM      4  C   UNL     1       1.773   8.617  18.788  0.00  0.00    +0.000 A 
ATOM      5  C   UNL     1       2.124   7.315  18.457  0.00  0.00    +0.000 A 
ATOM      6  C   UNL     1       2.211   6.349  19.467  0.00  0.00    +0.000 A 
ATOM      7  C   UNL     1       2.249   6.776  20.788  0.00  0.00    +0.000 A 
ATOM      8  C   UNL     1       1.810   8.068  21.153  0.00  0.00    +0.000 A 
ATOM      9  C   UNL     1       1.460   8.933  20.110  0.00  0.00    +0.000 A 
ENDROOT
BRANCH   6  10
ATOM     10  C   UNL     1       2.206   4.942  18.975  0.00  0.00    +0.000 C 
ATOM     11  O   UNL     1       1.091   4.473  18.732  0.00  0.00    +0.000 OA
ATOM     12  N   UNL     1       3.341   4.100  19.160  0.00  0.00    +0.000 N 
ATOM     13  C   UNL     1       2.959   2.673  19.178  0.00  0.00    +0.000 C 
ATOM     14  C   UNL     1       2.745   2.172  17.741  0.00  0.00    +0.000 C 
ATOM     15  O   UNL     1       3.952   2.320  16.981  0.00  0.00    +0.000 OA
ATOM     16  C   UNL     1       4.419   3.695  16.930  0.00  0.00    +0.000 C 
ATOM     17  C   UNL     1       5.717   3.609  16.128  0.00  0.00    +0.000 C 
ATOM     18  C   UNL     1       4.607   4.233  18.367  0.00  0.00    +0.000 C 
BRANCH  18  19
ATOM     19  C   UNL     1       5.375   5.551  18.493  0.00  0.00    +0.000 C 
ATOM     20  N   UNL     1       6.377   5.571  19.444  0.00  0.00    +0.000 N 
ATOM     21  O   UNL     1       5.207   6.549  17.785  0.00  0.00    +0.000 OA
ATOM     22  H   UNL     1       6.304   4.937  20.226  0.00  0.00    +0.000 HD
ATOM     23  H   UNL     1       6.776   6.477  19.617  0.00  0.00    +0.000 HD
ENDBRANCH  18  19
ENDBRANCH   6  10
BRANCH   1  29
ATOM     24  C   UNL     1      -3.009  13.220  20.505  0.00  0.00    +0.000 C 
ATOM     25  C   UNL     1      -2.084  12.212  21.116  0.00  0.00    +0.000 A 
ATOM     26  C   UNL     1      -2.156  11.855  22.464  0.00  0.00    +0.000 A 
ATOM     27  C   UNL     1      -1.221  10.970  23.010  0.00  0.00    +0.000 A 
ATOM     28  C   UNL     1      -0.187  10.448  22.223  0.00  0.00    +0.000 A 
ATOM     29  C   UNL     1      -0.123  10.783  20.867  0.00  0.00    +0.000 A 
ATOM     30  C   UNL     1      -1.080  11.653  20.321  0.00  0.00    +0.000 A 
ENDBRANCH   1  29
TORSDOF 3
ENDMDL
MODEL 7
REMARK VINA RESULT:      -7.1      5.378      7.448
REMARK  Name = 
REMARK  5 active torsions:
REMARK  status: ('A' for Active; 'I' for Inactive)
REMARK    1  A    between atoms: C_1  and  C_2
REMARK    2  A    between atoms: C_6  and  N_7
REMARK    3  A    between atoms: C_12  and  C_13
REMARK    4  A    between atoms: C_19  and  C_20
REMARK    5  A    between atoms: C_21  and  C_22
REMARK                            x       y       z     vdW  Elec       q    Type
REMARK                         _______ _______ _______ _____ _____    ______ ____
ROOT
ATOM      1  N   UNL     1       3.071   6.335  18.863  0.00  0.00    +0.000 N 
ATOM      2  C   UNL     1       2.766   5.930  20.152  0.00  0.00    +0.000 A 
ATOM      3  N   UNL     1       1.931   6.742  20.750  0.00  0.00    +0.000 NA
ATOM      4  C   UNL     1       1.685   7.712  19.828  0.00  0.00    +0.000 A 
ATOM      5  C   UNL     1       0.704   8.693  19.856  0.00  0.00    +0.000 A 
ATOM      6  C   UNL     1       0.601   9.595  18.788  0.00  0.00    +0.000 A 
ATOM      7  C   UNL     1       1.661   9.680  17.893  0.00  0.00    +0.000 A 
ATOM      8  C   UNL     1       2.618   8.646  17.790  0.00  0.00    +0.000 A 
ATOM      9  C   UNL     1       2.519   7.602  18.716  0.00  0.00    +0.000 A 
ENDROOT
BRANCH   6  10
ATOM     10  C   UNL     1      -0.691  10.334  18.728  0.00  0.00    +0.000 C 
ATOM     11  O   UNL     1      -1.633   9.707  18.235  0.00  0.00    +0.000 OA
ATOM     12  N   UNL     1      -0.726  11.753  18.850  0.00  0.00    +0.000 N 
ATOM     13  C   UNL     1      -1.916  12.324  18.187  0.00  0.00    +0.000 C 
ATOM     14  C   UNL     1      -3.149  12.154  19.089  0.00  0.00    +0.000 C 
ATOM     15  O   UNL     1      -2.945  12.829  20.337  0.00  0.00    +0.000 OA
ATOM     16  C   UNL     1      -1.774  12.348  21.052  0.00  0.00    +0.000 C 
ATOM     17  C   UNL     1      -1.725  13.225  22.302  0.00  0.00    +0.000 C 
ATOM     18  C   UNL     1      -0.526  12.476  20.149  0.00  0.00    +0.000 C 
BRANCH  18  19
ATOM     19  C   UNL     1       0.825  12.298  20.847  0.00  0.00    +0.000 C 
ATOM     20  N   UNL     1       1.788  13.239  20.534  0.00  0.00    +0.000 N 
ATOM     21  O   UNL     1       1.088  11.434  21.689  0.00  0.00    +0.000 OA
ATOM     22  H   UNL     1       1.722  13.710  19.644  0.00  0.00    +0.000 HD
ATOM     23  H   UNL     1       2.707  13.033  20.884  0.00  0.00    +0.000 HD
ENDBRANCH  18  19
ENDBRANCH   6  10
BRANCH   1  29
ATOM     24  C   UNL     1       6.761   5.377  15.750  0.00  0.00    +0.000 C 
ATOM     25  C   UNL     1       5.506   4.920  16.429  0.00  0.00    +0.000 A 
ATOM     26  C   UNL     1       4.930   3.675  16.170  0.00  0.00    +0.000 A 
ATOM     27  C   UNL     1       3.715   3.323  16.766  0.00  0.00    +0.000 A 
ATOM     28  C   UNL     1       3.046   4.220  17.609  0.00  0.00    +0.000 A 
ATOM     29  C   UNL     1       3.629   5.459  17.890  0.00  0.00    +0.000 A 
ATOM     30  C   UNL     1       4.861   5.795  17.308  0.00  0.00    +0.000 A 
ENDBRANCH   1  29
TORSDOF 3
ENDMDL
MODEL 8
REMARK VINA RESULT:      -7.0      5.022      8.356
REMARK  Name = 
REMARK  5 active torsions:
REMARK  status: ('A' for Active; 'I' for Inactive)
REMARK    1  A    between atoms: C_1  and  C_2
REMARK    2  A    between atoms: C_6  and  N_7
REMARK    3  A    between atoms: C_12  and  C_13
REMARK    4  A    between atoms: C_19  and  C_20
REMARK    5  A    between atoms: C_21  and  C_22
REMARK                            x       y       z     vdW  Elec       q    Type
REMARK                         _______ _______ _______ _____ _____    ______ ____
ROOT
ATOM      1  N   UNL     1       0.428  10.403  20.163  0.00  0.00    +0.000 N 
ATOM      2  C   UNL     1       0.423   9.830  21.423  0.00  0.00    +0.000 A 
ATOM      3  N   UNL     1       1.039   8.675  21.454  0.00  0.00    +0.000 NA
ATOM      4  C   UNL     1       1.454   8.481  20.174  0.00  0.00    +0.000 A 
ATOM      5  C   UNL     1       2.345   7.529  19.696  0.00  0.00    +0.000 A 
ATOM      6  C   UNL     1       2.662   7.507  18.331  0.00  0.00    +0.000 A 
ATOM      7  C   UNL     1       1.855   8.223  17.455  0.00  0.00    +0.000 A 
ATOM      8  C   UNL     1       1.010   9.257  17.916  0.00  0.00    +0.000 A 
ATOM      9  C   UNL     1       0.930   9.435  19.302  0.00  0.00    +0.000 A 
ENDROOT
BRANCH   6  10
ATOM     10  C   UNL     1       3.887   6.729  17.996  0.00  0.00    +0.000 C 
ATOM     11  O   UNL     1       4.916   7.397  17.868  0.00  0.00    +0.000 OA
ATOM     12  N   UNL     1       3.792   5.405  17.476  0.00  0.00    +0.000 N 
ATOM     13  C   UNL     1       4.980   5.053  16.672  0.00  0.00    +0.000 C 
ATOM     14  C   UNL     1       6.144   4.671  17.600  0.00  0.00    +0.000 C 
ATOM     15  O   UNL     1       5.782   3.544  18.410  0.00  0.00    +0.000 OA
ATOM     16  C   UNL     1       4.600   3.792  19.220  0.00  0.00    +0.000 C 
ATOM     17  C   UNL     1       4.374   2.468  19.948  0.00  0.00    +0.000 C 
ATOM     18  C   UNL     1       3.425   4.214  18.310  0.00  0.00    +0.000 C 
BRANCH  18  19
ATOM     19  C   UNL     1       2.041   4.219  18.964  0.00  0.00    +0.000 C 
ATOM     20  N   UNL     1       0.999   3.795  18.162  0.00  0.00    +0.000 N 
ATOM     21  O   UNL     1       1.805   4.511  20.141  0.00  0.00    +0.000 OA
ATOM     22  H   UNL     1       1.100   3.885  17.161  0.00  0.00    +0.000 HD
ATOM     23  H   UNL     1       0.083   3.936  18.551  0.00  0.00    +0.000 HD
ENDBRANCH  18  19
ENDBRANCH   6  10
BRANCH   1  29
ATOM     24  C   UNL     1      -2.544  14.263  20.870  0.00  0.00    +0.000 C 
ATOM     25  C   UNL     1      -1.232  13.727  20.382  0.00  0.00    +0.000 A 
ATOM     26  C   UNL     1      -0.269  14.544  19.785  0.00  0.00    +0.000 A 
ATOM     27  C   UNL     1       0.907  13.989  19.272  0.00  0.00    +0.000 A 
ATOM     28  C   UNL     1       1.126  12.607  19.324  0.00  0.00    +0.000 A 
ATOM     29  C   UNL     1       0.177  11.786  19.941  0.00  0.00    +0.000 A 
ATOM     30  C   UNL     1      -0.990  12.354  20.477  0.00  0.00    +0.000 A 
ENDBRANCH   1  29
TORSDOF 3
ENDMDL
MODEL 9
REMARK VINA RESULT:      -7.0      4.848      8.341
REMARK  Name = 
REMARK  5 active torsions:
REMARK  status: ('A' for Active; 'I' for Inactive)
REMARK    1  A    between atoms: C_1  and  C_2
REMARK    2  A    between atoms: C_6  and  N_7
REMARK    3  A    between atoms: C_12  and  C_13
REMARK    4  A    between atoms: C_19  and  C_20
REMARK    5  A    between atoms: C_21  and  C_22
REMARK                            x       y       z     vdW  Elec       q    Type
REMARK                         _______ _______ _______ _____ _____    ______ ____
ROOT
ATOM      1  N   UNL     1       0.659  10.181  20.483  0.00  0.00    +0.000 N 
ATOM      2  C   UNL     1       0.572   9.442  21.651  0.00  0.00    +0.000 A 
ATOM      3  N   UNL     1       1.106   8.252  21.535  0.00  0.00    +0.000 NA
ATOM      4  C   UNL     1       1.551   8.206  20.250  0.00  0.00    +0.000 A 
ATOM      5  C   UNL     1       2.390   7.267  19.665  0.00  0.00    +0.000 A 
ATOM      6  C   UNL     1       2.751   7.411  18.319  0.00  0.00    +0.000 A 
ATOM      7  C   UNL     1       2.026   8.297  17.532  0.00  0.00    +0.000 A 
ATOM      8  C   UNL     1       1.238   9.316  18.113  0.00  0.00    +0.000 A 
ATOM      9  C   UNL     1       1.123   9.307  19.508  0.00  0.00    +0.000 A 
ENDROOT
BRANCH   6  10
ATOM     10  C   UNL     1       3.931   6.599  17.908  0.00  0.00    +0.000 C 
ATOM     11  O   UNL     1       5.027   7.133  18.097  0.00  0.00    +0.000 OA
ATOM     12  N   UNL     1       3.785   5.498  17.015  0.00  0.00    +0.000 N 
ATOM     13  C   UNL     1       5.037   5.227  16.280  0.00  0.00    +0.000 C 
ATOM     14  C   UNL     1       6.012   4.450  17.178  0.00  0.00    +0.000 C 
ATOM     15  O   UNL     1       5.429   3.201  17.576  0.00  0.00    +0.000 OA
ATOM     16  C   UNL     1       4.172   3.370  18.288  0.00  0.00    +0.000 C 
ATOM     17  C   UNL     1       3.716   1.938  18.564  0.00  0.00    +0.000 C 
ATOM     18  C   UNL     1       3.187   4.182  17.417  0.00  0.00    +0.000 C 
BRANCH  18  19
ATOM     19  C   UNL     1       1.730   4.191  17.886  0.00  0.00    +0.000 C 
ATOM     20  N   UNL     1       1.540   4.081  19.251  0.00  0.00    +0.000 N 
ATOM     21  O   UNL     1       0.744   4.343  17.158  0.00  0.00    +0.000 OA
ATOM     22  H   UNL     1       2.259   3.628  19.796  0.00  0.00    +0.000 HD
ATOM     23  H   UNL     1       0.586   3.945  19.533  0.00  0.00    +0.000 HD
ENDBRANCH  18  19
ENDBRANCH   6  10
BRANCH   1  29
ATOM     24  C   UNL     1      -0.742  14.277  22.826  0.00  0.00    +0.000 C 
ATOM     25  C   UNL     1      -0.075  13.640  21.644  0.00  0.00    +0.000 A 
ATOM     26  C   UNL     1       0.431  14.390  20.580  0.00  0.00    +0.000 A 
ATOM     27  C   UNL     1       0.973  13.750  19.462  0.00  0.00    +0.000 A 
ATOM     28  C   UNL     1       0.995  12.352  19.379  0.00  0.00    +0.000 A 
ATOM     29  C   UNL     1       0.511  11.595  20.451  0.00  0.00    +0.000 A 
ATOM     30  C   UNL     1      -0.009  12.246  21.581  0.00  0.00    +0.000 A 
ENDBRANCH   1  29
TORSDOF 3
ENDMDL
