MODEL 1
REMARK VINA RESULT:      -7.3      0.000      0.000
REMARK  Name = 
REMARK  13 active torsions:
REMARK  status: ('A' for Active; 'I' for Inactive)
REMARK    1  A    between atoms: C_1  and  C_2
REMARK    2  A    between atoms: C_2  and  C_3
REMARK    3  A    between atoms: C_2  and  C_4
REMARK    4  A    between atoms: C_2  and  C_6
REMARK    5  A    between atoms: C_4  and  O_5
REMARK    6  A    between atoms: C_6  and  O_7
REMARK    7  A    between atoms: C_6  and  C_8
REMARK    8  A    between atoms: N_10  and  C_11
REMARK    9  A    between atoms: C_11  and  C_12
REMARK   10  A    between atoms: C_12  and  C_13
REMARK   11  A    between atoms: N_15  and  C_16
REMARK   12  A    between atoms: C_16  and  C_17
REMARK   13  A    between atoms: C_20  and  C_21
REMARK                            x       y       z     vdW  Elec       q    Type
REMARK                         _______ _______ _______ _____ _____    ______ ____
ROOT
ATOM      1  C   UNL     1       5.694   5.017  17.013  0.00  0.00    +0.000 C 
ENDROOT
BRANCH   1   2
ATOM      2  C   UNL     1       4.924   6.244  16.572  0.00  0.00    +0.000 C 
ATOM      3  O   UNL     1       5.094   6.781  15.481  0.00  0.00    +0.000 OA
ATOM      4  N   UNL     1       4.029   6.714  17.504  0.00  0.00    +0.000 N 
ATOM      5  H   UNL     1       3.945   6.249  18.398  0.00  0.00    +0.000 HD
BRANCH   4   6
ATOM      6  C   UNL     1       3.181   7.856  17.243  0.00  0.00    +0.000 C 
BRANCH   6   7
ATOM      7  C   UNL     1       2.324   8.193  18.435  0.00  0.00    +0.000 A 
ATOM      8  C   UNL     1       2.315   7.356  19.558  0.00  0.00    +0.000 A 
ATOM      9  C   UNL     1       1.557   7.685  20.685  0.00  0.00    +0.000 A 
ATOM     10  C   UNL     1       0.784   8.854  20.706  0.00  0.00    +0.000 A 
ATOM     11  C   UNL     1       0.768   9.675  19.568  0.00  0.00    +0.000 A 
ATOM     12  C   UNL     1       1.527   9.347  18.441  0.00  0.00    +0.000 A 
BRANCH  10  13
ATOM     13  C   UNL     1      -0.010   9.248  21.928  0.00  0.00    +0.000 C 
ATOM     14  F   UNL     1      -0.910   8.304  22.325  0.00  0.00    +0.000 F 
ATOM     15  F   UNL     1       0.784   9.483  23.011  0.00  0.00    +0.000 F 
ATOM     16  F   UNL     1      -0.726  10.389  21.737  0.00  0.00    +0.000 F 
ENDBRANCH  10  13
ENDBRANCH   6   7
ENDBRANCH   4   6
ENDBRANCH   1   2
BRANCH   1  17
ATOM     17  C   UNL     1       4.939   3.748  16.623  0.00  0.00    +0.000 C 
BRANCH  17  20
ATOM     18  C   UNL     1       2.906   3.072  17.867  0.00  0.00    +0.000 C 
ATOM     19  O   UNL     1       2.140   3.601  17.061  0.00  0.00    +0.000 OA
ATOM     20  N   UNL     1       4.277   3.117  17.752  0.00  0.00    +0.000 N 
ATOM     21  H   UNL     1       4.844   2.642  18.448  0.00  0.00    +0.000 HD
BRANCH  18  22
ATOM     22  C   UNL     1       2.368   2.316  19.103  0.00  0.00    +0.000 C 
BRANCH  22  24
ATOM     23  C   UNL     1       0.682   3.986  19.954  0.00  0.00    +0.000 C 
ATOM     24  C   UNL     1       2.009   3.265  20.282  0.00  0.00    +0.000 C 
ATOM     25  C   UNL     1       3.087   4.352  20.481  0.00  0.00    +0.000 C 
BRANCH  24  26
ATOM     26  C   UNL     1       1.851   2.479  21.598  0.00  0.00    +0.000 C 
BRANCH  26  27
ATOM     27  O   UNL     1       3.107   2.010  22.075  0.00  0.00    +0.000 OA
ATOM     28  H   UNL     1       3.768   2.694  21.868  0.00  0.00    +0.000 HD
ENDBRANCH  26  27
ENDBRANCH  24  26
ENDBRANCH  22  24
BRANCH  22  29
ATOM     29  O   UNL     1       1.219   1.551  18.723  0.00  0.00    +0.000 OA
ATOM     30  H   UNL     1       0.996   1.829  17.813  0.00  0.00    +0.000 HD
ENDBRANCH  22  29
ENDBRANCH  18  22
ENDBRANCH  17  20
ENDBRANCH   1  17
TORSDOF 11
ENDMDL
MODEL 2
REMARK VINA RESULT:      -7.2      2.444      4.341
REMARK  Name = 
REMARK  13 active torsions:
REMARK  status: ('A' for Active; 'I' for Inactive)
REMARK    1  A    between atoms: C_1  and  C_2
REMARK    2  A    between atoms: C_2  and  C_3
REMARK    3  A    between atoms: C_2  and  C_4
REMARK    4  A    between atoms: C_2  and  C_6
REMARK    5  A    between atoms: C_4  and  O_5
REMARK    6  A    between atoms: C_6  and  O_7
REMARK    7  A    between atoms: C_6  and  C_8
REMARK    8  A    between atoms: N_10  and  C_11
REMARK    9  A    between atoms: C_11  and  C_12
REMARK   10  A    between atoms: C_12  and  C_13
REMARK   11  A    between atoms: N_15  and  C_16
REMARK   12  A    between atoms: C_16  and  C_17
REMARK   13  A    between atoms: C_20  and  C_21
REMARK                            x       y       z     vdW  Elec       q    Type
REMARK                         _______ _______ _______ _____ _____    ______ ____
ROOT
ATOM      1  C   UNL     1       2.778   3.602  17.259  0.00  0.00    +0.000 C 
ENDROOT
BRANCH   1   2
ATOM      2  C   UNL     1       2.486   4.209  18.616  0.00  0.00    +0.000 C 
ATOM      3  O   UNL     1       2.134   3.540  19.584  0.00  0.00    +0.000 OA
ATOM      4  N   UNL     1       2.635   5.575  18.666  0.00  0.00    +0.000 N 
ATOM      5  H   UNL     1       2.904   6.082  17.834  0.00  0.00    +0.000 HD
BRANCH   4   6
ATOM      6  C   UNL     1       2.431   6.322  19.888  0.00  0.00    +0.000 C 
BRANCH   6   7
ATOM      7  C   UNL     1       1.928   7.714  19.607  0.00  0.00    +0.000 A 
ATOM      8  C   UNL     1       1.246   8.432  20.599  0.00  0.00    +0.000 A 
ATOM      9  C   UNL     1       0.816   9.740  20.361  0.00  0.00    +0.000 A 
ATOM     10  C   UNL     1       1.049  10.353  19.122  0.00  0.00    +0.000 A 
ATOM     11  C   UNL     1       1.702   9.620  18.119  0.00  0.00    +0.000 A 
ATOM     12  C   UNL     1       2.135   8.313  18.357  0.00  0.00    +0.000 A 
BRANCH  10  13
ATOM     13  C   UNL     1       0.628  11.778  18.860  0.00  0.00    +0.000 C 
ATOM     14  F   UNL     1       0.437  12.511  19.992  0.00  0.00    +0.000 F 
ATOM     15  F   UNL     1       1.546  12.464  18.123  0.00  0.00    +0.000 F 
ATOM     16  F   UNL     1      -0.540  11.854  18.164  0.00  0.00    +0.000 F 
ENDBRANCH  10  13
ENDBRANCH   6   7
ENDBRANCH   4   6
ENDBRANCH   1   2
BRANCH   1  17
ATOM     17  C   UNL     1       4.032   2.732  17.326  0.00  0.00    +0.000 C 
BRANCH  17  20
ATOM     18  C   UNL     1       5.956   4.086  16.549  0.00  0.00    +0.000 C 
ATOM     19  O   UNL     1       5.665   3.961  15.360  0.00  0.00    +0.000 OA
ATOM     20  N   UNL     1       5.239   3.502  17.570  0.00  0.00    +0.000 N 
ATOM     21  H   UNL     1       5.530   3.664  18.529  0.00  0.00    +0.000 HD
BRANCH  18  22
ATOM     22  C   UNL     1       7.183   4.914  16.989  0.00  0.00    +0.000 C 
BRANCH  22  24
ATOM     23  C   UNL     1       5.567   6.808  17.383  0.00  0.00    +0.000 C 
ATOM     24  C   UNL     1       6.811   6.083  17.945  0.00  0.00    +0.000 C 
ATOM     25  C   UNL     1       7.948   7.124  18.036  0.00  0.00    +0.000 C 
BRANCH  24  26
ATOM     26  C   UNL     1       6.501   5.565  19.362  0.00  0.00    +0.000 C 
BRANCH  26  27
ATOM     27  O   UNL     1       7.674   5.529  20.168  0.00  0.00    +0.000 OA
ATOM     28  H   UNL     1       8.352   6.060  19.714  0.00  0.00    +0.000 HD
ENDBRANCH  26  27
ENDBRANCH  24  26
ENDBRANCH  22  24
BRANCH  22  29
ATOM     29  O   UNL     1       8.133   4.049  17.621  0.00  0.00    +0.000 OA
ATOM     30  H   UNL     1       7.845   3.963  18.551  0.00  0.00    +0.000 HD
ENDBRANCH  22  29
ENDBRANCH  18  22
ENDBRANCH  17  20
ENDBRANCH   1  17
TORSDOF 11
ENDMDL
MODEL 3
REMARK VINA RESULT:      -7.2      2.307      4.297
REMARK  Name = 
REMARK  13 active torsions:
REMARK  status: ('A' for Active; 'I' for Inactive)
REMARK    1  A    between atoms: C_1  and  C_2
REMARK    2  A    between atoms: C_2  and  C_3
REMARK    3  A    between atoms: C_2  and  C_4
REMARK    4  A    between atoms: C_2  and  C_6
REMARK    5  A    between atoms: C_4  and  O_5
REMARK    6  A    between atoms: C_6  and  O_7
REMARK    7  A    between atoms: C_6  and  C_8
REMARK    8  A    between atoms: N_10  and  C_11
REMARK    9  A    between atoms: C_11  and  C_12
REMARK   10  A    between atoms: C_12  and  C_13
REMARK   11  A    between atoms: N_15  and  C_16
REMARK   12  A    between atoms: C_16  and  C_17
REMARK   13  A    between atoms: C_20  and  C_21
REMARK                            x       y       z     vdW  Elec       q    Type
REMARK                         _______ _______ _______ _____ _____    ______ ____
ROOT
ATOM      1  C   UNL     1       2.719   3.549  17.176  0.00  0.00    +0.000 C 
ENDROOT
BRANCH   1   2
ATOM      2  C   UNL     1       2.332   4.152  18.511  0.00  0.00    +0.000 C 
ATOM      3  O   UNL     1       1.627   3.566  19.328  0.00  0.00    +0.000 OA
ATOM      4  N   UNL     1       2.828   5.417  18.722  0.00  0.00    +0.000 N 
ATOM      5  H   UNL     1       3.384   5.864  18.007  0.00  0.00    +0.000 HD
BRANCH   4   6
ATOM      6  C   UNL     1       2.590   6.135  19.955  0.00  0.00    +0.000 C 
BRANCH   6   7
ATOM      7  C   UNL     1       2.016   7.504  19.696  0.00  0.00    +0.000 A 
ATOM      8  C   UNL     1       2.119   8.084  18.425  0.00  0.00    +0.000 A 
ATOM      9  C   UNL     1       1.551   9.334  18.165  0.00  0.00    +0.000 A 
ATOM     10  C   UNL     1       0.877  10.034  19.176  0.00  0.00    +0.000 A 
ATOM     11  C   UNL     1       0.804   9.466  20.457  0.00  0.00    +0.000 A 
ATOM     12  C   UNL     1       1.370   8.215  20.717  0.00  0.00    +0.000 A 
BRANCH  10  13
ATOM     13  C   UNL     1       0.222  11.366  18.905  0.00  0.00    +0.000 C 
ATOM     14  F   UNL     1      -0.289  11.963  20.019  0.00  0.00    +0.000 F 
ATOM     15  F   UNL     1       1.086  12.270  18.363  0.00  0.00    +0.000 F 
ATOM     16  F   UNL     1      -0.813  11.267  18.026  0.00  0.00    +0.000 F 
ENDBRANCH  10  13
ENDBRANCH   6   7
ENDBRANCH   4   6
ENDBRANCH   1   2
BRANCH   1  17
ATOM     17  C   UNL     1       3.979   2.698  17.323  0.00  0.00    +0.000 C 
BRANCH  17  20
ATOM     18  C   UNL     1       5.832   4.101  16.464  0.00  0.00    +0.000 C 
ATOM     19  O   UNL     1       5.490   3.974  15.289  0.00  0.00    +0.000 OA
ATOM     20  N   UNL     1       5.177   3.497  17.514  0.00  0.00    +0.000 N 
ATOM     21  H   UNL     1       5.508   3.663  18.459  0.00  0.00    +0.000 HD
BRANCH  18  22
ATOM     22  C   UNL     1       7.058   4.957  16.851  0.00  0.00    +0.000 C 
BRANCH  22  24
ATOM     23  C   UNL     1       5.495   6.889  17.278  0.00  0.00    +0.000 C 
ATOM     24  C   UNL     1       6.704   6.106  17.838  0.00  0.00    +0.000 C 
ATOM     25  C   UNL     1       7.871   7.106  17.984  0.00  0.00    +0.000 C 
BRANCH  24  26
ATOM     26  C   UNL     1       6.351   5.553  19.231  0.00  0.00    +0.000 C 
BRANCH  26  27
ATOM     27  O   UNL     1       7.511   5.424  20.046  0.00  0.00    +0.000 OA
ATOM     28  H   UNL     1       7.895   6.313  20.144  0.00  0.00    +0.000 HD
ENDBRANCH  26  27
ENDBRANCH  24  26
ENDBRANCH  22  24
BRANCH  22  29
ATOM     29  O   UNL     1       8.061   4.112  17.424  0.00  0.00    +0.000 OA
ATOM     30  H   UNL     1       8.897   4.335  16.970  0.00  0.00    +0.000 HD
ENDBRANCH  22  29
ENDBRANCH  18  22
ENDBRANCH  17  20
ENDBRANCH   1  17
TORSDOF 11
ENDMDL
MODEL 4
REMARK VINA RESULT:      -7.1      5.751      8.763
REMARK  Name = 
REMARK  13 active torsions:
REMARK  status: ('A' for Active; 'I' for Inactive)
REMARK    1  A    between atoms: C_1  and  C_2
REMARK    2  A    between atoms: C_2  and  C_3
REMARK    3  A    between atoms: C_2  and  C_4
REMARK    4  A    between atoms: C_2  and  C_6
REMARK    5  A    between atoms: C_4  and  O_5
REMARK    6  A    between atoms: C_6  and  O_7
REMARK    7  A    between atoms: C_6  and  C_8
REMARK    8  A    between atoms: N_10  and  C_11
REMARK    9  A    between atoms: C_11  and  C_12
REMARK   10  A    between atoms: C_12  and  C_13
REMARK   11  A    between atoms: N_15  and  C_16
REMARK   12  A    between atoms: C_16  and  C_17
REMARK   13  A    between atoms: C_20  and  C_21
REMARK                            x       y       z     vdW  Elec       q    Type
REMARK                         _______ _______ _______ _____ _____    ______ ____
ROOT
ATOM      1  C   UNL     1       8.153   7.547  18.230  0.00  0.00    +0.000 C 
ENDROOT
BRANCH   1   2
ATOM      2  C   UNL     1       7.344   6.539  17.439  0.00  0.00    +0.000 C 
ATOM      3  O   UNL     1       7.691   5.370  17.295  0.00  0.00    +0.000 OA
ATOM      4  N   UNL     1       6.194   7.051  16.884  0.00  0.00    +0.000 N 
ATOM      5  H   UNL     1       5.967   8.027  17.012  0.00  0.00    +0.000 HD
BRANCH   4   6
ATOM      6  C   UNL     1       5.280   6.228  16.124  0.00  0.00    +0.000 C 
BRANCH   6   7
ATOM      7  C   UNL     1       4.307   5.509  17.022  0.00  0.00    +0.000 A 
ATOM      8  C   UNL     1       3.592   6.215  17.999  0.00  0.00    +0.000 A 
ATOM      9  C   UNL     1       2.655   5.563  18.805  0.00  0.00    +0.000 A 
ATOM     10  C   UNL     1       2.422   4.190  18.657  0.00  0.00    +0.000 A 
ATOM     11  C   UNL     1       3.163   3.477  17.701  0.00  0.00    +0.000 A 
ATOM     12  C   UNL     1       4.099   4.129  16.894  0.00  0.00    +0.000 A 
BRANCH  10  13
ATOM     13  C   UNL     1       1.385   3.475  19.491  0.00  0.00    +0.000 C 
ATOM     14  F   UNL     1       0.614   4.312  20.240  0.00  0.00    +0.000 F 
ATOM     15  F   UNL     1       0.518   2.750  18.731  0.00  0.00    +0.000 F 
ATOM     16  F   UNL     1       1.941   2.594  20.366  0.00  0.00    +0.000 F 
ENDBRANCH  10  13
ENDBRANCH   6   7
ENDBRANCH   4   6
ENDBRANCH   1   2
BRANCH   1  17
ATOM     17  C   UNL     1       7.693   8.967  17.908  0.00  0.00    +0.000 C 
BRANCH  17  20
ATOM     18  C   UNL     1       9.415  10.559  18.707  0.00  0.00    +0.000 C 
ATOM     19  O   UNL     1       9.049  10.489  19.880  0.00  0.00    +0.000 OA
ATOM     20  N   UNL     1       8.799   9.880  17.679  0.00  0.00    +0.000 N 
ATOM     21  H   UNL     1       9.168   9.974  16.739  0.00  0.00    +0.000 HD
BRANCH  18  22
ATOM     22  C   UNL     1      10.609  11.447  18.294  0.00  0.00    +0.000 C 
BRANCH  22  24
ATOM     23  C   UNL     1      10.476  13.676  19.464  0.00  0.00    +0.000 C 
ATOM     24  C   UNL     1      10.220  12.943  18.127  0.00  0.00    +0.000 C 
ATOM     25  C   UNL     1       8.722  13.104  17.793  0.00  0.00    +0.000 C 
BRANCH  24  26
ATOM     26  C   UNL     1      11.049  13.612  17.014  0.00  0.00    +0.000 C 
BRANCH  26  27
ATOM     27  O   UNL     1      10.555  14.913  16.712  0.00  0.00    +0.000 OA
ATOM     28  H   UNL     1       9.606  14.919  16.929  0.00  0.00    +0.000 HD
ENDBRANCH  26  27
ENDBRANCH  24  26
ENDBRANCH  22  24
BRANCH  22  29
ATOM     29  O   UNL     1      11.651  11.318  19.267  0.00  0.00    +0.000 OA
ATOM     30  H   UNL     1      11.371  10.603  19.871  0.00  0.00    +0.000 HD
ENDBRANCH  22  29
ENDBRANCH  18  22
ENDBRANCH  17  20
ENDBRANCH   1  17
TORSDOF 11
ENDMDL
MODEL 5
REMARK VINA RESULT:      -7.0      5.897      8.738
REMARK  Name = 
REMARK  13 active torsions:
REMARK  status: ('A' for Active; 'I' for Inactive)
REMARK    1  A    between atoms: C_1  and  C_2
REMARK    2  A    between atoms: C_2  and  C_3
REMARK    3  A    between atoms: C_2  and  C_4
REMARK    4  A    between atoms: C_2  and  C_6
REMARK    5  A    between atoms: C_4  and  O_5
REMARK    6  A    between atoms: C_6  and  O_7
REMARK    7  A    between atoms: C_6  and  C_8
REMARK    8  A    between atoms: N_10  and  C_11
REMARK    9  A    between atoms: C_11  and  C_12
REMARK   10  A    between atoms: C_12  and  C_13
REMARK   11  A    between atoms: N_15  and  C_16
REMARK   12  A    between atoms: C_16  and  C_17
REMARK   13  A    between atoms: C_20  and  C_21
REMARK                            x       y       z     vdW  Elec       q    Type
REMARK                         _______ _______ _______ _____ _____    ______ ____
ROOT
ATOM      1  C   UNL     1       8.056   7.573  18.201  0.00  0.00    +0.000 C 
ENDROOT
BRANCH   1   2
ATOM      2  C   UNL     1       7.280   6.864  17.109  0.00  0.00    +0.000 C 
ATOM      3  O   UNL     1       7.808   6.436  16.087  0.00  0.00    +0.000 OA
ATOM      4  N   UNL     1       5.931   6.755  17.356  0.00  0.00    +0.000 N 
ATOM      5  H   UNL     1       5.543   7.147  18.203  0.00  0.00    +0.000 HD
BRANCH   4   6
ATOM      6  C   UNL     1       5.039   6.079  16.441  0.00  0.00    +0.000 C 
BRANCH   6   7
ATOM      7  C   UNL     1       4.016   5.253  17.176  0.00  0.00    +0.000 A 
ATOM      8  C   UNL     1       4.097   3.854  17.167  0.00  0.00    +0.000 A 
ATOM      9  C   UNL     1       3.177   3.084  17.883  0.00  0.00    +0.000 A 
ATOM     10  C   UNL     1       2.150   3.697  18.613  0.00  0.00    +0.000 A 
ATOM     11  C   UNL     1       2.050   5.096  18.594  0.00  0.00    +0.000 A 
ATOM     12  C   UNL     1       2.970   5.868  17.879  0.00  0.00    +0.000 A 
BRANCH  10  13
ATOM     13  C   UNL     1       1.171   2.883  19.425  0.00  0.00    +0.000 C 
ATOM     14  F   UNL     1       0.486   3.613  20.350  0.00  0.00    +0.000 F 
ATOM     15  F   UNL     1       0.225   2.284  18.649  0.00  0.00    +0.000 F 
ATOM     16  F   UNL     1       1.778   1.879  20.116  0.00  0.00    +0.000 F 
ENDBRANCH  10  13
ENDBRANCH   6   7
ENDBRANCH   4   6
ENDBRANCH   1   2
BRANCH   1  17
ATOM     17  C   UNL     1       7.764   9.073  18.170  0.00  0.00    +0.000 C 
BRANCH  17  20
ATOM     18  C   UNL     1       9.538  10.687  18.792  0.00  0.00    +0.000 C 
ATOM     19  O   UNL     1       9.102  10.848  19.932  0.00  0.00    +0.000 OA
ATOM     20  N   UNL     1       8.939   9.868  17.860  0.00  0.00    +0.000 N 
ATOM     21  H   UNL     1       9.366   9.773  16.945  0.00  0.00    +0.000 HD
BRANCH  18  22
ATOM     22  C   UNL     1      10.809  11.420  18.311  0.00  0.00    +0.000 C 
BRANCH  22  24
ATOM     23  C   UNL     1       9.035  13.127  17.770  0.00  0.00    +0.000 C 
ATOM     24  C   UNL     1      10.552  12.917  17.976  0.00  0.00    +0.000 C 
ATOM     25  C   UNL     1      11.256  13.334  16.668  0.00  0.00    +0.000 C 
BRANCH  24  26
ATOM     26  C   UNL     1      11.042  13.833  19.114  0.00  0.00    +0.000 C 
BRANCH  26  27
ATOM     27  O   UNL     1      10.307  13.607  20.313  0.00  0.00    +0.000 OA
ATOM     28  H   UNL     1       9.551  14.219  20.307  0.00  0.00    +0.000 HD
ENDBRANCH  26  27
ENDBRANCH  24  26
ENDBRANCH  22  24
BRANCH  22  29
ATOM     29  O   UNL     1      11.824  11.311  19.314  0.00  0.00    +0.000 OA
ATOM     30  H   UNL     1      12.346  10.517  19.087  0.00  0.00    +0.000 HD
ENDBRANCH  22  29
ENDBRANCH  18  22
ENDBRANCH  17  20
ENDBRANCH   1  17
TORSDOF 11
ENDMDL
MODEL 6
REMARK VINA RESULT:      -7.0      1.220      1.735
REMARK  Name = 
REMARK  13 active torsions:
REMARK  status: ('A' for Active; 'I' for Inactive)
REMARK    1  A    between atoms: C_1  and  C_2
REMARK    2  A    between atoms: C_2  and  C_3
REMARK    3  A    between atoms: C_2  and  C_4
REMARK    4  A    between atoms: C_2  and  C_6
REMARK    5  A    between atoms: C_4  and  O_5
REMARK    6  A    between atoms: C_6  and  O_7
REMARK    7  A    between atoms: C_6  and  C_8
REMARK    8  A    between atoms: N_10  and  C_11
REMARK    9  A    between atoms: C_11  and  C_12
REMARK   10  A    between atoms: C_12  and  C_13
REMARK   11  A    between atoms: N_15  and  C_16
REMARK   12  A    between atoms: C_16  and  C_17
REMARK   13  A    between atoms: C_20  and  C_21
REMARK                            x       y       z     vdW  Elec       q    Type
REMARK                         _______ _______ _______ _____ _____    ______ ____
ROOT
ATOM      1  C   UNL     1       5.066   4.529  15.997  0.00  0.00    +0.000 C 
ENDROOT
BRANCH   1   2
ATOM      2  C   UNL     1       4.945   6.040  16.025  0.00  0.00    +0.000 C 
ATOM      3  O   UNL     1       5.595   6.775  15.287  0.00  0.00    +0.000 OA
ATOM      4  N   UNL     1       4.055   6.516  16.959  0.00  0.00    +0.000 N 
ATOM      5  H   UNL     1       3.563   5.869  17.559  0.00  0.00    +0.000 HD
BRANCH   4   6
ATOM      6  C   UNL     1       3.784   7.929  17.106  0.00  0.00    +0.000 C 
BRANCH   6   7
ATOM      7  C   UNL     1       2.774   8.189  18.193  0.00  0.00    +0.000 A 
ATOM      8  C   UNL     1       2.665   7.313  19.281  0.00  0.00    +0.000 A 
ATOM      9  C   UNL     1       1.762   7.571  20.315  0.00  0.00    +0.000 A 
ATOM     10  C   UNL     1       0.941   8.706  20.276  0.00  0.00    +0.000 A 
ATOM     11  C   UNL     1       1.027   9.565  19.169  0.00  0.00    +0.000 A 
ATOM     12  C   UNL     1       1.932   9.308  18.136  0.00  0.00    +0.000 A 
BRANCH  10  13
ATOM     13  C   UNL     1      -0.013   9.024  21.402  0.00  0.00    +0.000 C 
ATOM     14  F   UNL     1      -0.885   8.016  21.684  0.00  0.00    +0.000 F 
ATOM     15  F   UNL     1       0.635   9.293  22.571  0.00  0.00    +0.000 F 
ATOM     16  F   UNL     1      -0.779  10.119  21.141  0.00  0.00    +0.000 F 
ENDBRANCH  10  13
ENDBRANCH   6   7
ENDBRANCH   4   6
ENDBRANCH   1   2
BRANCH   1  17
ATOM     17  C   UNL     1       5.838   4.036  17.219  0.00  0.00    +0.000 C 
BRANCH  17  20
ATOM     18  C   UNL     1       4.542   4.125  19.328  0.00  0.00    +0.000 C 
ATOM     19  O   UNL     1       4.880   5.281  19.581  0.00  0.00    +0.000 OA
ATOM     20  N   UNL     1       4.979   3.431  18.221  0.00  0.00    +0.000 N 
ATOM     21  H   UNL     1       4.643   2.486  18.070  0.00  0.00    +0.000 HD
BRANCH  18  22
ATOM     22  C   UNL     1       3.591   3.347  20.265  0.00  0.00    +0.000 C 
BRANCH  22  24
ATOM     23  C   UNL     1       2.000   4.214  18.513  0.00  0.00    +0.000 C 
ATOM     24  C   UNL     1       2.145   3.238  19.703  0.00  0.00    +0.000 C 
ATOM     25  C   UNL     1       1.095   3.642  20.759  0.00  0.00    +0.000 C 
BRANCH  24  26
ATOM     26  C   UNL     1       1.841   1.806  19.225  0.00  0.00    +0.000 C 
BRANCH  26  27
ATOM     27  O   UNL     1       2.518   1.511  18.008  0.00  0.00    +0.000 OA
ATOM     28  H   UNL     1       3.287   2.105  17.955  0.00  0.00    +0.000 HD
ENDBRANCH  26  27
ENDBRANCH  24  26
ENDBRANCH  22  24
BRANCH  22  29
ATOM     29  O   UNL     1       4.125   2.039  20.498  0.00  0.00    +0.000 OA
ATOM     30  H   UNL     1       3.641   1.682  21.268  0.00  0.00    +0.000 HD
ENDBRANCH  22  29
ENDBRANCH  18  22
ENDBRANCH  17  20
ENDBRANCH   1  17
TORSDOF 11
ENDMDL
MODEL 7
REMARK VINA RESULT:      -6.9      1.340      1.527
REMARK  Name = 
REMARK  13 active torsions:
REMARK  status: ('A' for Active; 'I' for Inactive)
REMARK    1  A    between atoms: C_1  and  C_2
REMARK    2  A    between atoms: C_2  and  C_3
REMARK    3  A    between atoms: C_2  and  C_4
REMARK    4  A    between atoms: C_2  and  C_6
REMARK    5  A    between atoms: C_4  and  O_5
REMARK    6  A    between atoms: C_6  and  O_7
REMARK    7  A    between atoms: C_6  and  C_8
REMARK    8  A    between atoms: N_10  and  C_11
REMARK    9  A    between atoms: C_11  and  C_12
REMARK   10  A    between atoms: C_12  and  C_13
REMARK   11  A    between atoms: N_15  and  C_16
REMARK   12  A    between atoms: C_16  and  C_17
REMARK   13  A    between atoms: C_20  and  C_21
REMARK                            x       y       z     vdW  Elec       q    Type
REMARK                         _______ _______ _______ _____ _____    ______ ____
ROOT
ATOM      1  C   UNL     1       6.444   6.021  17.982  0.00  0.00    +0.000 C 
ENDROOT
BRANCH   1   2
ATOM      2  C   UNL     1       5.271   6.500  17.150  0.00  0.00    +0.000 C 
ATOM      3  O   UNL     1       5.209   6.344  15.934  0.00  0.00    +0.000 OA
ATOM      4  N   UNL     1       4.291   7.138  17.873  0.00  0.00    +0.000 N 
ATOM      5  H   UNL     1       4.403   7.262  18.870  0.00  0.00    +0.000 HD
BRANCH   4   6
ATOM      6  C   UNL     1       3.082   7.632  17.252  0.00  0.00    +0.000 C 
BRANCH   6   7
ATOM      7  C   UNL     1       2.188   8.320  18.250  0.00  0.00    +0.000 A 
ATOM      8  C   UNL     1       2.081   7.829  19.559  0.00  0.00    +0.000 A 
ATOM      9  C   UNL     1       1.288   8.488  20.503  0.00  0.00    +0.000 A 
ATOM     10  C   UNL     1       0.578   9.644  20.154  0.00  0.00    +0.000 A 
ATOM     11  C   UNL     1       0.660  10.116  18.834  0.00  0.00    +0.000 A 
ATOM     12  C   UNL     1       1.454   9.459  17.890  0.00  0.00    +0.000 A 
BRANCH  10  13
ATOM     13  C   UNL     1      -0.251  10.392  21.170  0.00  0.00    +0.000 C 
ATOM     14  F   UNL     1      -0.753   9.600  22.158  0.00  0.00    +0.000 F 
ATOM     15  F   UNL     1       0.458  11.370  21.800  0.00  0.00    +0.000 F 
ATOM     16  F   UNL     1      -1.324  11.013  20.608  0.00  0.00    +0.000 F 
ENDBRANCH  10  13
ENDBRANCH   6   7
ENDBRANCH   4   6
ENDBRANCH   1   2
BRANCH   1  17
ATOM     17  C   UNL     1       6.508   4.495  17.979  0.00  0.00    +0.000 C 
BRANCH  17  20
ATOM     18  C   UNL     1       4.366   3.266  18.173  0.00  0.00    +0.000 C 
ATOM     19  O   UNL     1       4.187   3.224  16.956  0.00  0.00    +0.000 OA
ATOM     20  N   UNL     1       5.447   3.885  18.760  0.00  0.00    +0.000 N 
ATOM     21  H   UNL     1       5.535   3.863  19.771  0.00  0.00    +0.000 HD
BRANCH  18  22
ATOM     22  C   UNL     1       3.357   2.623  19.151  0.00  0.00    +0.000 C 
BRANCH  22  24
ATOM     23  C   UNL     1       1.729   4.366  18.335  0.00  0.00    +0.000 C 
ATOM     24  C   UNL     1       2.227   3.601  19.582  0.00  0.00    +0.000 C 
ATOM     25  C   UNL     1       2.741   4.650  20.590  0.00  0.00    +0.000 C 
BRANCH  24  26
ATOM     26  C   UNL     1       1.047   2.841  20.217  0.00  0.00    +0.000 C 
BRANCH  26  27
ATOM     27  O   UNL     1       0.099   2.443  19.233  0.00  0.00    +0.000 OA
ATOM     28  H   UNL     1      -0.773   2.761  19.527  0.00  0.00    +0.000 HD
ENDBRANCH  26  27
ENDBRANCH  24  26
ENDBRANCH  22  24
BRANCH  22  29
ATOM     29  O   UNL     1       2.791   1.457  18.545  0.00  0.00    +0.000 OA
ATOM     30  H   UNL     1       3.401   1.200  17.826  0.00  0.00    +0.000 HD
ENDBRANCH  22  29
ENDBRANCH  18  22
ENDBRANCH  17  20
ENDBRANCH   1  17
TORSDOF 11
ENDMDL
MODEL 8
REMARK VINA RESULT:      -6.9      2.310      4.590
REMARK  Name = 
REMARK  13 active torsions:
REMARK  status: ('A' for Active; 'I' for Inactive)
REMARK    1  A    between atoms: C_1  and  C_2
REMARK    2  A    between atoms: C_2  and  C_3
REMARK    3  A    between atoms: C_2  and  C_4
REMARK    4  A    between atoms: C_2  and  C_6
REMARK    5  A    between atoms: C_4  and  O_5
REMARK    6  A    between atoms: C_6  and  O_7
REMARK    7  A    between atoms: C_6  and  C_8
REMARK    8  A    between atoms: N_10  and  C_11
REMARK    9  A    between atoms: C_11  and  C_12
REMARK   10  A    between atoms: C_12  and  C_13
REMARK   11  A    between atoms: N_15  and  C_16
REMARK   12  A    between atoms: C_16  and  C_17
REMARK   13  A    between atoms: C_20  and  C_21
REMARK                            x       y       z     vdW  Elec       q    Type
REMARK                         _______ _______ _______ _____ _____    ______ ____
ROOT
ATOM      1  C   UNL     1       3.219   1.812  18.401  0.00  0.00    +0.000 C 
ENDROOT
BRANCH   1   2
ATOM      2  C   UNL     1       3.413   2.787  19.545  0.00  0.00    +0.000 C 
ATOM      3  O   UNL     1       4.432   2.817  20.229  0.00  0.00    +0.000 OA
ATOM      4  N   UNL     1       2.345   3.626  19.758  0.00  0.00    +0.000 N 
ATOM      5  H   UNL     1       1.519   3.544  19.180  0.00  0.00    +0.000 HD
BRANCH   4   6
ATOM      6  C   UNL     1       2.365   4.644  20.784  0.00  0.00    +0.000 C 
BRANCH   6   7
ATOM      7  C   UNL     1       2.152   6.018  20.205  0.00  0.00    +0.000 A 
ATOM      8  C   UNL     1       2.586   6.313  18.905  0.00  0.00    +0.000 A 
ATOM      9  C   UNL     1       2.351   7.571  18.345  0.00  0.00    +0.000 A 
ATOM     10  C   UNL     1       1.687   8.564  19.077  0.00  0.00    +0.000 A 
ATOM     11  C   UNL     1       1.282   8.279  20.390  0.00  0.00    +0.000 A 
ATOM     12  C   UNL     1       1.515   7.020  20.951  0.00  0.00    +0.000 A 
BRANCH  10  13
ATOM     13  C   UNL     1       1.389   9.916  18.475  0.00  0.00    +0.000 C 
ATOM     14  F   UNL     1       2.350  10.358  17.616  0.00  0.00    +0.000 F 
ATOM     15  F   UNL     1       0.225   9.924  17.766  0.00  0.00    +0.000 F 
ATOM     16  F   UNL     1       1.257  10.887  19.420  0.00  0.00    +0.000 F 
ENDBRANCH  10  13
ENDBRANCH   6   7
ENDBRANCH   4   6
ENDBRANCH   1   2
BRANCH   1  17
ATOM     17  C   UNL     1       3.245   2.551  17.064  0.00  0.00    +0.000 C 
BRANCH  17  20
ATOM     18  C   UNL     1       5.026   4.148  16.421  0.00  0.00    +0.000 C 
ATOM     19  O   UNL     1       5.596   3.340  15.688  0.00  0.00    +0.000 OA
ATOM     20  N   UNL     1       3.897   3.845  17.149  0.00  0.00    +0.000 N 
ATOM     21  H   UNL     1       3.472   4.570  17.718  0.00  0.00    +0.000 HD
BRANCH  18  22
ATOM     22  C   UNL     1       5.559   5.588  16.589  0.00  0.00    +0.000 C 
BRANCH  22  24
ATOM     23  C   UNL     1       7.434   7.040  17.444  0.00  0.00    +0.000 C 
ATOM     24  C   UNL     1       6.708   5.688  17.633  0.00  0.00    +0.000 C 
ATOM     25  C   UNL     1       7.754   4.572  17.431  0.00  0.00    +0.000 C 
BRANCH  24  26
ATOM     26  C   UNL     1       6.162   5.601  19.071  0.00  0.00    +0.000 C 
BRANCH  26  27
ATOM     27  O   UNL     1       7.212   5.405  20.011  0.00  0.00    +0.000 OA
ATOM     28  H   UNL     1       7.296   4.446  20.153  0.00  0.00    +0.000 HD
ENDBRANCH  26  27
ENDBRANCH  24  26
ENDBRANCH  22  24
BRANCH  22  29
ATOM     29  O   UNL     1       6.006   6.076  15.320  0.00  0.00    +0.000 OA
ATOM     30  H   UNL     1       6.485   6.908  15.503  0.00  0.00    +0.000 HD
ENDBRANCH  22  29
ENDBRANCH  18  22
ENDBRANCH  17  20
ENDBRANCH   1  17
TORSDOF 11
ENDMDL
MODEL 9
REMARK VINA RESULT:      -6.9      1.067      1.467
REMARK  Name = 
REMARK  13 active torsions:
REMARK  status: ('A' for Active; 'I' for Inactive)
REMARK    1  A    between atoms: C_1  and  C_2
REMARK    2  A    between atoms: C_2  and  C_3
REMARK    3  A    between atoms: C_2  and  C_4
REMARK    4  A    between atoms: C_2  and  C_6
REMARK    5  A    between atoms: C_4  and  O_5
REMARK    6  A    between atoms: C_6  and  O_7
REMARK    7  A    between atoms: C_6  and  C_8
REMARK    8  A    between atoms: N_10  and  C_11
REMARK    9  A    between atoms: C_11  and  C_12
REMARK   10  A    between atoms: C_12  and  C_13
REMARK   11  A    between atoms: N_15  and  C_16
REMARK   12  A    between atoms: C_16  and  C_17
REMARK   13  A    between atoms: C_20  and  C_21
REMARK                            x       y       z     vdW  Elec       q    Type
REMARK                         _______ _______ _______ _____ _____    ______ ____
ROOT
ATOM      1  C   UNL     1       5.603   5.274  17.443  0.00  0.00    +0.000 C 
ENDROOT
BRANCH   1   2
ATOM      2  C   UNL     1       4.790   6.453  16.950  0.00  0.00    +0.000 C 
ATOM      3  O   UNL     1       5.010   7.014  15.881  0.00  0.00    +0.000 OA
ATOM      4  N   UNL     1       3.793   6.850  17.811  0.00  0.00    +0.000 N 
ATOM      5  H   UNL     1       3.670   6.369  18.691  0.00  0.00    +0.000 HD
BRANCH   4   6
ATOM      6  C   UNL     1       2.895   7.937  17.491  0.00  0.00    +0.000 C 
BRANCH   6   7
ATOM      7  C   UNL     1       2.114   8.383  18.700  0.00  0.00    +0.000 A 
ATOM      8  C   UNL     1       1.394   9.584  18.672  0.00  0.00    +0.000 A 
ATOM      9  C   UNL     1       0.631   9.983  19.774  0.00  0.00    +0.000 A 
ATOM     10  C   UNL     1       0.584   9.192  20.930  0.00  0.00    +0.000 A 
ATOM     11  C   UNL     1       1.333   8.006  20.969  0.00  0.00    +0.000 A 
ATOM     12  C   UNL     1       2.094   7.606  19.867  0.00  0.00    +0.000 A 
BRANCH  10  13
ATOM     13  C   UNL     1      -0.265   9.585  22.115  0.00  0.00    +0.000 C 
ATOM     14  F   UNL     1      -1.080   8.588  22.559  0.00  0.00    +0.000 F 
ATOM     15  F   UNL     1       0.485   9.960  23.189  0.00  0.00    +0.000 F 
ATOM     16  F   UNL     1      -1.080  10.641  21.842  0.00  0.00    +0.000 F 
ENDBRANCH  10  13
ENDBRANCH   6   7
ENDBRANCH   4   6
ENDBRANCH   1   2
BRANCH   1  17
ATOM     17  C   UNL     1       5.240   4.014  16.660  0.00  0.00    +0.000 C 
BRANCH  17  20
ATOM     18  C   UNL     1       4.362   3.001  18.744  0.00  0.00    +0.000 C 
ATOM     19  O   UNL     1       5.213   3.535  19.455  0.00  0.00    +0.000 OA
ATOM     20  N   UNL     1       4.315   3.153  17.376  0.00  0.00    +0.000 N 
ATOM     21  H   UNL     1       3.572   2.695  16.857  0.00  0.00    +0.000 HD
BRANCH  18  22
ATOM     22  C   UNL     1       3.271   2.091  19.349  0.00  0.00    +0.000 C 
BRANCH  22  24
ATOM     23  C   UNL     1       0.813   2.347  18.850  0.00  0.00    +0.000 C 
ATOM     24  C   UNL     1       1.977   2.867  19.724  0.00  0.00    +0.000 C 
ATOM     25  C   UNL     1       2.122   4.378  19.445  0.00  0.00    +0.000 C 
BRANCH  24  26
ATOM     26  C   UNL     1       1.623   2.671  21.211  0.00  0.00    +0.000 C 
BRANCH  26  27
ATOM     27  O   UNL     1       2.792   2.482  22.000  0.00  0.00    +0.000 OA
ATOM     28  H   UNL     1       3.084   1.563  21.868  0.00  0.00    +0.000 HD
ENDBRANCH  26  27
ENDBRANCH  24  26
ENDBRANCH  22  24
BRANCH  22  29
ATOM     29  O   UNL     1       2.962   1.045  18.420  0.00  0.00    +0.000 OA
ATOM     30  H   UNL     1       2.795   0.246  18.957  0.00  0.00    +0.000 HD
ENDBRANCH  22  29
ENDBRANCH  18  22
ENDBRANCH  17  20
ENDBRANCH   1  17
TORSDOF 11
ENDMDL
