MODEL 1
REMARK VINA RESULT:      -7.1      0.000      0.000
REMARK  Name = 
REMARK  4 active torsions:
REMARK  status: ('A' for Active; 'I' for Inactive)
REMARK    1  A    between atoms: C_1  and  N_2
REMARK    2  A    between atoms: C_4  and  C_5
REMARK    3  A    between atoms: N_13  and  C_14
REMARK    4  A    between atoms: C_19  and  N_20
REMARK                            x       y       z     vdW  Elec       q    Type
REMARK                         _______ _______ _______ _____ _____    ______ ____
ROOT
ATOM      1  C   UNL     1      -0.292   9.109  22.878  0.00  0.00    +0.000 C 
ATOM      2  N   UNL     1      -0.068  10.392  22.262  0.00  0.00    +0.000 N 
ATOM      3  N   UNL     1      -0.468  11.514  22.911  0.00  0.00    +0.000 NA
ATOM      4  C   UNL     1      -0.203  12.525  22.052  0.00  0.00    +0.000 A 
ATOM      5  C   UNL     1       0.332  12.015  20.841  0.00  0.00    +0.000 A 
ATOM      6  C   UNL     1       0.441  10.646  21.021  0.00  0.00    +0.000 A 
ATOM      7  C   UNL     1       0.977   9.749  20.009  0.00  0.00    +0.000 A 
ATOM      8  N   UNL     1       1.306   8.495  20.367  0.00  0.00    +0.000 NA
ATOM      9  C   UNL     1       1.869   7.741  19.408  0.00  0.00    +0.000 A 
ATOM     10  N   UNL     1       2.199   6.427  19.741  0.00  0.00    +0.000 N 
ATOM     11  N   UNL     1       2.120   8.182  18.159  0.00  0.00    +0.000 NA
ATOM     12  C   UNL     1       1.742   9.432  17.840  0.00  0.00    +0.000 A 
ATOM     13  C   UNL     1       1.167  10.283  18.742  0.00  0.00    +0.000 A 
ATOM     14  C   UNL     1       0.674  11.667  18.390  0.00  0.00    +0.000 C 
ATOM     15  C   UNL     1       0.770  12.666  19.570  0.00  0.00    +0.000 C 
ATOM     16  H   UNL     1       2.107   6.297  20.738  0.00  0.00    +0.000 HD
ENDROOT
BRANCH  10  17
ATOM     17  C   UNL     1       3.173   5.594  19.146  0.00  0.00    +0.000 A 
ATOM     18  C   UNL     1       4.515   5.837  19.480  0.00  0.00    +0.000 A 
ATOM     19  C   UNL     1       5.551   5.086  18.918  0.00  0.00    +0.000 A 
ATOM     20  C   UNL     1       5.261   4.107  17.975  0.00  0.00    +0.000 A 
ATOM     21  C   UNL     1       3.938   3.889  17.589  0.00  0.00    +0.000 A 
ATOM     22  C   UNL     1       2.881   4.597  18.182  0.00  0.00    +0.000 A 
BRANCH  22  23
ATOM     23  N   UNL     1       1.596   4.459  17.609  0.00  0.00    +0.000 N 
ATOM     24  H   UNL     1       1.273   3.497  17.611  0.00  0.00    +0.000 HD
ATOM     25  H   UNL     1       0.926   5.060  18.082  0.00  0.00    +0.000 HD
ENDBRANCH  22  23
ENDBRANCH  10  17
BRANCH   4  26
ATOM     26  C   UNL     1      -0.469  13.928  22.405  0.00  0.00    +0.000 C 
ATOM     27  N   UNL     1      -1.777  14.310  22.293  0.00  0.00    +0.000 N 
ATOM     28  O   UNL     1       0.396  14.721  22.767  0.00  0.00    +0.000 OA
ATOM     29  H   UNL     1      -2.454  13.646  21.934  0.00  0.00    +0.000 HD
ATOM     30  H   UNL     1      -2.036  15.266  22.487  0.00  0.00    +0.000 HD
ENDBRANCH   4  26
TORSDOF 3
ENDMDL
MODEL 2
REMARK VINA RESULT:      -6.9      1.937      2.990
REMARK  Name = 
REMARK  4 active torsions:
REMARK  status: ('A' for Active; 'I' for Inactive)
REMARK    1  A    between atoms: C_1  and  N_2
REMARK    2  A    between atoms: C_4  and  C_5
REMARK    3  A    between atoms: N_13  and  C_14
REMARK    4  A    between atoms: C_19  and  N_20
REMARK                            x       y       z     vdW  Elec       q    Type
REMARK                         _______ _______ _______ _____ _____    ______ ____
ROOT
ATOM      1  C   UNL     1       2.254  11.537  17.818  0.00  0.00    +0.000 C 
ATOM      2  N   UNL     1       1.163  11.693  18.745  0.00  0.00    +0.000 N 
ATOM      3  N   UNL     1       0.495  12.873  18.785  0.00  0.00    +0.000 NA
ATOM      4  C   UNL     1      -0.392  12.734  19.797  0.00  0.00    +0.000 A 
ATOM      5  C   UNL     1      -0.242  11.466  20.414  0.00  0.00    +0.000 A 
ATOM      6  C   UNL     1       0.739  10.806  19.692  0.00  0.00    +0.000 A 
ATOM      7  C   UNL     1       1.175   9.451  19.993  0.00  0.00    +0.000 A 
ATOM      8  N   UNL     1       1.916   8.795  19.082  0.00  0.00    +0.000 NA
ATOM      9  C   UNL     1       2.220   7.521  19.383  0.00  0.00    +0.000 A 
ATOM     10  N   UNL     1       3.009   6.822  18.470  0.00  0.00    +0.000 N 
ATOM     11  N   UNL     1       1.813   6.900  20.507  0.00  0.00    +0.000 NA
ATOM     12  C   UNL     1       1.103   7.608  21.402  0.00  0.00    +0.000 A 
ATOM     13  C   UNL     1       0.735   8.907  21.192  0.00  0.00    +0.000 A 
ATOM     14  C   UNL     1      -0.005   9.743  22.210  0.00  0.00    +0.000 C 
ATOM     15  C   UNL     1      -0.928  10.809  21.567  0.00  0.00    +0.000 C 
ATOM     16  H   UNL     1       3.095   7.355  17.617  0.00  0.00    +0.000 HD
ENDROOT
BRANCH  10  17
ATOM     17  C   UNL     1       3.091   5.424  18.279  0.00  0.00    +0.000 A 
ATOM     18  C   UNL     1       1.934   4.771  17.823  0.00  0.00    +0.000 A 
ATOM     19  C   UNL     1       1.908   3.387  17.634  0.00  0.00    +0.000 A 
ATOM     20  C   UNL     1       3.030   2.627  17.942  0.00  0.00    +0.000 A 
ATOM     21  C   UNL     1       4.170   3.251  18.448  0.00  0.00    +0.000 A 
ATOM     22  C   UNL     1       4.232   4.646  18.594  0.00  0.00    +0.000 A 
BRANCH  22  23
ATOM     23  N   UNL     1       5.341   5.184  19.286  0.00  0.00    +0.000 N 
ATOM     24  H   UNL     1       5.586   4.640  20.106  0.00  0.00    +0.000 HD
ATOM     25  H   UNL     1       6.142   5.273  18.666  0.00  0.00    +0.000 HD
ENDBRANCH  22  23
ENDBRANCH  10  17
BRANCH   4  26
ATOM     26  C   UNL     1      -1.342  13.804  20.144  0.00  0.00    +0.000 C 
ATOM     27  N   UNL     1      -2.655  13.503  19.909  0.00  0.00    +0.000 N 
ATOM     28  O   UNL     1      -1.011  14.894  20.603  0.00  0.00    +0.000 OA
ATOM     29  H   UNL     1      -2.886  12.617  19.475  0.00  0.00    +0.000 HD
ATOM     30  H   UNL     1      -3.365  14.196  20.092  0.00  0.00    +0.000 HD
ENDBRANCH   4  26
TORSDOF 3
ENDMDL
MODEL 3
REMARK VINA RESULT:      -6.9      1.309      1.322
REMARK  Name = 
REMARK  4 active torsions:
REMARK  status: ('A' for Active; 'I' for Inactive)
REMARK    1  A    between atoms: C_1  and  N_2
REMARK    2  A    between atoms: C_4  and  C_5
REMARK    3  A    between atoms: N_13  and  C_14
REMARK    4  A    between atoms: C_19  and  N_20
REMARK                            x       y       z     vdW  Elec       q    Type
REMARK                         _______ _______ _______ _____ _____    ______ ____
ROOT
ATOM      1  C   UNL     1      -0.536   9.554  23.081  0.00  0.00    +0.000 C 
ATOM      2  N   UNL     1      -0.078  10.674  22.299  0.00  0.00    +0.000 N 
ATOM      3  N   UNL     1      -0.361  11.932  22.720  0.00  0.00    +0.000 NA
ATOM      4  C   UNL     1       0.117  12.739  21.745  0.00  0.00    +0.000 A 
ATOM      5  C   UNL     1       0.669  11.965  20.691  0.00  0.00    +0.000 A 
ATOM      6  C   UNL     1       0.562  10.644  21.094  0.00  0.00    +0.000 A 
ATOM      7  C   UNL     1       1.041   9.526  20.296  0.00  0.00    +0.000 A 
ATOM      8  N   UNL     1       1.153   8.319  20.878  0.00  0.00    +0.000 NA
ATOM      9  C   UNL     1       1.676   7.346  20.112  0.00  0.00    +0.000 A 
ATOM     10  N   UNL     1       1.782   6.076  20.680  0.00  0.00    +0.000 N 
ATOM     11  N   UNL     1       2.088   7.533  18.843  0.00  0.00    +0.000 NA
ATOM     12  C   UNL     1       1.924   8.748  18.294  0.00  0.00    +0.000 A 
ATOM     13  C   UNL     1       1.409   9.808  18.987  0.00  0.00    +0.000 A 
ATOM     14  C   UNL     1       1.154  11.165  18.374  0.00  0.00    +0.000 C 
ATOM     15  C   UNL     1       1.299  12.328  19.387  0.00  0.00    +0.000 C 
ATOM     16  H   UNL     1       1.591   6.130  21.670  0.00  0.00    +0.000 HD
ENDROOT
BRANCH  10  17
ATOM     17  C   UNL     1       2.668   5.034  20.326  0.00  0.00    +0.000 A 
ATOM     18  C   UNL     1       3.871   5.401  19.700  0.00  0.00    +0.000 A 
ATOM     19  C   UNL     1       4.796   4.439  19.285  0.00  0.00    +0.000 A 
ATOM     20  C   UNL     1       4.509   3.089  19.450  0.00  0.00    +0.000 A 
ATOM     21  C   UNL     1       3.296   2.704  20.019  0.00  0.00    +0.000 A 
ATOM     22  C   UNL     1       2.378   3.657  20.491  0.00  0.00    +0.000 A 
BRANCH  22  23
ATOM     23  N   UNL     1       1.098   3.199  20.877  0.00  0.00    +0.000 N 
ATOM     24  H   UNL     1       0.761   3.657  21.717  0.00  0.00    +0.000 HD
ATOM     25  H   UNL     1       0.431   3.314  20.118  0.00  0.00    +0.000 HD
ENDBRANCH  22  23
ENDBRANCH  10  17
BRANCH   4  26
ATOM     26  C   UNL     1       0.032  14.204  21.844  0.00  0.00    +0.000 C 
ATOM     27  N   UNL     1      -0.928  14.777  21.058  0.00  0.00    +0.000 N 
ATOM     28  O   UNL     1       0.757  14.887  22.562  0.00  0.00    +0.000 OA
ATOM     29  H   UNL     1      -1.469  14.188  20.434  0.00  0.00    +0.000 HD
ATOM     30  H   UNL     1      -1.029  15.781  21.046  0.00  0.00    +0.000 HD
ENDBRANCH   4  26
TORSDOF 3
ENDMDL
MODEL 4
REMARK VINA RESULT:      -6.6      1.887      2.987
REMARK  Name = 
REMARK  4 active torsions:
REMARK  status: ('A' for Active; 'I' for Inactive)
REMARK    1  A    between atoms: C_1  and  N_2
REMARK    2  A    between atoms: C_4  and  C_5
REMARK    3  A    between atoms: N_13  and  C_14
REMARK    4  A    between atoms: C_19  and  N_20
REMARK                            x       y       z     vdW  Elec       q    Type
REMARK                         _______ _______ _______ _____ _____    ______ ____
ROOT
ATOM      1  C   UNL     1       0.112  12.073  18.510  0.00  0.00    +0.000 C 
ATOM      2  N   UNL     1      -0.542  11.874  19.778  0.00  0.00    +0.000 N 
ATOM      3  N   UNL     1      -1.443  12.793  20.206  0.00  0.00    +0.000 NA
ATOM      4  C   UNL     1      -1.804  12.375  21.441  0.00  0.00    +0.000 A 
ATOM      5  C   UNL     1      -1.087  11.202  21.794  0.00  0.00    +0.000 A 
ATOM      6  C   UNL     1      -0.312  10.885  20.690  0.00  0.00    +0.000 A 
ATOM      7  C   UNL     1       0.560   9.722  20.636  0.00  0.00    +0.000 A 
ATOM      8  N   UNL     1       1.050   9.338  19.444  0.00  0.00    +0.000 NA
ATOM      9  C   UNL     1       1.785   8.213  19.448  0.00  0.00    +0.000 A 
ATOM     10  N   UNL     1       2.327   7.801  18.231  0.00  0.00    +0.000 N 
ATOM     11  N   UNL     1       2.023   7.479  20.553  0.00  0.00    +0.000 NA
ATOM     12  C   UNL     1       1.541   7.922  21.727  0.00  0.00    +0.000 A 
ATOM     13  C   UNL     1       0.777   9.051  21.832  0.00  0.00    +0.000 A 
ATOM     14  C   UNL     1       0.280   9.606  23.146  0.00  0.00    +0.000 C 
ATOM     15  C   UNL     1      -1.073  10.350  23.020  0.00  0.00    +0.000 C 
ATOM     16  H   UNL     1       1.932   8.349  17.480  0.00  0.00    +0.000 HD
ENDROOT
BRANCH  10  17
ATOM     17  C   UNL     1       2.713   6.498  17.843  0.00  0.00    +0.000 A 
ATOM     18  C   UNL     1       1.769   5.473  18.016  0.00  0.00    +0.000 A 
ATOM     19  C   UNL     1       2.068   4.147  17.692  0.00  0.00    +0.000 A 
ATOM     20  C   UNL     1       3.338   3.820  17.229  0.00  0.00    +0.000 A 
ATOM     21  C   UNL     1       4.306   4.815  17.104  0.00  0.00    +0.000 A 
ATOM     22  C   UNL     1       4.007   6.160  17.375  0.00  0.00    +0.000 A 
BRANCH  22  23
ATOM     23  N   UNL     1       5.082   7.078  17.408  0.00  0.00    +0.000 N 
ATOM     24  H   UNL     1       5.574   7.128  16.523  0.00  0.00    +0.000 HD
ATOM     25  H   UNL     1       4.757   8.000  17.688  0.00  0.00    +0.000 HD
ENDBRANCH  22  23
ENDBRANCH  10  17
BRANCH   4  26
ATOM     26  C   UNL     1      -2.806  13.098  22.240  0.00  0.00    +0.000 C 
ATOM     27  N   UNL     1      -3.963  12.408  22.471  0.00  0.00    +0.000 N 
ATOM     28  O   UNL     1      -2.647  14.237  22.673  0.00  0.00    +0.000 OA
ATOM     29  H   UNL     1      -4.082  11.493  22.049  0.00  0.00    +0.000 HD
ATOM     30  H   UNL     1      -4.711  12.847  22.985  0.00  0.00    +0.000 HD
ENDBRANCH   4  26
TORSDOF 3
ENDMDL
MODEL 5
REMARK VINA RESULT:      -6.6      3.684      8.276
REMARK  Name = 
REMARK  4 active torsions:
REMARK  status: ('A' for Active; 'I' for Inactive)
REMARK    1  A    between atoms: C_1  and  N_2
REMARK    2  A    between atoms: C_4  and  C_5
REMARK    3  A    between atoms: N_13  and  C_14
REMARK    4  A    between atoms: C_19  and  N_20
REMARK                            x       y       z     vdW  Elec       q    Type
REMARK                         _______ _______ _______ _____ _____    ______ ____
ROOT
ATOM      1  C   UNL     1       2.025   5.085  21.649  0.00  0.00    +0.000 C 
ATOM      2  N   UNL     1       2.642   4.510  20.481  0.00  0.00    +0.000 N 
ATOM      3  N   UNL     1       2.998   3.201  20.501  0.00  0.00    +0.000 NA
ATOM      4  C   UNL     1       3.617   2.993  19.317  0.00  0.00    +0.000 A 
ATOM      5  C   UNL     1       3.677   4.199  18.572  0.00  0.00    +0.000 A 
ATOM      6  C   UNL     1       3.008   5.147  19.331  0.00  0.00    +0.000 A 
ATOM      7  C   UNL     1       2.823   6.524  18.903  0.00  0.00    +0.000 A 
ATOM      8  N   UNL     1       1.932   7.289  19.560  0.00  0.00    +0.000 NA
ATOM      9  C   UNL     1       1.748   8.526  19.068  0.00  0.00    +0.000 A 
ATOM     10  N   UNL     1       0.849   9.353  19.741  0.00  0.00    +0.000 N 
ATOM     11  N   UNL     1       2.384   9.001  17.978  0.00  0.00    +0.000 NA
ATOM     12  C   UNL     1       3.290   8.211  17.377  0.00  0.00    +0.000 A 
ATOM     13  C   UNL     1       3.548   6.934  17.793  0.00  0.00    +0.000 A 
ATOM     14  C   UNL     1       4.607   6.051  17.176  0.00  0.00    +0.000 C 
ATOM     15  C   UNL     1       4.255   4.544  17.239  0.00  0.00    +0.000 C 
ATOM     16  H   UNL     1       0.338   8.813  20.424  0.00  0.00    +0.000 HD
ENDROOT
BRANCH  10  17
ATOM     17  C   UNL     1       0.127  10.456  19.232  0.00  0.00    +0.000 A 
ATOM     18  C   UNL     1      -0.976  10.175  18.409  0.00  0.00    +0.000 A 
ATOM     19  C   UNL     1      -1.732  11.199  17.833  0.00  0.00    +0.000 A 
ATOM     20  C   UNL     1      -1.366  12.525  18.036  0.00  0.00    +0.000 A 
ATOM     21  C   UNL     1      -0.241  12.821  18.805  0.00  0.00    +0.000 A 
ATOM     22  C   UNL     1       0.498  11.808  19.435  0.00  0.00    +0.000 A 
BRANCH  22  23
ATOM     23  N   UNL     1       1.726  12.168  20.035  0.00  0.00    +0.000 N 
ATOM     24  H   UNL     1       2.414  11.424  19.985  0.00  0.00    +0.000 HD
ATOM     25  H   UNL     1       2.093  13.020  19.618  0.00  0.00    +0.000 HD
ENDBRANCH  22  23
ENDBRANCH  10  17
BRANCH   4  26
ATOM     26  C   UNL     1       4.131   1.668  18.936  0.00  0.00    +0.000 C 
ATOM     27  N   UNL     1       5.019   1.121  19.820  0.00  0.00    +0.000 N 
ATOM     28  O   UNL     1       3.812   1.077  17.908  0.00  0.00    +0.000 OA
ATOM     29  H   UNL     1       5.305   1.663  20.628  0.00  0.00    +0.000 HD
ATOM     30  H   UNL     1       5.441   0.228  19.615  0.00  0.00    +0.000 HD
ENDBRANCH   4  26
TORSDOF 3
ENDMDL
MODEL 6
REMARK VINA RESULT:      -6.3      2.282      3.207
REMARK  Name = 
REMARK  4 active torsions:
REMARK  status: ('A' for Active; 'I' for Inactive)
REMARK    1  A    between atoms: C_1  and  N_2
REMARK    2  A    between atoms: C_4  and  C_5
REMARK    3  A    between atoms: N_13  and  C_14
REMARK    4  A    between atoms: C_19  and  N_20
REMARK                            x       y       z     vdW  Elec       q    Type
REMARK                         _______ _______ _______ _____ _____    ______ ____
ROOT
ATOM      1  C   UNL     1       2.588  11.640  18.048  0.00  0.00    +0.000 C 
ATOM      2  N   UNL     1       1.442  12.062  18.812  0.00  0.00    +0.000 N 
ATOM      3  N   UNL     1       1.001  13.339  18.687  0.00  0.00    +0.000 NA
ATOM      4  C   UNL     1      -0.010  13.445  19.580  0.00  0.00    +0.000 A 
ATOM      5  C   UNL     1      -0.169  12.227  20.292  0.00  0.00    +0.000 A 
ATOM      6  C   UNL     1       0.754  11.347  19.749  0.00  0.00    +0.000 A 
ATOM      7  C   UNL     1       0.895   9.969  20.190  0.00  0.00    +0.000 A 
ATOM      8  N   UNL     1       1.607   9.118  19.430  0.00  0.00    +0.000 NA
ATOM      9  C   UNL     1       1.634   7.841  19.849  0.00  0.00    +0.000 A 
ATOM     10  N   UNL     1       2.384   6.939  19.094  0.00  0.00    +0.000 N 
ATOM     11  N   UNL     1       0.990   7.399  20.947  0.00  0.00    +0.000 NA
ATOM     12  C   UNL     1       0.321   8.295  21.693  0.00  0.00    +0.000 A 
ATOM     13  C   UNL     1       0.224   9.615  21.353  0.00  0.00    +0.000 A 
ATOM     14  C   UNL     1      -0.465  10.652  22.209  0.00  0.00    +0.000 C 
ATOM     15  C   UNL     1      -1.095  11.802  21.383  0.00  0.00    +0.000 C 
ATOM     16  H   UNL     1       2.667   7.373  18.228  0.00  0.00    +0.000 HD
ENDROOT
BRANCH  10  17
ATOM     17  C   UNL     1       2.231   5.537  19.005  0.00  0.00    +0.000 A 
ATOM     18  C   UNL     1       1.768   5.020  17.784  0.00  0.00    +0.000 A 
ATOM     19  C   UNL     1       1.556   3.650  17.610  0.00  0.00    +0.000 A 
ATOM     20  C   UNL     1       1.760   2.778  18.673  0.00  0.00    +0.000 A 
ATOM     21  C   UNL     1       2.166   3.280  19.909  0.00  0.00    +0.000 A 
ATOM     22  C   UNL     1       2.436   4.646  20.088  0.00  0.00    +0.000 A 
BRANCH  22  23
ATOM     23  N   UNL     1       2.657   5.104  21.407  0.00  0.00    +0.000 N 
ATOM     24  H   UNL     1       2.511   4.377  22.098  0.00  0.00    +0.000 HD
ATOM     25  H   UNL     1       3.589   5.499  21.498  0.00  0.00    +0.000 HD
ENDBRANCH  22  23
ENDBRANCH  10  17
BRANCH   4  26
ATOM     26  C   UNL     1      -0.782  14.688  19.729  0.00  0.00    +0.000 C 
ATOM     27  N   UNL     1      -0.708  15.541  18.663  0.00  0.00    +0.000 N 
ATOM     28  O   UNL     1      -1.444  14.970  20.724  0.00  0.00    +0.000 OA
ATOM     29  H   UNL     1      -0.105  15.302  17.884  0.00  0.00    +0.000 HD
ATOM     30  H   UNL     1      -1.185  16.429  18.701  0.00  0.00    +0.000 HD
ENDBRANCH   4  26
TORSDOF 3
ENDMDL
MODEL 7
REMARK VINA RESULT:      -6.3      3.599      9.096
REMARK  Name = 
REMARK  4 active torsions:
REMARK  status: ('A' for Active; 'I' for Inactive)
REMARK    1  A    between atoms: C_1  and  N_2
REMARK    2  A    between atoms: C_4  and  C_5
REMARK    3  A    between atoms: N_13  and  C_14
REMARK    4  A    between atoms: C_19  and  N_20
REMARK                            x       y       z     vdW  Elec       q    Type
REMARK                         _______ _______ _______ _____ _____    ______ ____
ROOT
ATOM      1  C   UNL     1       0.056   9.565  23.596  0.00  0.00    +0.000 C 
ATOM      2  N   UNL     1       0.260   9.518  22.171  0.00  0.00    +0.000 N 
ATOM      3  N   UNL     1       1.091   8.579  21.654  0.00  0.00    +0.000 NA
ATOM      4  C   UNL     1       1.138   8.849  20.330  0.00  0.00    +0.000 A 
ATOM      5  C   UNL     1       0.355   9.994  20.032  0.00  0.00    +0.000 A 
ATOM      6  C   UNL     1      -0.226  10.379  21.229  0.00  0.00    +0.000 A 
ATOM      7  C   UNL     1      -1.133  11.509  21.348  0.00  0.00    +0.000 A 
ATOM      8  N   UNL     1      -1.861  11.637  22.471  0.00  0.00    +0.000 NA
ATOM      9  C   UNL     1      -2.737  12.656  22.489  0.00  0.00    +0.000 A 
ATOM     10  N   UNL     1      -3.490  12.829  23.650  0.00  0.00    +0.000 N 
ATOM     11  N   UNL     1      -2.916  13.507  21.459  0.00  0.00    +0.000 NA
ATOM     12  C   UNL     1      -2.140  13.360  20.372  0.00  0.00    +0.000 A 
ATOM     13  C   UNL     1      -1.223  12.353  20.249  0.00  0.00    +0.000 A 
ATOM     14  C   UNL     1      -0.294  12.206  19.067  0.00  0.00    +0.000 C 
ATOM     15  C   UNL     1       0.076  10.732  18.764  0.00  0.00    +0.000 C 
ATOM     16  H   UNL     1      -3.368  12.032  24.256  0.00  0.00    +0.000 HD
ENDROOT
BRANCH  10  17
ATOM     17  C   UNL     1      -4.746  13.463  23.789  0.00  0.00    +0.000 A 
ATOM     18  C   UNL     1      -5.877  12.634  23.860  0.00  0.00    +0.000 A 
ATOM     19  C   UNL     1      -7.164  13.170  23.967  0.00  0.00    +0.000 A 
ATOM     20  C   UNL     1      -7.341  14.548  23.960  0.00  0.00    +0.000 A 
ATOM     21  C   UNL     1      -6.233  15.387  23.834  0.00  0.00    +0.000 A 
ATOM     22  C   UNL     1      -4.930  14.868  23.780  0.00  0.00    +0.000 A 
BRANCH  22  23
ATOM     23  N   UNL     1      -3.881  15.762  23.464  0.00  0.00    +0.000 N 
ATOM     24  H   UNL     1      -3.015  15.280  23.249  0.00  0.00    +0.000 HD
ATOM     25  H   UNL     1      -4.149  16.371  22.695  0.00  0.00    +0.000 HD
ENDBRANCH  22  23
ENDBRANCH  10  17
BRANCH   4  26
ATOM     26  C   UNL     1       1.922   8.021  19.400  0.00  0.00    +0.000 C 
ATOM     27  N   UNL     1       2.461   6.892  19.951  0.00  0.00    +0.000 N 
ATOM     28  O   UNL     1       2.102   8.299  18.217  0.00  0.00    +0.000 OA
ATOM     29  H   UNL     1       2.340   6.724  20.944  0.00  0.00    +0.000 HD
ATOM     30  H   UNL     1       3.038   6.287  19.386  0.00  0.00    +0.000 HD
ENDBRANCH   4  26
TORSDOF 3
ENDMDL
MODEL 8
REMARK VINA RESULT:      -6.2      1.417      1.800
REMARK  Name = 
REMARK  4 active torsions:
REMARK  status: ('A' for Active; 'I' for Inactive)
REMARK    1  A    between atoms: C_1  and  N_2
REMARK    2  A    between atoms: C_4  and  C_5
REMARK    3  A    between atoms: N_13  and  C_14
REMARK    4  A    between atoms: C_19  and  N_20
REMARK                            x       y       z     vdW  Elec       q    Type
REMARK                         _______ _______ _______ _____ _____    ______ ____
ROOT
ATOM      1  C   UNL     1      -0.369   9.244  22.605  0.00  0.00    +0.000 C 
ATOM      2  N   UNL     1       0.186  10.343  21.857  0.00  0.00    +0.000 N 
ATOM      3  N   UNL     1      -0.023  11.610  22.294  0.00  0.00    +0.000 NA
ATOM      4  C   UNL     1       0.535  12.399  21.349  0.00  0.00    +0.000 A 
ATOM      5  C   UNL     1       1.062  11.608  20.295  0.00  0.00    +0.000 A 
ATOM      6  C   UNL     1       0.855  10.290  20.669  0.00  0.00    +0.000 A 
ATOM      7  C   UNL     1       1.280   9.157  19.863  0.00  0.00    +0.000 A 
ATOM      8  N   UNL     1       1.293   7.935  20.424  0.00  0.00    +0.000 NA
ATOM      9  C   UNL     1       1.770   6.942  19.654  0.00  0.00    +0.000 A 
ATOM     10  N   UNL     1       1.774   5.658  20.200  0.00  0.00    +0.000 N 
ATOM     11  N   UNL     1       2.230   7.122  18.400  0.00  0.00    +0.000 NA
ATOM     12  C   UNL     1       2.163   8.356  17.871  0.00  0.00    +0.000 A 
ATOM     13  C   UNL     1       1.702   9.436  18.570  0.00  0.00    +0.000 A 
ATOM     14  C   UNL     1       1.556  10.817  17.976  0.00  0.00    +0.000 C 
ATOM     15  C   UNL     1       1.752  11.950  19.015  0.00  0.00    +0.000 C 
ATOM     16  H   UNL     1       1.560   5.707  21.185  0.00  0.00    +0.000 HD
ENDROOT
BRANCH  10  17
ATOM     17  C   UNL     1       2.597   4.564  19.850  0.00  0.00    +0.000 A 
ATOM     18  C   UNL     1       2.026   3.283  19.930  0.00  0.00    +0.000 A 
ATOM     19  C   UNL     1       2.770   2.138  19.634  0.00  0.00    +0.000 A 
ATOM     20  C   UNL     1       4.113   2.254  19.297  0.00  0.00    +0.000 A 
ATOM     21  C   UNL     1       4.712   3.513  19.267  0.00  0.00    +0.000 A 
ATOM     22  C   UNL     1       3.967   4.679  19.509  0.00  0.00    +0.000 A 
BRANCH  22  23
ATOM     23  N   UNL     1       4.677   5.894  19.647  0.00  0.00    +0.000 N 
ATOM     24  H   UNL     1       5.661   5.794  19.425  0.00  0.00    +0.000 HD
ATOM     25  H   UNL     1       4.256   6.623  19.077  0.00  0.00    +0.000 HD
ENDBRANCH  22  23
ENDBRANCH  10  17
BRANCH   4  26
ATOM     26  C   UNL     1       0.547  13.865  21.473  0.00  0.00    +0.000 C 
ATOM     27  N   UNL     1      -0.367  14.515  20.690  0.00  0.00    +0.000 N 
ATOM     28  O   UNL     1       1.309  14.486  22.209  0.00  0.00    +0.000 OA
ATOM     29  H   UNL     1      -0.940  13.974  20.052  0.00  0.00    +0.000 HD
ATOM     30  H   UNL     1      -0.401  15.523  20.696  0.00  0.00    +0.000 HD
ENDBRANCH   4  26
TORSDOF 3
ENDMDL
MODEL 9
REMARK VINA RESULT:      -6.2      4.311      9.404
REMARK  Name = 
REMARK  4 active torsions:
REMARK  status: ('A' for Active; 'I' for Inactive)
REMARK    1  A    between atoms: C_1  and  N_2
REMARK    2  A    between atoms: C_4  and  C_5
REMARK    3  A    between atoms: N_13  and  C_14
REMARK    4  A    between atoms: C_19  and  N_20
REMARK                            x       y       z     vdW  Elec       q    Type
REMARK                         _______ _______ _______ _____ _____    ______ ____
ROOT
ATOM      1  C   UNL     1       0.499  12.794  21.219  0.00  0.00    +0.000 C 
ATOM      2  N   UNL     1       0.284  11.739  20.261  0.00  0.00    +0.000 N 
ATOM      3  N   UNL     1       1.344  11.003  19.843  0.00  0.00    +0.000 NA
ATOM      4  C   UNL     1       0.839  10.174  18.901  0.00  0.00    +0.000 A 
ATOM      5  C   UNL     1      -0.543  10.429  18.709  0.00  0.00    +0.000 A 
ATOM      6  C   UNL     1      -0.878  11.414  19.623  0.00  0.00    +0.000 A 
ATOM      7  C   UNL     1      -2.225  11.945  19.766  0.00  0.00    +0.000 A 
ATOM      8  N   UNL     1      -2.516  12.682  20.853  0.00  0.00    +0.000 NA
ATOM      9  C   UNL     1      -3.795  13.076  20.967  0.00  0.00    +0.000 A 
ATOM     10  N   UNL     1      -4.124  13.863  22.071  0.00  0.00    +0.000 N 
ATOM     11  N   UNL     1      -4.758  12.759  20.079  0.00  0.00    +0.000 NA
ATOM     12  C   UNL     1      -4.411  12.050  18.992  0.00  0.00    +0.000 A 
ATOM     13  C   UNL     1      -3.140  11.594  18.782  0.00  0.00    +0.000 A 
ATOM     14  C   UNL     1      -2.710  10.853  17.538  0.00  0.00    +0.000 C 
ATOM     15  C   UNL     1      -1.569   9.838  17.798  0.00  0.00    +0.000 C 
ATOM     16  H   UNL     1      -3.350  13.877  22.720  0.00  0.00    +0.000 HD
ENDROOT
BRANCH  10  17
ATOM     17  C   UNL     1      -5.386  14.021  22.686  0.00  0.00    +0.000 A 
ATOM     18  C   UNL     1      -5.793  13.016  23.579  0.00  0.00    +0.000 A 
ATOM     19  C   UNL     1      -7.038  13.068  24.212  0.00  0.00    +0.000 A 
ATOM     20  C   UNL     1      -7.916  14.107  23.925  0.00  0.00    +0.000 A 
ATOM     21  C   UNL     1      -7.551  15.084  22.998  0.00  0.00    +0.000 A 
ATOM     22  C   UNL     1      -6.284  15.077  22.393  0.00  0.00    +0.000 A 
BRANCH  22  23
ATOM     23  N   UNL     1      -6.060  15.982  21.331  0.00  0.00    +0.000 N 
ATOM     24  H   UNL     1      -6.924  16.309  20.913  0.00  0.00    +0.000 HD
ATOM     25  H   UNL     1      -5.496  16.769  21.644  0.00  0.00    +0.000 HD
ENDBRANCH  22  23
ENDBRANCH  10  17
BRANCH   4  26
ATOM     26  C   UNL     1       1.680   9.178  18.217  0.00  0.00    +0.000 C 
ATOM     27  N   UNL     1       1.944   8.052  18.947  0.00  0.00    +0.000 N 
ATOM     28  O   UNL     1       2.130   9.322  17.084  0.00  0.00    +0.000 OA
ATOM     29  H   UNL     1       1.604   7.994  19.901  0.00  0.00    +0.000 HD
ATOM     30  H   UNL     1       2.539   7.336  18.560  0.00  0.00    +0.000 HD
ENDBRANCH   4  26
TORSDOF 3
ENDMDL
