MODEL 1
REMARK VINA RESULT:      -7.5      0.000      0.000
REMARK  Name = 
REMARK  6 active torsions:
REMARK  status: ('A' for Active; 'I' for Inactive)
REMARK    1  A    between atoms: C_1  and  C_2
REMARK    2  A    between atoms: C_2  and  C_3
REMARK    3  A    between atoms: C_2  and  N_4
REMARK    4  A    between atoms: C_10  and  N_11
REMARK    5  A    between atoms: N_11  and  S_12
REMARK    6  A    between atoms: S_12  and  C_15
REMARK                            x       y       z     vdW  Elec       q    Type
REMARK                         _______ _______ _______ _____ _____    ______ ____
ROOT
ATOM      1  N   UNL     1       1.120   9.939  19.567  0.00  0.00    +0.000 N 
ATOM      2  C   UNL     1       0.732  10.044  20.904  0.00  0.00    +0.000 A 
ATOM      3  O   UNL     1       0.233  11.006  21.466  0.00  0.00    +0.000 OA
ATOM      4  S   UNL     1       1.043   8.523  21.755  0.00  0.00    +0.000 S 
ATOM      5  C   UNL     1       1.662   7.777  20.281  0.00  0.00    +0.000 A 
ATOM      6  C   UNL     1       2.122   6.477  20.151  0.00  0.00    +0.000 A 
ATOM      7  C   UNL     1       2.578   6.058  18.907  0.00  0.00    +0.000 A 
ATOM      8  C   UNL     1       2.562   6.931  17.813  0.00  0.00    +0.000 A 
ATOM      9  C   UNL     1       2.087   8.246  17.959  0.00  0.00    +0.000 A 
ATOM     10  C   UNL     1       1.636   8.668  19.206  0.00  0.00    +0.000 A 
ENDROOT
BRANCH   1  12
ATOM     11  C   UNL     1      -0.540  11.454  18.526  0.00  0.00    +0.000 C 
ATOM     12  C   UNL     1       0.932  11.040  18.620  0.00  0.00    +0.000 C 
ATOM     13  C   UNL     1       1.811  12.251  18.946  0.00  0.00    +0.000 C 
ENDBRANCH   1  12
BRANCH   7  14
ATOM     14  N   UNL     1       3.078   4.735  18.785  0.00  0.00    +0.000 N 
ATOM     15  H   UNL     1       2.706   4.133  18.051  0.00  0.00    +0.000 HD
BRANCH  14  16
ATOM     16  S   UNL     1       4.722   4.455  19.056  0.00  0.00    +0.000 S 
ATOM     17  O   UNL     1       5.206   5.533  19.892  0.00  0.00    +0.000 OA
ATOM     18  O   UNL     1       4.860   3.080  19.496  0.00  0.00    +0.000 OA
BRANCH  16  19
ATOM     19  C   UNL     1       5.483   4.615  17.459  0.00  0.00    +0.000 A 
ATOM     20  C   UNL     1       4.770   4.126  16.350  0.00  0.00    +0.000 A 
ATOM     21  C   UNL     1       5.314   4.203  15.067  0.00  0.00    +0.000 A 
ATOM     22  C   UNL     1       6.568   4.776  14.882  0.00  0.00    +0.000 A 
ATOM     23  C   UNL     1       7.280   5.264  15.979  0.00  0.00    +0.000 A 
ATOM     24  C   UNL     1       6.749   5.179  17.275  0.00  0.00    +0.000 A 
ATOM     25 BR   UNL     1       7.832   5.880  18.668  0.00  0.00    +0.000 Br
ENDBRANCH  16  19
ENDBRANCH  14  16
ENDBRANCH   7  14
TORSDOF 4
ENDMDL
MODEL 2
REMARK VINA RESULT:      -7.4      2.875      7.758
REMARK  Name = 
REMARK  6 active torsions:
REMARK  status: ('A' for Active; 'I' for Inactive)
REMARK    1  A    between atoms: C_1  and  C_2
REMARK    2  A    between atoms: C_2  and  C_3
REMARK    3  A    between atoms: C_2  and  N_4
REMARK    4  A    between atoms: C_10  and  N_11
REMARK    5  A    between atoms: N_11  and  S_12
REMARK    6  A    between atoms: S_12  and  C_15
REMARK                            x       y       z     vdW  Elec       q    Type
REMARK                         _______ _______ _______ _____ _____    ______ ____
ROOT
ATOM      1  N   UNL     1       5.213   4.756  18.506  0.00  0.00    +0.000 N 
ATOM      2  C   UNL     1       4.661   3.814  19.375  0.00  0.00    +0.000 A 
ATOM      3  O   UNL     1       5.190   2.809  19.824  0.00  0.00    +0.000 OA
ATOM      4  S   UNL     1       3.005   4.270  19.805  0.00  0.00    +0.000 S 
ATOM      5  C   UNL     1       3.109   5.732  18.824  0.00  0.00    +0.000 A 
ATOM      6  C   UNL     1       2.117   6.686  18.666  0.00  0.00    +0.000 A 
ATOM      7  C   UNL     1       2.375   7.779  17.848  0.00  0.00    +0.000 A 
ATOM      8  C   UNL     1       3.613   7.912  17.208  0.00  0.00    +0.000 A 
ATOM      9  C   UNL     1       4.612   6.939  17.382  0.00  0.00    +0.000 A 
ATOM     10  C   UNL     1       4.352   5.841  18.197  0.00  0.00    +0.000 A 
ENDROOT
BRANCH   1  12
ATOM     11  C   UNL     1       6.649   4.545  16.499  0.00  0.00    +0.000 C 
ATOM     12  C   UNL     1       6.592   4.649  18.026  0.00  0.00    +0.000 C 
ATOM     13  C   UNL     1       7.476   5.799  18.520  0.00  0.00    +0.000 C 
ENDBRANCH   1  12
BRANCH   7  14
ATOM     14  N   UNL     1       1.345   8.738  17.664  0.00  0.00    +0.000 N 
ATOM     15  H   UNL     1       0.445   8.429  17.295  0.00  0.00    +0.000 HD
BRANCH  14  16
ATOM     16  S   UNL     1       1.169   9.977  18.798  0.00  0.00    +0.000 S 
ATOM     17  O   UNL     1       1.283   9.374  20.109  0.00  0.00    +0.000 OA
ATOM     18  O   UNL     1       2.067  11.048  18.412  0.00  0.00    +0.000 OA
BRANCH  16  19
ATOM     19  C   UNL     1      -0.503  10.544  18.601  0.00  0.00    +0.000 A 
ATOM     20  C   UNL     1      -1.276   9.943  17.592  0.00  0.00    +0.000 A 
ATOM     21  C   UNL     1      -2.592  10.351  17.369  0.00  0.00    +0.000 A 
ATOM     22  C   UNL     1      -3.147  11.355  18.156  0.00  0.00    +0.000 A 
ATOM     23  C   UNL     1      -2.384  11.955  19.159  0.00  0.00    +0.000 A 
ATOM     24  C   UNL     1      -1.055  11.563  19.383  0.00  0.00    +0.000 A 
ATOM     25 BR   UNL     1      -0.141  12.470  20.777  0.00  0.00    +0.000 Br
ENDBRANCH  16  19
ENDBRANCH  14  16
ENDBRANCH   7  14
TORSDOF 4
ENDMDL
MODEL 3
REMARK VINA RESULT:      -7.3      2.127      2.505
REMARK  Name = 
REMARK  6 active torsions:
REMARK  status: ('A' for Active; 'I' for Inactive)
REMARK    1  A    between atoms: C_1  and  C_2
REMARK    2  A    between atoms: C_2  and  C_3
REMARK    3  A    between atoms: C_2  and  N_4
REMARK    4  A    between atoms: C_10  and  N_11
REMARK    5  A    between atoms: N_11  and  S_12
REMARK    6  A    between atoms: S_12  and  C_15
REMARK                            x       y       z     vdW  Elec       q    Type
REMARK                         _______ _______ _______ _____ _____    ______ ____
ROOT
ATOM      1  N   UNL     1      -0.456  10.955  19.403  0.00  0.00    +0.000 N 
ATOM      2  C   UNL     1      -0.995  11.188  20.669  0.00  0.00    +0.000 A 
ATOM      3  O   UNL     1      -1.831  12.020  20.986  0.00  0.00    +0.000 OA
ATOM      4  S   UNL     1      -0.305  10.062  21.848  0.00  0.00    +0.000 S 
ATOM      5  C   UNL     1       0.671   9.288  20.599  0.00  0.00    +0.000 A 
ATOM      6  C   UNL     1       1.533   8.218  20.777  0.00  0.00    +0.000 A 
ATOM      7  C   UNL     1       2.226   7.736  19.674  0.00  0.00    +0.000 A 
ATOM      8  C   UNL     1       2.047   8.317  18.412  0.00  0.00    +0.000 A 
ATOM      9  C   UNL     1       1.164   9.398  18.246  0.00  0.00    +0.000 A 
ATOM     10  C   UNL     1       0.474   9.884  19.352  0.00  0.00    +0.000 A 
ENDROOT
BRANCH   1  12
ATOM     11  C   UNL     1      -2.383  11.534  17.959  0.00  0.00    +0.000 C 
ATOM     12  C   UNL     1      -0.886  11.716  18.229  0.00  0.00    +0.000 C 
ATOM     13  C   UNL     1      -0.536  13.203  18.333  0.00  0.00    +0.000 C 
ENDBRANCH   1  12
BRANCH   7  14
ATOM     14  N   UNL     1       3.133   6.662  19.867  0.00  0.00    +0.000 N 
ATOM     15  H   UNL     1       3.616   6.579  20.762  0.00  0.00    +0.000 HD
BRANCH  14  16
ATOM     16  S   UNL     1       2.760   5.150  19.211  0.00  0.00    +0.000 S 
ATOM     17  O   UNL     1       3.134   4.156  20.194  0.00  0.00    +0.000 OA
ATOM     18  O   UNL     1       1.393   5.213  18.728  0.00  0.00    +0.000 OA
BRANCH  16  19
ATOM     19  C   UNL     1       3.844   4.976  17.815  0.00  0.00    +0.000 A 
ATOM     20  C   UNL     1       4.479   6.138  17.340  0.00  0.00    +0.000 A 
ATOM     21  C   UNL     1       5.331   6.078  16.236  0.00  0.00    +0.000 A 
ATOM     22  C   UNL     1       5.561   4.860  15.605  0.00  0.00    +0.000 A 
ATOM     23  C   UNL     1       4.934   3.704  16.073  0.00  0.00    +0.000 A 
ATOM     24  C   UNL     1       4.064   3.753  17.174  0.00  0.00    +0.000 A 
ATOM     25 BR   UNL     1       3.281   2.105  17.694  0.00  0.00    +0.000 Br
ENDBRANCH  16  19
ENDBRANCH  14  16
ENDBRANCH   7  14
TORSDOF 4
ENDMDL
MODEL 4
REMARK VINA RESULT:      -7.1      2.921      3.619
REMARK  Name = 
REMARK  6 active torsions:
REMARK  status: ('A' for Active; 'I' for Inactive)
REMARK    1  A    between atoms: C_1  and  C_2
REMARK    2  A    between atoms: C_2  and  C_3
REMARK    3  A    between atoms: C_2  and  N_4
REMARK    4  A    between atoms: C_10  and  N_11
REMARK    5  A    between atoms: N_11  and  S_12
REMARK    6  A    between atoms: S_12  and  C_15
REMARK                            x       y       z     vdW  Elec       q    Type
REMARK                         _______ _______ _______ _____ _____    ______ ____
ROOT
ATOM      1  N   UNL     1       0.507  10.566  20.030  0.00  0.00    +0.000 N 
ATOM      2  C   UNL     1       0.287  10.361  21.393  0.00  0.00    +0.000 A 
ATOM      3  O   UNL     1      -0.299  11.093  22.176  0.00  0.00    +0.000 OA
ATOM      4  S   UNL     1       0.977   8.812  21.901  0.00  0.00    +0.000 S 
ATOM      5  C   UNL     1       1.519   8.468  20.258  0.00  0.00    +0.000 A 
ATOM      6  C   UNL     1       2.185   7.329  19.835  0.00  0.00    +0.000 A 
ATOM      7  C   UNL     1       2.540   7.229  18.495  0.00  0.00    +0.000 A 
ATOM      8  C   UNL     1       2.222   8.255  17.597  0.00  0.00    +0.000 A 
ATOM      9  C   UNL     1       1.541   9.403  18.040  0.00  0.00    +0.000 A 
ATOM     10  C   UNL     1       1.191   9.506  19.382  0.00  0.00    +0.000 A 
ENDROOT
BRANCH   1  12
ATOM     11  C   UNL     1      -1.523  11.864  19.457  0.00  0.00    +0.000 C 
ATOM     12  C   UNL     1      -0.001  11.752  19.336  0.00  0.00    +0.000 C 
ATOM     13  C   UNL     1       0.673  13.043  19.811  0.00  0.00    +0.000 C 
ENDBRANCH   1  12
BRANCH   7  14
ATOM     14  N   UNL     1       3.249   6.075  18.073  0.00  0.00    +0.000 N 
ATOM     15  H   UNL     1       4.159   5.876  18.489  0.00  0.00    +0.000 HD
BRANCH  14  16
ATOM     16  S   UNL     1       2.386   4.661  17.742  0.00  0.00    +0.000 S 
ATOM     17  O   UNL     1       1.039   5.056  17.390  0.00  0.00    +0.000 OA
ATOM     18  O   UNL     1       3.179   3.878  16.812  0.00  0.00    +0.000 OA
BRANCH  16  19
ATOM     19  C   UNL     1       2.316   3.794  19.291  0.00  0.00    +0.000 A 
ATOM     20  C   UNL     1       1.046   3.575  19.853  0.00  0.00    +0.000 A 
ATOM     21  C   UNL     1       0.917   2.916  21.077  0.00  0.00    +0.000 A 
ATOM     22  C   UNL     1       2.052   2.464  21.741  0.00  0.00    +0.000 A 
ATOM     23  C   UNL     1       3.315   2.677  21.187  0.00  0.00    +0.000 A 
ATOM     24  C   UNL     1       3.459   3.351  19.964  0.00  0.00    +0.000 A 
ATOM     25 BR   UNL     1       5.236   3.572  19.337  0.00  0.00    +0.000 Br
ENDBRANCH  16  19
ENDBRANCH  14  16
ENDBRANCH   7  14
TORSDOF 4
ENDMDL
MODEL 5
REMARK VINA RESULT:      -7.0      1.092      1.244
REMARK  Name = 
REMARK  6 active torsions:
REMARK  status: ('A' for Active; 'I' for Inactive)
REMARK    1  A    between atoms: C_1  and  C_2
REMARK    2  A    between atoms: C_2  and  C_3
REMARK    3  A    between atoms: C_2  and  N_4
REMARK    4  A    between atoms: C_10  and  N_11
REMARK    5  A    between atoms: N_11  and  S_12
REMARK    6  A    between atoms: S_12  and  C_15
REMARK                            x       y       z     vdW  Elec       q    Type
REMARK                         _______ _______ _______ _____ _____    ______ ____
ROOT
ATOM      1  N   UNL     1       0.417   9.937  19.381  0.00  0.00    +0.000 N 
ATOM      2  C   UNL     1      -0.163  10.012  20.648  0.00  0.00    +0.000 A 
ATOM      3  O   UNL     1      -0.987  10.820  21.048  0.00  0.00    +0.000 OA
ATOM      4  S   UNL     1       0.449   8.713  21.683  0.00  0.00    +0.000 S 
ATOM      5  C   UNL     1       1.449   8.085  20.373  0.00  0.00    +0.000 A 
ATOM      6  C   UNL     1       2.273   6.973  20.430  0.00  0.00    +0.000 A 
ATOM      7  C   UNL     1       2.994   6.624  19.295  0.00  0.00    +0.000 A 
ATOM      8  C   UNL     1       2.880   7.377  18.121  0.00  0.00    +0.000 A 
ATOM      9  C   UNL     1       2.035   8.500  18.075  0.00  0.00    +0.000 A 
ATOM     10  C   UNL     1       1.317   8.853  19.214  0.00  0.00    +0.000 A 
ENDROOT
BRANCH   1  12
ATOM     11  C   UNL     1      -1.407  10.691  17.885  0.00  0.00    +0.000 C 
ATOM     12  C   UNL     1       0.053  10.866  18.309  0.00  0.00    +0.000 C 
ATOM     13  C   UNL     1       0.335  12.326  18.678  0.00  0.00    +0.000 C 
ENDBRANCH   1  12
BRANCH   7  14
ATOM     14  N   UNL     1       3.861   5.503  19.369  0.00  0.00    +0.000 N 
ATOM     15  H   UNL     1       4.140   5.154  20.286  0.00  0.00    +0.000 HD
BRANCH  14  16
ATOM     16  S   UNL     1       3.675   4.251  18.250  0.00  0.00    +0.000 S 
ATOM     17  O   UNL     1       3.966   3.014  18.943  0.00  0.00    +0.000 OA
ATOM     18  O   UNL     1       2.389   4.434  17.605  0.00  0.00    +0.000 OA
BRANCH  16  19
ATOM     19  C   UNL     1       4.953   4.518  17.046  0.00  0.00    +0.000 A 
ATOM     20  C   UNL     1       4.641   4.251  15.701  0.00  0.00    +0.000 A 
ATOM     21  C   UNL     1       5.602   4.423  14.703  0.00  0.00    +0.000 A 
ATOM     22  C   UNL     1       6.876   4.869  15.040  0.00  0.00    +0.000 A 
ATOM     23  C   UNL     1       7.191   5.136  16.373  0.00  0.00    +0.000 A 
ATOM     24  C   UNL     1       6.237   4.953  17.387  0.00  0.00    +0.000 A 
ATOM     25 BR   UNL     1       6.809   5.351  19.152  0.00  0.00    +0.000 Br
ENDBRANCH  16  19
ENDBRANCH  14  16
ENDBRANCH   7  14
TORSDOF 4
ENDMDL
MODEL 6
REMARK VINA RESULT:      -7.0      3.140      8.368
REMARK  Name = 
REMARK  6 active torsions:
REMARK  status: ('A' for Active; 'I' for Inactive)
REMARK    1  A    between atoms: C_1  and  C_2
REMARK    2  A    between atoms: C_2  and  C_3
REMARK    3  A    between atoms: C_2  and  N_4
REMARK    4  A    between atoms: C_10  and  N_11
REMARK    5  A    between atoms: N_11  and  S_12
REMARK    6  A    between atoms: S_12  and  C_15
REMARK                            x       y       z     vdW  Elec       q    Type
REMARK                         _______ _______ _______ _____ _____    ______ ____
ROOT
ATOM      1  N   UNL     1       4.257   6.147  17.850  0.00  0.00    +0.000 N 
ATOM      2  C   UNL     1       4.336   5.044  18.701  0.00  0.00    +0.000 A 
ATOM      3  O   UNL     1       5.092   4.088  18.619  0.00  0.00    +0.000 OA
ATOM      4  S   UNL     1       3.158   5.193  20.013  0.00  0.00    +0.000 S 
ATOM      5  C   UNL     1       2.608   6.752  19.397  0.00  0.00    +0.000 A 
ATOM      6  C   UNL     1       1.628   7.556  19.956  0.00  0.00    +0.000 A 
ATOM      7  C   UNL     1       1.321   8.757  19.330  0.00  0.00    +0.000 A 
ATOM      8  C   UNL     1       1.995   9.145  18.166  0.00  0.00    +0.000 A 
ATOM      9  C   UNL     1       2.992   8.322  17.613  0.00  0.00    +0.000 A 
ATOM     10  C   UNL     1       3.295   7.116  18.237  0.00  0.00    +0.000 A 
ENDROOT
BRANCH   1  12
ATOM     11  C   UNL     1       6.577   6.655  17.146  0.00  0.00    +0.000 C 
ATOM     12  C   UNL     1       5.154   6.303  16.703  0.00  0.00    +0.000 C 
ATOM     13  C   UNL     1       5.163   5.071  15.794  0.00  0.00    +0.000 C 
ENDBRANCH   1  12
BRANCH   7  14
ATOM     14  N   UNL     1       0.294   9.562  19.888  0.00  0.00    +0.000 N 
ATOM     15  H   UNL     1      -0.604   9.132  20.111  0.00  0.00    +0.000 HD
BRANCH  14  16
ATOM     16  S   UNL     1       0.711  10.761  21.003  0.00  0.00    +0.000 S 
ATOM     17  O   UNL     1       1.245  10.092  22.169  0.00  0.00    +0.000 OA
ATOM     18  O   UNL     1       1.513  11.745  20.301  0.00  0.00    +0.000 OA
BRANCH  16  19
ATOM     19  C   UNL     1      -0.831  11.516  21.461  0.00  0.00    +0.000 A 
ATOM     20  C   UNL     1      -1.215  11.433  22.811  0.00  0.00    +0.000 A 
ATOM     21  C   UNL     1      -2.422  11.989  23.239  0.00  0.00    +0.000 A 
ATOM     22  C   UNL     1      -3.247  12.637  22.326  0.00  0.00    +0.000 A 
ATOM     23  C   UNL     1      -2.870  12.722  20.985  0.00  0.00    +0.000 A 
ATOM     24  C   UNL     1      -1.666  12.155  20.540  0.00  0.00    +0.000 A 
ATOM     25 BR   UNL     1      -1.287  12.345  18.690  0.00  0.00    +0.000 Br
ENDBRANCH  16  19
ENDBRANCH  14  16
ENDBRANCH   7  14
TORSDOF 4
ENDMDL
MODEL 7
REMARK VINA RESULT:      -7.0      2.648      3.479
REMARK  Name = 
REMARK  6 active torsions:
REMARK  status: ('A' for Active; 'I' for Inactive)
REMARK    1  A    between atoms: C_1  and  C_2
REMARK    2  A    between atoms: C_2  and  C_3
REMARK    3  A    between atoms: C_2  and  N_4
REMARK    4  A    between atoms: C_10  and  N_11
REMARK    5  A    between atoms: N_11  and  S_12
REMARK    6  A    between atoms: S_12  and  C_15
REMARK                            x       y       z     vdW  Elec       q    Type
REMARK                         _______ _______ _______ _____ _____    ______ ____
ROOT
ATOM      1  N   UNL     1      -0.511  11.264  19.606  0.00  0.00    +0.000 N 
ATOM      2  C   UNL     1      -1.075  11.581  20.842  0.00  0.00    +0.000 A 
ATOM      3  O   UNL     1      -1.852  12.487  21.101  0.00  0.00    +0.000 OA
ATOM      4  S   UNL     1      -0.524  10.443  22.081  0.00  0.00    +0.000 S 
ATOM      5  C   UNL     1       0.431   9.552  20.895  0.00  0.00    +0.000 A 
ATOM      6  C   UNL     1       1.196   8.423  21.138  0.00  0.00    +0.000 A 
ATOM      7  C   UNL     1       1.888   7.851  20.078  0.00  0.00    +0.000 A 
ATOM      8  C   UNL     1       1.803   8.402  18.794  0.00  0.00    +0.000 A 
ATOM      9  C   UNL     1       1.018   9.545  18.561  0.00  0.00    +0.000 A 
ATOM     10  C   UNL     1       0.330  10.121  19.623  0.00  0.00    +0.000 A 
ENDROOT
BRANCH   1  12
ATOM     11  C   UNL     1      -2.301  11.837  17.993  0.00  0.00    +0.000 C 
ATOM     12  C   UNL     1      -0.834  12.018  18.393  0.00  0.00    +0.000 C 
ATOM     13  C   UNL     1      -0.491  13.506  18.520  0.00  0.00    +0.000 C 
ENDBRANCH   1  12
BRANCH   7  14
ATOM     14  N   UNL     1       2.696   6.713  20.339  0.00  0.00    +0.000 N 
ATOM     15  H   UNL     1       2.391   6.044  21.046  0.00  0.00    +0.000 HD
BRANCH  14  16
ATOM     16  S   UNL     1       3.478   5.953  19.049  0.00  0.00    +0.000 S 
ATOM     17  O   UNL     1       3.239   6.760  17.871  0.00  0.00    +0.000 OA
ATOM     18  O   UNL     1       4.837   5.672  19.471  0.00  0.00    +0.000 OA
BRANCH  16  19
ATOM     19  C   UNL     1       2.622   4.410  18.840  0.00  0.00    +0.000 A 
ATOM     20  C   UNL     1       1.532   4.154  19.690  0.00  0.00    +0.000 A 
ATOM     21  C   UNL     1       0.825   2.955  19.594  0.00  0.00    +0.000 A 
ATOM     22  C   UNL     1       1.195   2.009  18.643  0.00  0.00    +0.000 A 
ATOM     23  C   UNL     1       2.275   2.259  17.796  0.00  0.00    +0.000 A 
ATOM     24  C   UNL     1       3.003   3.455  17.893  0.00  0.00    +0.000 A 
ATOM     25 BR   UNL     1       4.449   3.653  16.679  0.00  0.00    +0.000 Br
ENDBRANCH  16  19
ENDBRANCH  14  16
ENDBRANCH   7  14
TORSDOF 4
ENDMDL
MODEL 8
REMARK VINA RESULT:      -6.9      1.228      1.571
REMARK  Name = 
REMARK  6 active torsions:
REMARK  status: ('A' for Active; 'I' for Inactive)
REMARK    1  A    between atoms: C_1  and  C_2
REMARK    2  A    between atoms: C_2  and  C_3
REMARK    3  A    between atoms: C_2  and  N_4
REMARK    4  A    between atoms: C_10  and  N_11
REMARK    5  A    between atoms: N_11  and  S_12
REMARK    6  A    between atoms: S_12  and  C_15
REMARK                            x       y       z     vdW  Elec       q    Type
REMARK                         _______ _______ _______ _____ _____    ______ ____
ROOT
ATOM      1  N   UNL     1       1.145   9.907  19.541  0.00  0.00    +0.000 N 
ATOM      2  C   UNL     1       0.720  10.078  20.860  0.00  0.00    +0.000 A 
ATOM      3  O   UNL     1       0.176  11.054  21.351  0.00  0.00    +0.000 OA
ATOM      4  S   UNL     1       1.059   8.621  21.807  0.00  0.00    +0.000 S 
ATOM      5  C   UNL     1       1.738   7.811  20.396  0.00  0.00    +0.000 A 
ATOM      6  C   UNL     1       2.243   6.521  20.354  0.00  0.00    +0.000 A 
ATOM      7  C   UNL     1       2.744   6.045  19.149  0.00  0.00    +0.000 A 
ATOM      8  C   UNL     1       2.727   6.851  18.004  0.00  0.00    +0.000 A 
ATOM      9  C   UNL     1       2.206   8.156  18.060  0.00  0.00    +0.000 A 
ATOM     10  C   UNL     1       1.711   8.635  19.269  0.00  0.00    +0.000 A 
ENDROOT
BRANCH   1  12
ATOM     11  C   UNL     1      -0.541  11.259  18.331  0.00  0.00    +0.000 C 
ATOM     12  C   UNL     1       0.945  10.943  18.526  0.00  0.00    +0.000 C 
ATOM     13  C   UNL     1       1.731  12.222  18.830  0.00  0.00    +0.000 C 
ENDBRANCH   1  12
BRANCH   7  14
ATOM     14  N   UNL     1       3.289   4.735  19.119  0.00  0.00    +0.000 N 
ATOM     15  H   UNL     1       2.837   4.026  18.542  0.00  0.00    +0.000 HD
BRANCH  14  16
ATOM     16  S   UNL     1       4.968   4.548  19.144  0.00  0.00    +0.000 S 
ATOM     17  O   UNL     1       5.519   5.737  19.758  0.00  0.00    +0.000 OA
ATOM     18  O   UNL     1       5.249   3.243  19.711  0.00  0.00    +0.000 OA
BRANCH  16  19
ATOM     19  C   UNL     1       5.453   4.537  17.436  0.00  0.00    +0.000 A 
ATOM     20  C   UNL     1       6.624   5.236  17.091  0.00  0.00    +0.000 A 
ATOM     21  C   UNL     1       7.056   5.284  15.764  0.00  0.00    +0.000 A 
ATOM     22  C   UNL     1       6.328   4.629  14.776  0.00  0.00    +0.000 A 
ATOM     23  C   UNL     1       5.165   3.934  15.113  0.00  0.00    +0.000 A 
ATOM     24  C   UNL     1       4.713   3.891  16.441  0.00  0.00    +0.000 A 
ATOM     25 BR   UNL     1       3.116   2.912  16.748  0.00  0.00    +0.000 Br
ENDBRANCH  16  19
ENDBRANCH  14  16
ENDBRANCH   7  14
TORSDOF 4
ENDMDL
MODEL 9
REMARK VINA RESULT:      -6.8      1.843      2.837
REMARK  Name = 
REMARK  6 active torsions:
REMARK  status: ('A' for Active; 'I' for Inactive)
REMARK    1  A    between atoms: C_1  and  C_2
REMARK    2  A    between atoms: C_2  and  C_3
REMARK    3  A    between atoms: C_2  and  N_4
REMARK    4  A    between atoms: C_10  and  N_11
REMARK    5  A    between atoms: N_11  and  S_12
REMARK    6  A    between atoms: S_12  and  C_15
REMARK                            x       y       z     vdW  Elec       q    Type
REMARK                         _______ _______ _______ _____ _____    ______ ____
ROOT
ATOM      1  N   UNL     1       1.183   9.200  20.358  0.00  0.00    +0.000 N 
ATOM      2  C   UNL     1       1.310  10.229  19.424  0.00  0.00    +0.000 A 
ATOM      3  O   UNL     1       1.069  11.416  19.579  0.00  0.00    +0.000 OA
ATOM      4  S   UNL     1       1.919   9.593  17.889  0.00  0.00    +0.000 S 
ATOM      5  C   UNL     1       2.013   7.962  18.554  0.00  0.00    +0.000 A 
ATOM      6  C   UNL     1       2.454   6.829  17.890  0.00  0.00    +0.000 A 
ATOM      7  C   UNL     1       2.456   5.620  18.574  0.00  0.00    +0.000 A 
ATOM      8  C   UNL     1       2.030   5.556  19.906  0.00  0.00    +0.000 A 
ATOM      9  C   UNL     1       1.590   6.715  20.569  0.00  0.00    +0.000 A 
ATOM     10  C   UNL     1       1.582   7.925  19.882  0.00  0.00    +0.000 A 
ENDROOT
BRANCH   1  12
ATOM     11  C   UNL     1      -0.544   8.689  22.059  0.00  0.00    +0.000 C 
ATOM     12  C   UNL     1       0.741   9.455  21.731  0.00  0.00    +0.000 C 
ATOM     13  C   UNL     1       1.830   9.146  22.764  0.00  0.00    +0.000 C 
ENDBRANCH   1  12
BRANCH   7  14
ATOM     14  N   UNL     1       2.879   4.457  17.880  0.00  0.00    +0.000 N 
ATOM     15  H   UNL     1       2.825   4.443  16.862  0.00  0.00    +0.000 HD
BRANCH  14  16
ATOM     16  S   UNL     1       4.224   3.608  18.450  0.00  0.00    +0.000 S 
ATOM     17  O   UNL     1       4.042   3.429  19.874  0.00  0.00    +0.000 OA
ATOM     18  O   UNL     1       4.403   2.454  17.591  0.00  0.00    +0.000 OA
BRANCH  16  19
ATOM     19  C   UNL     1       5.597   4.710  18.207  0.00  0.00    +0.000 A 
ATOM     20  C   UNL     1       6.261   5.178  19.354  0.00  0.00    +0.000 A 
ATOM     21  C   UNL     1       7.337   6.060  19.239  0.00  0.00    +0.000 A 
ATOM     22  C   UNL     1       7.761   6.472  17.980  0.00  0.00    +0.000 A 
ATOM     23  C   UNL     1       7.106   6.010  16.839  0.00  0.00    +0.000 A 
ATOM     24  C   UNL     1       6.014   5.134  16.942  0.00  0.00    +0.000 A 
ATOM     25 BR   UNL     1       5.219   4.594  15.305  0.00  0.00    +0.000 Br
ENDBRANCH  16  19
ENDBRANCH  14  16
ENDBRANCH   7  14
TORSDOF 4
ENDMDL
