MODEL 1
REMARK VINA RESULT:      -6.7      0.000      0.000
REMARK  Name = 
REMARK  7 active torsions:
REMARK  status: ('A' for Active; 'I' for Inactive)
REMARK    1  A    between atoms: C_1  and  C_2
REMARK    2  A    between atoms: C_2  and  C_3
REMARK    3  A    between atoms: C_2  and  C_4
REMARK    4  A    between atoms: C_2  and  C_5
REMARK    5  A    between atoms: N_7  and  C_8
REMARK    6  A    between atoms: C_8  and  C_9
REMARK    7  A    between atoms: N_11  and  C_12
REMARK                            x       y       z     vdW  Elec       q    Type
REMARK                         _______ _______ _______ _____ _____    ______ ____
ROOT
ATOM      1  C   UNL     1       5.238   5.229  17.956  0.00  0.00    +0.000 C 
ATOM      2  O   UNL     1       4.624   6.186  17.487  0.00  0.00    +0.000 OA
ATOM      3  N   UNL     1       6.001   4.320  17.238  0.00  0.00    +0.000 N 
ATOM      4  H   UNL     1       6.201   3.435  17.705  0.00  0.00    +0.000 HD
ENDROOT
BRANCH   3   5
ATOM      5  C   UNL     1       6.317   4.415  15.862  0.00  0.00    +0.000 A 
ATOM      6  C   UNL     1       5.660   3.688  14.868  0.00  0.00    +0.000 A 
ATOM      7  C   UNL     1       6.066   3.795  13.538  0.00  0.00    +0.000 A 
ATOM      8  C   UNL     1       7.113   4.646  13.235  0.00  0.00    +0.000 A 
ATOM      9  N   UNL     1       7.750   5.401  14.155  0.00  0.00    +0.000 NA
ATOM     10  C   UNL     1       7.333   5.271  15.441  0.00  0.00    +0.000 A 
ENDBRANCH   3   5
BRANCH   1  11
ATOM     11  C   UNL     1       5.098   4.879  19.436  0.00  0.00    +0.000 C 
BRANCH  11  14
ATOM     12  C   UNL     1       3.187   3.425  19.959  0.00  0.00    +0.000 C 
ATOM     13  O   UNL     1       3.899   2.429  19.809  0.00  0.00    +0.000 OA
ATOM     14  N   UNL     1       3.702   4.686  19.790  0.00  0.00    +0.000 N 
ATOM     15  H   UNL     1       3.079   5.474  19.672  0.00  0.00    +0.000 HD
BRANCH  12  17
ATOM     16  C   UNL     1       1.488   2.560  21.599  0.00  0.00    +0.000 C 
ATOM     17  C   UNL     1       1.683   3.351  20.294  0.00  0.00    +0.000 C 
ATOM     18  C   UNL     1       0.940   2.627  19.162  0.00  0.00    +0.000 C 
ATOM     19  C   UNL     1       1.096   4.758  20.485  0.00  0.00    +0.000 C 
ENDBRANCH  12  17
ENDBRANCH  11  14
ENDBRANCH   1  11
TORSDOF 4
ENDMDL
MODEL 2
REMARK VINA RESULT:      -6.6      0.114      1.054
REMARK  Name = 
REMARK  7 active torsions:
REMARK  status: ('A' for Active; 'I' for Inactive)
REMARK    1  A    between atoms: C_1  and  C_2
REMARK    2  A    between atoms: C_2  and  C_3
REMARK    3  A    between atoms: C_2  and  C_4
REMARK    4  A    between atoms: C_2  and  C_5
REMARK    5  A    between atoms: N_7  and  C_8
REMARK    6  A    between atoms: C_8  and  C_9
REMARK    7  A    between atoms: N_11  and  C_12
REMARK                            x       y       z     vdW  Elec       q    Type
REMARK                         _______ _______ _______ _____ _____    ______ ____
ROOT
ATOM      1  C   UNL     1       5.136   5.135  17.957  0.00  0.00    +0.000 C 
ATOM      2  O   UNL     1       4.409   5.993  17.459  0.00  0.00    +0.000 OA
ATOM      3  N   UNL     1       6.016   4.315  17.268  0.00  0.00    +0.000 N 
ATOM      4  H   UNL     1       6.323   3.475  17.760  0.00  0.00    +0.000 HD
ENDROOT
BRANCH   3   5
ATOM      5  C   UNL     1       6.331   4.414  15.891  0.00  0.00    +0.000 A 
ATOM      6  C   UNL     1       5.685   3.677  14.898  0.00  0.00    +0.000 A 
ATOM      7  C   UNL     1       6.089   3.789  13.568  0.00  0.00    +0.000 A 
ATOM      8  C   UNL     1       7.122   4.657  13.265  0.00  0.00    +0.000 A 
ATOM      9  N   UNL     1       7.747   5.422  14.185  0.00  0.00    +0.000 NA
ATOM     10  C   UNL     1       7.333   5.286  15.471  0.00  0.00    +0.000 A 
ENDBRANCH   3   5
BRANCH   1  11
ATOM     11  C   UNL     1       5.028   4.809  19.445  0.00  0.00    +0.000 C 
BRANCH  11  14
ATOM     12  C   UNL     1       3.101   3.359  19.920  0.00  0.00    +0.000 C 
ATOM     13  O   UNL     1       3.783   2.363  19.669  0.00  0.00    +0.000 OA
ATOM     14  N   UNL     1       3.641   4.618  19.832  0.00  0.00    +0.000 N 
ATOM     15  H   UNL     1       3.033   5.426  19.797  0.00  0.00    +0.000 HD
BRANCH  12  17
ATOM     16  C   UNL     1       0.830   2.570  19.185  0.00  0.00    +0.000 C 
ATOM     17  C   UNL     1       1.607   3.292  20.300  0.00  0.00    +0.000 C 
ATOM     18  C   UNL     1       1.051   4.714  20.450  0.00  0.00    +0.000 C 
ATOM     19  C   UNL     1       1.411   2.515  21.611  0.00  0.00    +0.000 C 
ENDBRANCH  12  17
ENDBRANCH  11  14
ENDBRANCH   1  11
TORSDOF 4
ENDMDL
MODEL 3
REMARK VINA RESULT:      -6.6      0.484      1.150
REMARK  Name = 
REMARK  7 active torsions:
REMARK  status: ('A' for Active; 'I' for Inactive)
REMARK    1  A    between atoms: C_1  and  C_2
REMARK    2  A    between atoms: C_2  and  C_3
REMARK    3  A    between atoms: C_2  and  C_4
REMARK    4  A    between atoms: C_2  and  C_5
REMARK    5  A    between atoms: N_7  and  C_8
REMARK    6  A    between atoms: C_8  and  C_9
REMARK    7  A    between atoms: N_11  and  C_12
REMARK                            x       y       z     vdW  Elec       q    Type
REMARK                         _______ _______ _______ _____ _____    ______ ____
ROOT
ATOM      1  C   UNL     1       5.307   4.806  17.516  0.00  0.00    +0.000 C 
ATOM      2  O   UNL     1       4.668   5.783  17.129  0.00  0.00    +0.000 OA
ATOM      3  N   UNL     1       6.108   3.993  16.728  0.00  0.00    +0.000 N 
ATOM      4  H   UNL     1       6.330   3.075  17.115  0.00  0.00    +0.000 HD
ENDROOT
BRANCH   3   5
ATOM      5  C   UNL     1       6.438   4.226  15.372  0.00  0.00    +0.000 A 
ATOM      6  C   UNL     1       5.834   3.557  14.306  0.00  0.00    +0.000 A 
ATOM      7  C   UNL     1       6.252   3.802  12.998  0.00  0.00    +0.000 A 
ATOM      8  C   UNL     1       7.257   4.730  12.791  0.00  0.00    +0.000 A 
ATOM      9  N   UNL     1       7.839   5.432  13.786  0.00  0.00    +0.000 NA
ATOM     10  C   UNL     1       7.413   5.167  15.047  0.00  0.00    +0.000 A 
ENDBRANCH   3   5
BRANCH   1  11
ATOM     11  C   UNL     1       5.159   4.316  18.955  0.00  0.00    +0.000 C 
BRANCH  11  14
ATOM     12  C   UNL     1       3.249   3.242  20.067  0.00  0.00    +0.000 C 
ATOM     13  O   UNL     1       3.963   2.287  20.382  0.00  0.00    +0.000 OA
ATOM     14  N   UNL     1       3.762   4.296  19.353  0.00  0.00    +0.000 N 
ATOM     15  H   UNL     1       3.139   4.945  18.891  0.00  0.00    +0.000 HD
BRANCH  12  17
ATOM     16  C   UNL     1       1.332   4.794  20.558  0.00  0.00    +0.000 C 
ATOM     17  C   UNL     1       1.742   3.320  20.392  0.00  0.00    +0.000 C 
ATOM     18  C   UNL     1       1.461   2.578  21.706  0.00  0.00    +0.000 C 
ATOM     19  C   UNL     1       0.906   2.706  19.259  0.00  0.00    +0.000 C 
ENDBRANCH  12  17
ENDBRANCH  11  14
ENDBRANCH   1  11
TORSDOF 4
ENDMDL
MODEL 4
REMARK VINA RESULT:      -6.6      1.642      1.924
REMARK  Name = 
REMARK  7 active torsions:
REMARK  status: ('A' for Active; 'I' for Inactive)
REMARK    1  A    between atoms: C_1  and  C_2
REMARK    2  A    between atoms: C_2  and  C_3
REMARK    3  A    between atoms: C_2  and  C_4
REMARK    4  A    between atoms: C_2  and  C_5
REMARK    5  A    between atoms: N_7  and  C_8
REMARK    6  A    between atoms: C_8  and  C_9
REMARK    7  A    between atoms: N_11  and  C_12
REMARK                            x       y       z     vdW  Elec       q    Type
REMARK                         _______ _______ _______ _____ _____    ______ ____
ROOT
ATOM      1  C   UNL     1       6.902   4.570  17.131  0.00  0.00    +0.000 C 
ATOM      2  O   UNL     1       8.082   4.226  17.079  0.00  0.00    +0.000 OA
ATOM      3  N   UNL     1       6.087   4.853  16.045  0.00  0.00    +0.000 N 
ATOM      4  H   UNL     1       5.247   5.396  16.245  0.00  0.00    +0.000 HD
ENDROOT
BRANCH   3   5
ATOM      5  C   UNL     1       6.431   4.663  14.685  0.00  0.00    +0.000 A 
ATOM      6  C   UNL     1       5.827   3.711  13.863  0.00  0.00    +0.000 A 
ATOM      7  C   UNL     1       6.258   3.547  12.547  0.00  0.00    +0.000 A 
ATOM      8  C   UNL     1       7.277   4.359  12.082  0.00  0.00    +0.000 A 
ATOM      9  N   UNL     1       7.860   5.322  12.826  0.00  0.00    +0.000 NA
ATOM     10  C   UNL     1       7.420   5.453  14.103  0.00  0.00    +0.000 A 
ENDBRANCH   3   5
BRANCH   1  11
ATOM     11  C   UNL     1       6.244   4.845  18.482  0.00  0.00    +0.000 C 
BRANCH  11  14
ATOM     12  C   UNL     1       4.162   3.665  19.044  0.00  0.00    +0.000 C 
ATOM     13  O   UNL     1       4.800   2.849  19.713  0.00  0.00    +0.000 OA
ATOM     14  N   UNL     1       4.802   4.691  18.394  0.00  0.00    +0.000 N 
ATOM     15  H   UNL     1       4.325   5.201  17.662  0.00  0.00    +0.000 HD
BRANCH  12  17
ATOM     16  C   UNL     1       2.272   2.222  18.226  0.00  0.00    +0.000 C 
ATOM     17  C   UNL     1       2.635   3.587  18.838  0.00  0.00    +0.000 C 
ATOM     18  C   UNL     1       2.189   4.695  17.873  0.00  0.00    +0.000 C 
ATOM     19  C   UNL     1       1.895   3.733  20.176  0.00  0.00    +0.000 C 
ENDBRANCH  12  17
ENDBRANCH  11  14
ENDBRANCH   1  11
TORSDOF 4
ENDMDL
MODEL 5
REMARK VINA RESULT:      -6.5      1.143      1.302
REMARK  Name = 
REMARK  7 active torsions:
REMARK  status: ('A' for Active; 'I' for Inactive)
REMARK    1  A    between atoms: C_1  and  C_2
REMARK    2  A    between atoms: C_2  and  C_3
REMARK    3  A    between atoms: C_2  and  C_4
REMARK    4  A    between atoms: C_2  and  C_5
REMARK    5  A    between atoms: N_7  and  C_8
REMARK    6  A    between atoms: C_8  and  C_9
REMARK    7  A    between atoms: N_11  and  C_12
REMARK                            x       y       z     vdW  Elec       q    Type
REMARK                         _______ _______ _______ _____ _____    ______ ____
ROOT
ATOM      1  C   UNL     1       6.202   4.742  18.187  0.00  0.00    +0.000 C 
ATOM      2  O   UNL     1       7.375   4.381  18.272  0.00  0.00    +0.000 OA
ATOM      3  N   UNL     1       5.528   5.047  17.014  0.00  0.00    +0.000 N 
ATOM      4  H   UNL     1       4.677   5.600  17.119  0.00  0.00    +0.000 HD
ENDROOT
BRANCH   3   5
ATOM      5  C   UNL     1       6.030   4.866  15.703  0.00  0.00    +0.000 A 
ATOM      6  C   UNL     1       5.475   3.977  14.781  0.00  0.00    +0.000 A 
ATOM      7  C   UNL     1       6.060   3.815  13.526  0.00  0.00    +0.000 A 
ATOM      8  C   UNL     1       7.181   4.565  13.219  0.00  0.00    +0.000 A 
ATOM      9  N   UNL     1       7.726   5.468  14.062  0.00  0.00    +0.000 NA
ATOM     10  C   UNL     1       7.135   5.599  15.277  0.00  0.00    +0.000 A 
ENDBRANCH   3   5
BRANCH   1  11
ATOM     11  C   UNL     1       5.390   5.012  19.452  0.00  0.00    +0.000 C 
BRANCH  11  14
ATOM     12  C   UNL     1       3.351   3.641  19.516  0.00  0.00    +0.000 C 
ATOM     13  O   UNL     1       3.988   2.708  20.010  0.00  0.00    +0.000 OA
ATOM     14  N   UNL     1       3.971   4.826  19.204  0.00  0.00    +0.000 N 
ATOM     15  H   UNL     1       3.517   5.486  18.586  0.00  0.00    +0.000 HD
BRANCH  12  17
ATOM     16  C   UNL     1       1.025   4.190  20.298  0.00  0.00    +0.000 C 
ATOM     17  C   UNL     1       1.851   3.554  19.166  0.00  0.00    +0.000 C 
ATOM     18  C   UNL     1       1.442   2.081  19.023  0.00  0.00    +0.000 C 
ATOM     19  C   UNL     1       1.550   4.307  17.861  0.00  0.00    +0.000 C 
ENDBRANCH  12  17
ENDBRANCH  11  14
ENDBRANCH   1  11
TORSDOF 4
ENDMDL
MODEL 6
REMARK VINA RESULT:      -6.5      1.639      2.147
REMARK  Name = 
REMARK  7 active torsions:
REMARK  status: ('A' for Active; 'I' for Inactive)
REMARK    1  A    between atoms: C_1  and  C_2
REMARK    2  A    between atoms: C_2  and  C_3
REMARK    3  A    between atoms: C_2  and  C_4
REMARK    4  A    between atoms: C_2  and  C_5
REMARK    5  A    between atoms: N_7  and  C_8
REMARK    6  A    between atoms: C_8  and  C_9
REMARK    7  A    between atoms: N_11  and  C_12
REMARK                            x       y       z     vdW  Elec       q    Type
REMARK                         _______ _______ _______ _____ _____    ______ ____
ROOT
ATOM      1  C   UNL     1       7.064   4.600  17.141  0.00  0.00    +0.000 C 
ATOM      2  O   UNL     1       8.225   4.202  17.062  0.00  0.00    +0.000 OA
ATOM      3  N   UNL     1       6.243   4.933  16.075  0.00  0.00    +0.000 N 
ATOM      4  H   UNL     1       5.433   5.513  16.298  0.00  0.00    +0.000 HD
ENDROOT
BRANCH   3   5
ATOM      5  C   UNL     1       6.551   4.744  14.706  0.00  0.00    +0.000 A 
ATOM      6  C   UNL     1       5.927   3.792  13.900  0.00  0.00    +0.000 A 
ATOM      7  C   UNL     1       6.324   3.628  12.573  0.00  0.00    +0.000 A 
ATOM      8  C   UNL     1       7.330   4.441  12.082  0.00  0.00    +0.000 A 
ATOM      9  N   UNL     1       7.932   5.404  12.811  0.00  0.00    +0.000 NA
ATOM     10  C   UNL     1       7.524   5.535  14.100  0.00  0.00    +0.000 A 
ENDBRANCH   3   5
BRANCH   1  11
ATOM     11  C   UNL     1       6.445   4.889  18.508  0.00  0.00    +0.000 C 
BRANCH  11  14
ATOM     12  C   UNL     1       4.082   4.239  18.694  0.00  0.00    +0.000 C 
ATOM     13  O   UNL     1       3.739   5.361  18.315  0.00  0.00    +0.000 OA
ATOM     14  N   UNL     1       5.410   3.918  18.821  0.00  0.00    +0.000 N 
ATOM     15  H   UNL     1       5.685   3.103  19.354  0.00  0.00    +0.000 HD
BRANCH  12  17
ATOM     16  C   UNL     1       3.603   1.772  18.610  0.00  0.00    +0.000 C 
ATOM     17  C   UNL     1       3.082   3.135  19.097  0.00  0.00    +0.000 C 
ATOM     18  C   UNL     1       1.722   3.408  18.437  0.00  0.00    +0.000 C 
ATOM     19  C   UNL     1       2.917   3.077  20.623  0.00  0.00    +0.000 C 
ENDBRANCH  12  17
ENDBRANCH  11  14
ENDBRANCH   1  11
TORSDOF 4
ENDMDL
MODEL 7
REMARK VINA RESULT:      -6.4      1.800      2.639
REMARK  Name = 
REMARK  7 active torsions:
REMARK  status: ('A' for Active; 'I' for Inactive)
REMARK    1  A    between atoms: C_1  and  C_2
REMARK    2  A    between atoms: C_2  and  C_3
REMARK    3  A    between atoms: C_2  and  C_4
REMARK    4  A    between atoms: C_2  and  C_5
REMARK    5  A    between atoms: N_7  and  C_8
REMARK    6  A    between atoms: C_8  and  C_9
REMARK    7  A    between atoms: N_11  and  C_12
REMARK                            x       y       z     vdW  Elec       q    Type
REMARK                         _______ _______ _______ _____ _____    ______ ____
ROOT
ATOM      1  C   UNL     1       7.014   4.573  17.100  0.00  0.00    +0.000 C 
ATOM      2  O   UNL     1       8.179   4.177  17.070  0.00  0.00    +0.000 OA
ATOM      3  N   UNL     1       6.234   4.890  15.998  0.00  0.00    +0.000 N 
ATOM      4  H   UNL     1       5.415   5.470  16.182  0.00  0.00    +0.000 HD
ENDROOT
BRANCH   3   5
ATOM      5  C   UNL     1       6.595   4.684  14.645  0.00  0.00    +0.000 A 
ATOM      6  C   UNL     1       7.588   5.416  13.993  0.00  0.00    +0.000 A 
ATOM      7  C   UNL     1       7.850   5.193  12.641  0.00  0.00    +0.000 A 
ATOM      8  C   UNL     1       7.117   4.223  11.981  0.00  0.00    +0.000 A 
ATOM      9  N   UNL     1       6.178   3.461  12.580  0.00  0.00    +0.000 NA
ATOM     10  C   UNL     1       5.945   3.706  13.895  0.00  0.00    +0.000 A 
ENDBRANCH   3   5
BRANCH   1  11
ATOM     11  C   UNL     1       6.343   4.877  18.437  0.00  0.00    +0.000 C 
BRANCH  11  14
ATOM     12  C   UNL     1       4.041   4.016  18.471  0.00  0.00    +0.000 C 
ATOM     13  O   UNL     1       3.644   5.043  17.914  0.00  0.00    +0.000 OA
ATOM     14  N   UNL     1       5.370   3.851  18.771  0.00  0.00    +0.000 N 
ATOM     15  H   UNL     1       5.653   3.139  19.432  0.00  0.00    +0.000 HD
BRANCH  12  17
ATOM     16  C   UNL     1       1.688   3.135  18.370  0.00  0.00    +0.000 C 
ATOM     17  C   UNL     1       3.103   2.873  18.913  0.00  0.00    +0.000 C 
ATOM     18  C   UNL     1       3.042   2.823  20.446  0.00  0.00    +0.000 C 
ATOM     19  C   UNL     1       3.592   1.523  18.368  0.00  0.00    +0.000 C 
ENDBRANCH  12  17
ENDBRANCH  11  14
ENDBRANCH   1  11
TORSDOF 4
ENDMDL
MODEL 8
REMARK VINA RESULT:      -6.4      1.792      2.186
REMARK  Name = 
REMARK  7 active torsions:
REMARK  status: ('A' for Active; 'I' for Inactive)
REMARK    1  A    between atoms: C_1  and  C_2
REMARK    2  A    between atoms: C_2  and  C_3
REMARK    3  A    between atoms: C_2  and  C_4
REMARK    4  A    between atoms: C_2  and  C_5
REMARK    5  A    between atoms: N_7  and  C_8
REMARK    6  A    between atoms: C_8  and  C_9
REMARK    7  A    between atoms: N_11  and  C_12
REMARK                            x       y       z     vdW  Elec       q    Type
REMARK                         _______ _______ _______ _____ _____    ______ ____
ROOT
ATOM      1  C   UNL     1       6.864   4.749  17.056  0.00  0.00    +0.000 C 
ATOM      2  O   UNL     1       8.019   4.329  17.079  0.00  0.00    +0.000 OA
ATOM      3  N   UNL     1       6.120   5.025  15.919  0.00  0.00    +0.000 N 
ATOM      4  H   UNL     1       5.309   5.631  16.050  0.00  0.00    +0.000 HD
ENDROOT
BRANCH   3   5
ATOM      5  C   UNL     1       6.512   4.742  14.588  0.00  0.00    +0.000 A 
ATOM      6  C   UNL     1       7.543   5.413  13.929  0.00  0.00    +0.000 A 
ATOM      7  C   UNL     1       7.834   5.115  12.598  0.00  0.00    +0.000 A 
ATOM      8  C   UNL     1       7.093   4.133  11.966  0.00  0.00    +0.000 A 
ATOM      9  N   UNL     1       6.117   3.427  12.576  0.00  0.00    +0.000 NA
ATOM     10  C   UNL     1       5.856   3.745  13.870  0.00  0.00    +0.000 A 
ENDBRANCH   3   5
BRANCH   1  11
ATOM     11  C   UNL     1       6.164   5.137  18.357  0.00  0.00    +0.000 C 
BRANCH  11  14
ATOM     12  C   UNL     1       4.205   3.770  18.937  0.00  0.00    +0.000 C 
ATOM     13  O   UNL     1       4.922   3.015  19.599  0.00  0.00    +0.000 OA
ATOM     14  N   UNL     1       4.741   4.851  18.283  0.00  0.00    +0.000 N 
ATOM     15  H   UNL     1       4.212   5.315  17.557  0.00  0.00    +0.000 HD
BRANCH  12  17
ATOM     16  C   UNL     1       2.005   3.497  20.123  0.00  0.00    +0.000 C 
ATOM     17  C   UNL     1       2.690   3.551  18.746  0.00  0.00    +0.000 C 
ATOM     18  C   UNL     1       2.450   2.218  18.023  0.00  0.00    +0.000 C 
ATOM     19  C   UNL     1       2.069   4.700  17.938  0.00  0.00    +0.000 C 
ENDBRANCH  12  17
ENDBRANCH  11  14
ENDBRANCH   1  11
TORSDOF 4
ENDMDL
MODEL 9
REMARK VINA RESULT:      -6.3      2.243      3.168
REMARK  Name = 
REMARK  7 active torsions:
REMARK  status: ('A' for Active; 'I' for Inactive)
REMARK    1  A    between atoms: C_1  and  C_2
REMARK    2  A    between atoms: C_2  and  C_3
REMARK    3  A    between atoms: C_2  and  C_4
REMARK    4  A    between atoms: C_2  and  C_5
REMARK    5  A    between atoms: N_7  and  C_8
REMARK    6  A    between atoms: C_8  and  C_9
REMARK    7  A    between atoms: N_11  and  C_12
REMARK                            x       y       z     vdW  Elec       q    Type
REMARK                         _______ _______ _______ _____ _____    ______ ____
ROOT
ATOM      1  C   UNL     1       4.894   3.792  17.016  0.00  0.00    +0.000 C 
ATOM      2  O   UNL     1       5.170   3.959  15.829  0.00  0.00    +0.000 OA
ATOM      3  N   UNL     1       5.429   4.496  18.084  0.00  0.00    +0.000 N 
ATOM      4  H   UNL     1       5.332   4.059  19.001  0.00  0.00    +0.000 HD
ENDROOT
BRANCH   3   5
ATOM      5  C   UNL     1       6.282   5.621  17.985  0.00  0.00    +0.000 A 
ATOM      6  C   UNL     1       7.432   5.787  18.759  0.00  0.00    +0.000 A 
ATOM      7  C   UNL     1       8.192   6.950  18.643  0.00  0.00    +0.000 A 
ATOM      8  C   UNL     1       7.789   7.912  17.736  0.00  0.00    +0.000 A 
ATOM      9  N   UNL     1       6.711   7.776  16.935  0.00  0.00    +0.000 NA
ATOM     10  C   UNL     1       5.990   6.635  17.076  0.00  0.00    +0.000 A 
ENDBRANCH   3   5
BRANCH   1  11
ATOM     11  C   UNL     1       3.976   2.644  17.434  0.00  0.00    +0.000 C 
BRANCH  11  14
ATOM     12  C   UNL     1       3.072   2.930  19.701  0.00  0.00    +0.000 C 
ATOM     13  O   UNL     1       4.059   2.361  20.171  0.00  0.00    +0.000 OA
ATOM     14  N   UNL     1       2.948   3.112  18.346  0.00  0.00    +0.000 N 
ATOM     15  H   UNL     1       2.048   3.350  17.949  0.00  0.00    +0.000 HD
BRANCH  12  17
ATOM     16  C   UNL     1       0.581   3.269  19.772  0.00  0.00    +0.000 C 
ATOM     17  C   UNL     1       1.893   3.435  20.559  0.00  0.00    +0.000 C 
ATOM     18  C   UNL     1       2.091   4.923  20.879  0.00  0.00    +0.000 C 
ATOM     19  C   UNL     1       1.784   2.632  21.864  0.00  0.00    +0.000 C 
ENDBRANCH  12  17
ENDBRANCH  11  14
ENDBRANCH   1  11
TORSDOF 4
ENDMDL
