MODEL 1
REMARK VINA RESULT:      -3.4      0.000      0.000
REMARK  Name = 
REMARK  2 active torsions:
REMARK  status: ('A' for Active; 'I' for Inactive)
REMARK    1  A    between atoms: C_2  and  C_4
REMARK    2  A    between atoms: C_4  and  S_5
REMARK                            x       y       z     vdW  Elec       q    Type
REMARK                         _______ _______ _______ _____ _____    ______ ____
ROOT
ATOM      1  N   UNL     1       6.714   3.797  27.516  0.00  0.00    +0.000 NA
ATOM      2  C   UNL     1       6.882   5.004  27.925  0.00  0.00    +0.000 C 
ATOM      3  N   UNL     1       5.783   5.904  27.971  0.00  0.00    +0.000 N 
ATOM      4  H   UNL     1       5.791   3.453  27.213  0.00  0.00    +0.000 HD
ATOM      5  H   UNL     1       4.844   5.602  27.673  0.00  0.00    +0.000 HD
ATOM      6  H   UNL     1       5.910   6.872  28.296  0.00  0.00    +0.000 HD
ENDROOT
BRANCH   2   7
ATOM      7  C   UNL     1       8.247   5.455  28.359  0.00  0.00    +0.000 C 
BRANCH   7   8
ATOM      8  S   UNL     1       9.540   4.389  27.645  0.00  0.00    +0.000 S 
ATOM      9  H   UNL     1      10.529   4.855  28.533  0.00  0.00    +0.000 HD
ENDBRANCH   7   8
ENDBRANCH   2   7
TORSDOF 2
ENDMDL
MODEL 2
REMARK VINA RESULT:      -3.3      1.883      1.953
REMARK  Name = 
REMARK  2 active torsions:
REMARK  status: ('A' for Active; 'I' for Inactive)
REMARK    1  A    between atoms: C_2  and  C_4
REMARK    2  A    between atoms: C_4  and  S_5
REMARK                            x       y       z     vdW  Elec       q    Type
REMARK                         _______ _______ _______ _____ _____    ______ ____
ROOT
ATOM      1  N   UNL     1       7.563   3.895  26.828  0.00  0.00    +0.000 NA
ATOM      2  C   UNL     1       8.476   4.447  27.545  0.00  0.00    +0.000 C 
ATOM      3  N   UNL     1       8.153   5.534  28.402  0.00  0.00    +0.000 N 
ATOM      4  H   UNL     1       6.586   4.221  26.853  0.00  0.00    +0.000 HD
ATOM      5  H   UNL     1       7.190   5.894  28.455  0.00  0.00    +0.000 HD
ATOM      6  H   UNL     1       8.880   5.982  28.978  0.00  0.00    +0.000 HD
ENDROOT
BRANCH   2   7
ATOM      7  C   UNL     1       9.885   3.932  27.474  0.00  0.00    +0.000 C 
BRANCH   7   8
ATOM      8  S   UNL     1      11.065   5.188  28.062  0.00  0.00    +0.000 S 
ATOM      9  H   UNL     1      11.862   4.243  28.735  0.00  0.00    +0.000 HD
ENDBRANCH   7   8
ENDBRANCH   2   7
TORSDOF 2
ENDMDL
MODEL 3
REMARK VINA RESULT:      -3.2      2.296      2.761
REMARK  Name = 
REMARK  2 active torsions:
REMARK  status: ('A' for Active; 'I' for Inactive)
REMARK    1  A    between atoms: C_2  and  C_4
REMARK    2  A    between atoms: C_4  and  S_5
REMARK                            x       y       z     vdW  Elec       q    Type
REMARK                         _______ _______ _______ _____ _____    ______ ____
ROOT
ATOM      1  N   UNL     1       7.636   3.852  26.796  0.00  0.00    +0.000 NA
ATOM      2  C   UNL     1       8.509   4.443  27.532  0.00  0.00    +0.000 C 
ATOM      3  N   UNL     1       9.868   4.030  27.502  0.00  0.00    +0.000 N 
ATOM      4  H   UNL     1       7.895   3.072  26.173  0.00  0.00    +0.000 HD
ATOM      5  H   UNL     1      10.169   3.253  26.896  0.00  0.00    +0.000 HD
ATOM      6  H   UNL     1      10.573   4.498  28.090  0.00  0.00    +0.000 HD
ENDROOT
BRANCH   2   7
ATOM      7  C   UNL     1       8.082   5.576  28.421  0.00  0.00    +0.000 C 
BRANCH   7   8
ATOM      8  S   UNL     1       6.273   5.782  28.385  0.00  0.00    +0.000 S 
ATOM      9  H   UNL     1       6.038   4.405  28.211  0.00  0.00    +0.000 HD
ENDBRANCH   7   8
ENDBRANCH   2   7
TORSDOF 2
ENDMDL
MODEL 4
REMARK VINA RESULT:      -3.2      1.537      1.641
REMARK  Name = 
REMARK  2 active torsions:
REMARK  status: ('A' for Active; 'I' for Inactive)
REMARK    1  A    between atoms: C_2  and  C_4
REMARK    2  A    between atoms: C_4  and  S_5
REMARK                            x       y       z     vdW  Elec       q    Type
REMARK                         _______ _______ _______ _____ _____    ______ ____
ROOT
ATOM      1  N   UNL     1       8.069   3.851  26.953  0.00  0.00    +0.000 NA
ATOM      2  C   UNL     1       8.438   4.787  27.752  0.00  0.00    +0.000 C 
ATOM      3  N   UNL     1       7.469   5.557  28.450  0.00  0.00    +0.000 N 
ATOM      4  H   UNL     1       7.073   3.636  26.797  0.00  0.00    +0.000 HD
ATOM      5  H   UNL     1       6.463   5.378  28.321  0.00  0.00    +0.000 HD
ATOM      6  H   UNL     1       7.758   6.310  29.091  0.00  0.00    +0.000 HD
ENDROOT
BRANCH   2   7
ATOM      7  C   UNL     1       9.903   5.059  27.947  0.00  0.00    +0.000 C 
BRANCH   7   8
ATOM      8  S   UNL     1      10.871   3.524  27.805  0.00  0.00    +0.000 S 
ATOM      9  H   UNL     1      11.245   3.786  26.473  0.00  0.00    +0.000 HD
ENDBRANCH   7   8
ENDBRANCH   2   7
TORSDOF 2
ENDMDL
MODEL 5
REMARK VINA RESULT:      -3.2     11.732     11.922
REMARK  Name = 
REMARK  2 active torsions:
REMARK  status: ('A' for Active; 'I' for Inactive)
REMARK    1  A    between atoms: C_2  and  C_4
REMARK    2  A    between atoms: C_4  and  S_5
REMARK                            x       y       z     vdW  Elec       q    Type
REMARK                         _______ _______ _______ _____ _____    ______ ____
ROOT
ATOM      1  N   UNL     1       8.002   4.172  17.529  0.00  0.00    +0.000 NA
ATOM      2  C   UNL     1       7.209   4.783  16.722  0.00  0.00    +0.000 C 
ATOM      3  N   UNL     1       7.396   6.164  16.445  0.00  0.00    +0.000 N 
ATOM      4  H   UNL     1       8.782   4.660  17.992  0.00  0.00    +0.000 HD
ATOM      5  H   UNL     1       8.162   6.691  16.889  0.00  0.00    +0.000 HD
ATOM      6  H   UNL     1       6.765   6.660  15.800  0.00  0.00    +0.000 HD
ENDROOT
BRANCH   2   7
ATOM      7  C   UNL     1       6.088   4.025  16.071  0.00  0.00    +0.000 C 
BRANCH   7   8
ATOM      8  S   UNL     1       6.237   4.079  14.257  0.00  0.00    +0.000 S 
ATOM      9  H   UNL     1       4.952   4.627  14.085  0.00  0.00    +0.000 HD
ENDBRANCH   7   8
ENDBRANCH   2   7
TORSDOF 2
ENDMDL
MODEL 6
REMARK VINA RESULT:      -3.1      1.188      1.188
REMARK  Name = 
REMARK  2 active torsions:
REMARK  status: ('A' for Active; 'I' for Inactive)
REMARK    1  A    between atoms: C_2  and  C_4
REMARK    2  A    between atoms: C_4  and  S_5
REMARK                            x       y       z     vdW  Elec       q    Type
REMARK                         _______ _______ _______ _____ _____    ______ ____
ROOT
ATOM      1  N   UNL     1       5.402   4.241  28.205  0.00  0.00    +0.000 NA
ATOM      2  C   UNL     1       6.479   4.922  28.038  0.00  0.00    +0.000 C 
ATOM      3  N   UNL     1       6.603   6.218  28.607  0.00  0.00    +0.000 N 
ATOM      4  H   UNL     1       4.608   4.612  28.748  0.00  0.00    +0.000 HD
ATOM      5  H   UNL     1       5.832   6.628  29.154  0.00  0.00    +0.000 HD
ATOM      6  H   UNL     1       7.463   6.769  28.476  0.00  0.00    +0.000 HD
ENDROOT
BRANCH   2   7
ATOM      7  C   UNL     1       7.609   4.335  27.240  0.00  0.00    +0.000 C 
BRANCH   7   8
ATOM      8  S   UNL     1       9.217   4.856  27.915  0.00  0.00    +0.000 S 
ATOM      9  H   UNL     1       8.902   6.225  27.829  0.00  0.00    +0.000 HD
ENDBRANCH   7   8
ENDBRANCH   2   7
TORSDOF 2
ENDMDL
MODEL 7
REMARK VINA RESULT:      -3.1      9.591      9.807
REMARK  Name = 
REMARK  2 active torsions:
REMARK  status: ('A' for Active; 'I' for Inactive)
REMARK    1  A    between atoms: C_2  and  C_4
REMARK    2  A    between atoms: C_4  and  S_5
REMARK                            x       y       z     vdW  Elec       q    Type
REMARK                         _______ _______ _______ _____ _____    ______ ____
ROOT
ATOM      1  N   UNL     1       7.944   5.544  20.133  0.00  0.00    +0.000 NA
ATOM      2  C   UNL     1       7.770   5.544  18.860  0.00  0.00    +0.000 C 
ATOM      3  N   UNL     1       7.748   4.319  18.141  0.00  0.00    +0.000 N 
ATOM      4  H   UNL     1       8.073   4.668  20.661  0.00  0.00    +0.000 HD
ATOM      5  H   UNL     1       7.876   3.420  18.628  0.00  0.00    +0.000 HD
ATOM      6  H   UNL     1       7.609   4.311  17.120  0.00  0.00    +0.000 HD
ENDROOT
BRANCH   2   7
ATOM      7  C   UNL     1       7.584   6.849  18.138  0.00  0.00    +0.000 C 
BRANCH   7   8
ATOM      8  S   UNL     1       6.077   6.815  17.117  0.00  0.00    +0.000 S 
ATOM      9  H   UNL     1       6.780   6.483  15.944  0.00  0.00    +0.000 HD
ENDBRANCH   7   8
ENDBRANCH   2   7
TORSDOF 2
ENDMDL
MODEL 8
REMARK VINA RESULT:      -2.9      9.257      9.381
REMARK  Name = 
REMARK  2 active torsions:
REMARK  status: ('A' for Active; 'I' for Inactive)
REMARK    1  A    between atoms: C_2  and  C_4
REMARK    2  A    between atoms: C_4  and  S_5
REMARK                            x       y       z     vdW  Elec       q    Type
REMARK                         _______ _______ _______ _____ _____    ______ ____
ROOT
ATOM      1  N   UNL     1       7.945   5.410  20.349  0.00  0.00    +0.000 NA
ATOM      2  C   UNL     1       7.923   5.824  19.132  0.00  0.00    +0.000 C 
ATOM      3  N   UNL     1       8.305   7.158  18.824  0.00  0.00    +0.000 N 
ATOM      4  H   UNL     1       8.234   6.024  21.124  0.00  0.00    +0.000 HD
ATOM      5  H   UNL     1       8.598   7.807  19.569  0.00  0.00    +0.000 HD
ATOM      6  H   UNL     1       8.289   7.497  17.852  0.00  0.00    +0.000 HD
ENDROOT
BRANCH   2   7
ATOM      7  C   UNL     1       7.496   4.888  18.038  0.00  0.00    +0.000 C 
BRANCH   7   8
ATOM      8  S   UNL     1       5.695   4.627  18.074  0.00  0.00    +0.000 S 
ATOM      9  H   UNL     1       5.808   3.243  17.843  0.00  0.00    +0.000 HD
ENDBRANCH   7   8
ENDBRANCH   2   7
TORSDOF 2
ENDMDL
MODEL 9
REMARK VINA RESULT:      -2.9      9.288      9.695
REMARK  Name = 
REMARK  2 active torsions:
REMARK  status: ('A' for Active; 'I' for Inactive)
REMARK    1  A    between atoms: C_2  and  C_4
REMARK    2  A    between atoms: C_4  and  S_5
REMARK                            x       y       z     vdW  Elec       q    Type
REMARK                         _______ _______ _______ _____ _____    ______ ____
ROOT
ATOM      1  N   UNL     1       4.973   2.022  19.887  0.00  0.00    +0.000 NA
ATOM      2  C   UNL     1       3.788   2.238  19.438  0.00  0.00    +0.000 C 
ATOM      3  N   UNL     1       3.225   1.376  18.458  0.00  0.00    +0.000 N 
ATOM      4  H   UNL     1       5.541   1.230  19.552  0.00  0.00    +0.000 HD
ATOM      5  H   UNL     1       3.760   0.575  18.094  0.00  0.00    +0.000 HD
ATOM      6  H   UNL     1       2.277   1.544  18.094  0.00  0.00    +0.000 HD
ENDROOT
BRANCH   2   7
ATOM      7  C   UNL     1       2.999   3.405  19.961  0.00  0.00    +0.000 C 
BRANCH   7   8
ATOM      8  S   UNL     1       2.054   2.936  21.445  0.00  0.00    +0.000 S 
ATOM      9  H   UNL     1       3.000   1.973  21.844  0.00  0.00    +0.000 HD
ENDBRANCH   7   8
ENDBRANCH   2   7
TORSDOF 2
ENDMDL
