MODEL 1
REMARK VINA RESULT:      -8.2      0.000      0.000
REMARK  Name = 
REMARK  7 active torsions:
REMARK  status: ('A' for Active; 'I' for Inactive)
REMARK    1  A    between atoms: C_2  and  C_18
REMARK    2  A    between atoms: N_3  and  C_4
REMARK    3  A    between atoms: N_12  and  C_13
REMARK    4  A    between atoms: C_13  and  P_14
REMARK    5  A    between atoms: P_14  and  O_16
REMARK    6  A    between atoms: P_14  and  O_17
REMARK    7  A    between atoms: C_22  and  C_23
REMARK                            x       y       z     vdW  Elec       q    Type
REMARK                         _______ _______ _______ _____ _____    ______ ____
ROOT
ATOM      1  O   UNL     1       1.846   8.779  21.803  0.00  0.00    +0.000 OA
ATOM      2  C   UNL     1       1.151   8.788  20.792  0.00  0.00    +0.000 C 
ATOM      3  N   UNL     1       1.164   7.828  19.789  0.00  0.00    +0.000 N 
ATOM      4  H   UNL     1       0.705   7.997  18.904  0.00  0.00    +0.000 HD
ENDROOT
BRANCH   3   5
ATOM      5  C   UNL     1       1.973   6.672  19.859  0.00  0.00    +0.000 A 
ATOM      6  N   UNL     1       1.750   5.718  20.799  0.00  0.00    +0.000 NA
ATOM      7  C   UNL     1       2.563   4.648  20.873  0.00  0.00    +0.000 A 
ATOM      8  N   UNL     1       3.630   4.362  20.098  0.00  0.00    +0.000 NA
ATOM      9  C   UNL     1       3.822   5.324  19.182  0.00  0.00    +0.000 A 
ATOM     10  C   UNL     1       3.054   6.470  18.980  0.00  0.00    +0.000 A 
ATOM     11  N   UNL     1       3.569   7.201  17.926  0.00  0.00    +0.000 NA
ATOM     12  C   UNL     1       4.633   6.525  17.524  0.00  0.00    +0.000 A 
ATOM     13  N   UNL     1       4.839   5.392  18.270  0.00  0.00    +0.000 N 
BRANCH  13  14
ATOM     14  C   UNL     1       5.979   4.489  18.177  0.00  0.00    +0.000 C 
BRANCH  14  15
ATOM     15  P   UNL     1       6.840   4.814  16.595  0.00  0.00    +0.000 P 
ATOM     16  O   UNL     1       8.155   4.241  17.132  0.00  0.00    +0.000 OA
BRANCH  15  17
ATOM     17  O   UNL     1       6.119   3.530  15.883  0.00  0.00    +0.000 OA
ATOM     18  H   UNL     1       6.780   2.833  15.714  0.00  0.00    +0.000 HD
ENDBRANCH  15  17
BRANCH  15  19
ATOM     19  O   UNL     1       7.653   5.122  15.099  0.00  0.00    +0.000 OA
ATOM     20  H   UNL     1       7.021   4.857  14.397  0.00  0.00    +0.000 HD
ENDBRANCH  15  19
ENDBRANCH  14  15
ENDBRANCH  13  14
ENDBRANCH   3   5
BRANCH   2  21
ATOM     21  C   UNL     1       0.264   9.974  20.611  0.00  0.00    +0.000 A 
ATOM     22  C   UNL     1       0.352  11.115  21.406  0.00  0.00    +0.000 A 
ATOM     23  C   UNL     1      -0.446  12.222  21.104  0.00  0.00    +0.000 A 
ATOM     24  C   UNL     1      -1.335  12.190  20.017  0.00  0.00    +0.000 A 
ATOM     25  C   UNL     1      -1.443  11.060  19.189  0.00  0.00    +0.000 A 
ATOM     26  C   UNL     1      -0.618   9.964  19.508  0.00  0.00    +0.000 A 
BRANCH  25  27
ATOM     27  C   UNL     1      -2.366  11.025  18.022  0.00  0.00    +0.000 A 
ATOM     28  C   UNL     1      -2.016  10.381  16.820  0.00  0.00    +0.000 A 
ATOM     29  C   UNL     1      -2.891  10.348  15.727  0.00  0.00    +0.000 A 
ATOM     30  C   UNL     1      -4.141  10.952  15.808  0.00  0.00    +0.000 A 
ATOM     31  C   UNL     1      -4.510  11.591  16.983  0.00  0.00    +0.000 A 
ATOM     32  C   UNL     1      -3.636  11.633  18.072  0.00  0.00    +0.000 A 
ENDBRANCH  25  27
ENDBRANCH   2  21
TORSDOF 7
ENDMDL
MODEL 2
REMARK VINA RESULT:      -8.1      4.846      9.558
REMARK  Name = 
REMARK  7 active torsions:
REMARK  status: ('A' for Active; 'I' for Inactive)
REMARK    1  A    between atoms: C_2  and  C_18
REMARK    2  A    between atoms: N_3  and  C_4
REMARK    3  A    between atoms: N_12  and  C_13
REMARK    4  A    between atoms: C_13  and  P_14
REMARK    5  A    between atoms: P_14  and  O_16
REMARK    6  A    between atoms: P_14  and  O_17
REMARK    7  A    between atoms: C_22  and  C_23
REMARK                            x       y       z     vdW  Elec       q    Type
REMARK                         _______ _______ _______ _____ _____    ______ ____
ROOT
ATOM      1  O   UNL     1       2.110  10.333  17.459  0.00  0.00    +0.000 OA
ATOM      2  C   UNL     1       1.698   9.352  18.071  0.00  0.00    +0.000 C 
ATOM      3  N   UNL     1       0.575   9.317  18.886  0.00  0.00    +0.000 N 
ATOM      4  H   UNL     1       0.406   8.531  19.501  0.00  0.00    +0.000 HD
ENDROOT
BRANCH   3   5
ATOM      5  C   UNL     1      -0.267  10.436  19.062  0.00  0.00    +0.000 A 
ATOM      6  N   UNL     1       0.134  11.508  19.792  0.00  0.00    +0.000 NA
ATOM      7  C   UNL     1      -0.705  12.542  19.982  0.00  0.00    +0.000 A 
ATOM      8  N   UNL     1      -1.964  12.684  19.518  0.00  0.00    +0.000 NA
ATOM      9  C   UNL     1      -2.329  11.610  18.802  0.00  0.00    +0.000 A 
ATOM     10  C   UNL     1      -1.563  10.483  18.511  0.00  0.00    +0.000 A 
ATOM     11  N   UNL     1      -2.294   9.606  17.731  0.00  0.00    +0.000 NA
ATOM     12  C   UNL     1      -3.476  10.181  17.580  0.00  0.00    +0.000 A 
ATOM     13  N   UNL     1      -3.552  11.386  18.230  0.00  0.00    +0.000 N 
BRANCH  13  14
ATOM     14  C   UNL     1      -4.738  12.221  18.372  0.00  0.00    +0.000 C 
BRANCH  14  15
ATOM     15  P   UNL     1      -6.175  11.128  18.672  0.00  0.00    +0.000 P 
ATOM     16  O   UNL     1      -6.582  11.918  19.920  0.00  0.00    +0.000 OA
BRANCH  15  17
ATOM     17  O   UNL     1      -7.028  11.837  17.469  0.00  0.00    +0.000 OA
ATOM     18  H   UNL     1      -7.699  12.434  17.849  0.00  0.00    +0.000 HD
ENDBRANCH  15  17
BRANCH  15  19
ATOM     19  O   UNL     1      -7.533  10.094  18.955  0.00  0.00    +0.000 OA
ATOM     20  H   UNL     1      -7.521   9.438  18.227  0.00  0.00    +0.000 HD
ENDBRANCH  15  19
ENDBRANCH  14  15
ENDBRANCH  13  14
ENDBRANCH   3   5
BRANCH   2  21
ATOM     21  C   UNL     1       2.523   8.113  17.964  0.00  0.00    +0.000 A 
ATOM     22  C   UNL     1       3.726   8.061  17.262  0.00  0.00    +0.000 A 
ATOM     23  C   UNL     1       4.487   6.890  17.299  0.00  0.00    +0.000 A 
ATOM     24  C   UNL     1       4.050   5.772  18.026  0.00  0.00    +0.000 A 
ATOM     25  C   UNL     1       2.848   5.792  18.753  0.00  0.00    +0.000 A 
ATOM     26  C   UNL     1       2.106   6.988  18.710  0.00  0.00    +0.000 A 
BRANCH  25  27
ATOM     27  C   UNL     1       2.387   4.620  19.545  0.00  0.00    +0.000 A 
ATOM     28  C   UNL     1       2.533   4.567  20.945  0.00  0.00    +0.000 A 
ATOM     29  C   UNL     1       2.093   3.462  21.685  0.00  0.00    +0.000 A 
ATOM     30  C   UNL     1       1.489   2.384  21.046  0.00  0.00    +0.000 A 
ATOM     31  C   UNL     1       1.331   2.413  19.668  0.00  0.00    +0.000 A 
ATOM     32  C   UNL     1       1.777   3.511  18.927  0.00  0.00    +0.000 A 
ENDBRANCH  25  27
ENDBRANCH   2  21
TORSDOF 7
ENDMDL
MODEL 3
REMARK VINA RESULT:      -8.0      4.736      9.606
REMARK  Name = 
REMARK  7 active torsions:
REMARK  status: ('A' for Active; 'I' for Inactive)
REMARK    1  A    between atoms: C_2  and  C_18
REMARK    2  A    between atoms: N_3  and  C_4
REMARK    3  A    between atoms: N_12  and  C_13
REMARK    4  A    between atoms: C_13  and  P_14
REMARK    5  A    between atoms: P_14  and  O_16
REMARK    6  A    between atoms: P_14  and  O_17
REMARK    7  A    between atoms: C_22  and  C_23
REMARK                            x       y       z     vdW  Elec       q    Type
REMARK                         _______ _______ _______ _____ _____    ______ ____
ROOT
ATOM      1  O   UNL     1       2.167  10.460  17.750  0.00  0.00    +0.000 OA
ATOM      2  C   UNL     1       1.716   9.450  18.283  0.00  0.00    +0.000 C 
ATOM      3  N   UNL     1       0.605   9.399  19.114  0.00  0.00    +0.000 N 
ATOM      4  H   UNL     1       0.407   8.571  19.662  0.00  0.00    +0.000 HD
ENDROOT
BRANCH   3   5
ATOM      5  C   UNL     1      -0.179  10.537  19.401  0.00  0.00    +0.000 A 
ATOM      6  N   UNL     1      -0.527  11.412  18.424  0.00  0.00    +0.000 NA
ATOM      7  C   UNL     1      -1.236  12.513  18.732  0.00  0.00    +0.000 A 
ATOM      8  N   UNL     1      -1.687  12.897  19.943  0.00  0.00    +0.000 NA
ATOM      9  C   UNL     1      -1.327  12.012  20.885  0.00  0.00    +0.000 A 
ATOM     10  C   UNL     1      -0.612  10.828  20.709  0.00  0.00    +0.000 A 
ATOM     11  N   UNL     1      -0.459  10.187  21.925  0.00  0.00    +0.000 NA
ATOM     12  C   UNL     1      -1.042  10.979  22.809  0.00  0.00    +0.000 A 
ATOM     13  N   UNL     1      -1.562  12.108  22.230  0.00  0.00    +0.000 N 
BRANCH  13  14
ATOM     14  C   UNL     1      -2.161  13.241  22.924  0.00  0.00    +0.000 C 
BRANCH  14  15
ATOM     15  P   UNL     1      -3.622  12.639  23.849  0.00  0.00    +0.000 P 
ATOM     16  O   UNL     1      -3.985  14.057  24.301  0.00  0.00    +0.000 OA
BRANCH  15  17
ATOM     17  O   UNL     1      -4.476  12.441  22.468  0.00  0.00    +0.000 OA
ATOM     18  H   UNL     1      -4.644  13.310  22.057  0.00  0.00    +0.000 HD
ENDBRANCH  15  17
BRANCH  15  19
ATOM     19  O   UNL     1      -5.001  12.069  24.723  0.00  0.00    +0.000 OA
ATOM     20  H   UNL     1      -5.748  12.105  24.088  0.00  0.00    +0.000 HD
ENDBRANCH  15  19
ENDBRANCH  14  15
ENDBRANCH  13  14
ENDBRANCH   3   5
BRANCH   2  21
ATOM     21  C   UNL     1       2.477   8.188  18.054  0.00  0.00    +0.000 A 
ATOM     22  C   UNL     1       3.608   8.120  17.243  0.00  0.00    +0.000 A 
ATOM     23  C   UNL     1       4.322   6.922  17.165  0.00  0.00    +0.000 A 
ATOM     24  C   UNL     1       3.908   5.791  17.887  0.00  0.00    +0.000 A 
ATOM     25  C   UNL     1       2.778   5.825  18.722  0.00  0.00    +0.000 A 
ATOM     26  C   UNL     1       2.084   7.049  18.793  0.00  0.00    +0.000 A 
BRANCH  25  27
ATOM     27  C   UNL     1       2.344   4.640  19.509  0.00  0.00    +0.000 A 
ATOM     28  C   UNL     1       2.439   4.606  20.913  0.00  0.00    +0.000 A 
ATOM     29  C   UNL     1       2.025   3.488  21.648  0.00  0.00    +0.000 A 
ATOM     30  C   UNL     1       1.497   2.376  20.999  0.00  0.00    +0.000 A 
ATOM     31  C   UNL     1       1.391   2.386  19.616  0.00  0.00    +0.000 A 
ATOM     32  C   UNL     1       1.811   3.497  18.880  0.00  0.00    +0.000 A 
ENDBRANCH  25  27
ENDBRANCH   2  21
TORSDOF 7
ENDMDL
MODEL 4
REMARK VINA RESULT:      -7.9      4.113      8.949
REMARK  Name = 
REMARK  7 active torsions:
REMARK  status: ('A' for Active; 'I' for Inactive)
REMARK    1  A    between atoms: C_2  and  C_18
REMARK    2  A    between atoms: N_3  and  C_4
REMARK    3  A    between atoms: N_12  and  C_13
REMARK    4  A    between atoms: C_13  and  P_14
REMARK    5  A    between atoms: P_14  and  O_16
REMARK    6  A    between atoms: P_14  and  O_17
REMARK    7  A    between atoms: C_22  and  C_23
REMARK                            x       y       z     vdW  Elec       q    Type
REMARK                         _______ _______ _______ _____ _____    ______ ____
ROOT
ATOM      1  O   UNL     1       0.559   5.656  20.736  0.00  0.00    +0.000 OA
ATOM      2  C   UNL     1       1.732   5.962  20.541  0.00  0.00    +0.000 C 
ATOM      3  N   UNL     1       2.247   7.251  20.555  0.00  0.00    +0.000 N 
ATOM      4  H   UNL     1       3.176   7.441  20.204  0.00  0.00    +0.000 HD
ENDROOT
BRANCH   3   5
ATOM      5  C   UNL     1       1.454   8.380  20.857  0.00  0.00    +0.000 A 
ATOM      6  N   UNL     1       1.133   8.688  22.140  0.00  0.00    +0.000 NA
ATOM      7  C   UNL     1       0.339   9.742  22.398  0.00  0.00    +0.000 A 
ATOM      8  N   UNL     1      -0.217  10.597  21.515  0.00  0.00    +0.000 NA
ATOM      9  C   UNL     1       0.119  10.265  20.258  0.00  0.00    +0.000 A 
ATOM     10  C   UNL     1       0.942   9.218  19.848  0.00  0.00    +0.000 A 
ATOM     11  N   UNL     1       1.054   9.221  18.470  0.00  0.00    +0.000 NA
ATOM     12  C   UNL     1       0.297  10.227  18.064  0.00  0.00    +0.000 A 
ATOM     13  N   UNL     1      -0.308  10.875  19.110  0.00  0.00    +0.000 N 
BRANCH  13  14
ATOM     14  C   UNL     1      -1.295  11.943  19.014  0.00  0.00    +0.000 C 
BRANCH  14  15
ATOM     15  P   UNL     1      -2.831  11.241  18.309  0.00  0.00    +0.000 P 
ATOM     16  O   UNL     1      -3.705  12.210  19.112  0.00  0.00    +0.000 OA
BRANCH  15  17
ATOM     17  O   UNL     1      -2.593  12.018  16.889  0.00  0.00    +0.000 OA
ATOM     18  H   UNL     1      -2.719  12.977  17.014  0.00  0.00    +0.000 HD
ENDBRANCH  15  17
BRANCH  15  19
ATOM     19  O   UNL     1      -4.283  10.576  17.643  0.00  0.00    +0.000 OA
ATOM     20  H   UNL     1      -5.012  11.125  18.000  0.00  0.00    +0.000 HD
ENDBRANCH  15  19
ENDBRANCH  14  15
ENDBRANCH  13  14
ENDBRANCH   3   5
BRANCH   2  21
ATOM     21  C   UNL     1       2.658   4.844  20.201  0.00  0.00    +0.000 A 
ATOM     22  C   UNL     1       2.628   3.610  20.849  0.00  0.00    +0.000 A 
ATOM     23  C   UNL     1       3.461   2.582  20.399  0.00  0.00    +0.000 A 
ATOM     24  C   UNL     1       4.326   2.783  19.312  0.00  0.00    +0.000 A 
ATOM     25  C   UNL     1       4.377   4.010  18.629  0.00  0.00    +0.000 A 
ATOM     26  C   UNL     1       3.518   5.025  19.095  0.00  0.00    +0.000 A 
BRANCH  25  27
ATOM     27  C   UNL     1       5.274   4.226  17.463  0.00  0.00    +0.000 A 
ATOM     28  C   UNL     1       4.829   4.040  16.140  0.00  0.00    +0.000 A 
ATOM     29  C   UNL     1       5.678   4.250  15.046  0.00  0.00    +0.000 A 
ATOM     30  C   UNL     1       6.993   4.657  15.245  0.00  0.00    +0.000 A 
ATOM     31  C   UNL     1       7.456   4.850  16.538  0.00  0.00    +0.000 A 
ATOM     32  C   UNL     1       6.612   4.634  17.632  0.00  0.00    +0.000 A 
ENDBRANCH  25  27
ENDBRANCH   2  21
TORSDOF 7
ENDMDL
MODEL 5
REMARK VINA RESULT:      -7.9      4.739      9.357
REMARK  Name = 
REMARK  7 active torsions:
REMARK  status: ('A' for Active; 'I' for Inactive)
REMARK    1  A    between atoms: C_2  and  C_18
REMARK    2  A    between atoms: N_3  and  C_4
REMARK    3  A    between atoms: N_12  and  C_13
REMARK    4  A    between atoms: C_13  and  P_14
REMARK    5  A    between atoms: P_14  and  O_16
REMARK    6  A    between atoms: P_14  and  O_17
REMARK    7  A    between atoms: C_22  and  C_23
REMARK                            x       y       z     vdW  Elec       q    Type
REMARK                         _______ _______ _______ _____ _____    ______ ____
ROOT
ATOM      1  O   UNL     1       2.203  10.250  17.548  0.00  0.00    +0.000 OA
ATOM      2  C   UNL     1       1.988   9.238  18.207  0.00  0.00    +0.000 C 
ATOM      3  N   UNL     1       1.141   9.147  19.302  0.00  0.00    +0.000 N 
ATOM      4  H   UNL     1       1.158   8.334  19.905  0.00  0.00    +0.000 HD
ENDROOT
BRANCH   3   5
ATOM      5  C   UNL     1       0.370  10.239  19.756  0.00  0.00    +0.000 A 
ATOM      6  N   UNL     1       0.792  11.013  20.789  0.00  0.00    +0.000 NA
ATOM      7  C   UNL     1       0.018  12.020  21.231  0.00  0.00    +0.000 A 
ATOM      8  N   UNL     1      -1.188  12.405  20.765  0.00  0.00    +0.000 NA
ATOM      9  C   UNL     1      -1.575  11.622  19.747  0.00  0.00    +0.000 A 
ATOM     10  C   UNL     1      -0.873  10.562  19.177  0.00  0.00    +0.000 A 
ATOM     11  N   UNL     1      -1.604  10.019  18.137  0.00  0.00    +0.000 NA
ATOM     12  C   UNL     1      -2.726  10.718  18.101  0.00  0.00    +0.000 A 
ATOM     13  N   UNL     1      -2.764  11.686  19.073  0.00  0.00    +0.000 N 
BRANCH  13  14
ATOM     14  C   UNL     1      -3.894  12.549  19.392  0.00  0.00    +0.000 C 
BRANCH  14  15
ATOM     15  P   UNL     1      -5.382  11.872  18.570  0.00  0.00    +0.000 P 
ATOM     16  O   UNL     1      -6.154  11.822  19.893  0.00  0.00    +0.000 OA
BRANCH  15  17
ATOM     17  O   UNL     1      -5.767  13.337  17.951  0.00  0.00    +0.000 OA
ATOM     18  H   UNL     1      -6.655  13.301  17.549  0.00  0.00    +0.000 HD
ENDBRANCH  15  17
BRANCH  15  19
ATOM     19  O   UNL     1      -6.788  11.232  17.793  0.00  0.00    +0.000 OA
ATOM     20  H   UNL     1      -7.375  10.929  18.518  0.00  0.00    +0.000 HD
ENDBRANCH  15  19
ENDBRANCH  14  15
ENDBRANCH  13  14
ENDBRANCH   3   5
BRANCH   2  21
ATOM     21  C   UNL     1       2.762   8.022  17.820  0.00  0.00    +0.000 A 
ATOM     22  C   UNL     1       4.001   8.082  17.183  0.00  0.00    +0.000 A 
ATOM     23  C   UNL     1       4.706   6.899  16.949  0.00  0.00    +0.000 A 
ATOM     24  C   UNL     1       4.177   5.659  17.340  0.00  0.00    +0.000 A 
ATOM     25  C   UNL     1       2.936   5.561  17.991  0.00  0.00    +0.000 A 
ATOM     26  C   UNL     1       2.252   6.769  18.227  0.00  0.00    +0.000 A 
BRANCH  25  27
ATOM     27  C   UNL     1       2.377   4.254  18.429  0.00  0.00    +0.000 A 
ATOM     28  C   UNL     1       1.452   4.160  19.486  0.00  0.00    +0.000 A 
ATOM     29  C   UNL     1       0.926   2.926  19.890  0.00  0.00    +0.000 A 
ATOM     30  C   UNL     1       1.307   1.754  19.244  0.00  0.00    +0.000 A 
ATOM     31  C   UNL     1       2.216   1.820  18.199  0.00  0.00    +0.000 A 
ATOM     32  C   UNL     1       2.747   3.049  17.799  0.00  0.00    +0.000 A 
ENDBRANCH  25  27
ENDBRANCH   2  21
TORSDOF 7
ENDMDL
MODEL 6
REMARK VINA RESULT:      -7.7      2.824      3.865
REMARK  Name = 
REMARK  7 active torsions:
REMARK  status: ('A' for Active; 'I' for Inactive)
REMARK    1  A    between atoms: C_2  and  C_18
REMARK    2  A    between atoms: N_3  and  C_4
REMARK    3  A    between atoms: N_12  and  C_13
REMARK    4  A    between atoms: C_13  and  P_14
REMARK    5  A    between atoms: P_14  and  O_16
REMARK    6  A    between atoms: P_14  and  O_17
REMARK    7  A    between atoms: C_22  and  C_23
REMARK                            x       y       z     vdW  Elec       q    Type
REMARK                         _______ _______ _______ _____ _____    ______ ____
ROOT
ATOM      1  O   UNL     1       1.028   8.775  17.794  0.00  0.00    +0.000 OA
ATOM      2  C   UNL     1       1.398   8.961  18.949  0.00  0.00    +0.000 C 
ATOM      3  N   UNL     1       2.038   8.030  19.757  0.00  0.00    +0.000 N 
ATOM      4  H   UNL     1       2.142   8.192  20.750  0.00  0.00    +0.000 HD
ENDROOT
BRANCH   3   5
ATOM      5  C   UNL     1       2.387   6.742  19.296  0.00  0.00    +0.000 A 
ATOM      6  N   UNL     1       1.832   5.629  19.841  0.00  0.00    +0.000 NA
ATOM      7  C   UNL     1       2.215   4.412  19.414  0.00  0.00    +0.000 A 
ATOM      8  N   UNL     1       3.121   4.115  18.460  0.00  0.00    +0.000 NA
ATOM      9  C   UNL     1       3.650   5.235  17.943  0.00  0.00    +0.000 A 
ATOM     10  C   UNL     1       3.337   6.552  18.274  0.00  0.00    +0.000 A 
ATOM     11  N   UNL     1       4.088   7.421  17.504  0.00  0.00    +0.000 NA
ATOM     12  C   UNL     1       4.850   6.644  16.751  0.00  0.00    +0.000 A 
ATOM     13  N   UNL     1       4.636   5.312  16.999  0.00  0.00    +0.000 N 
BRANCH  13  14
ATOM     14  C   UNL     1       5.386   4.196  16.438  0.00  0.00    +0.000 C 
BRANCH  14  15
ATOM     15  P   UNL     1       6.632   4.867  15.277  0.00  0.00    +0.000 P 
ATOM     16  O   UNL     1       7.785   4.479  16.208  0.00  0.00    +0.000 OA
BRANCH  15  17
ATOM     17  O   UNL     1       6.479   3.574  14.288  0.00  0.00    +0.000 OA
ATOM     18  H   UNL     1       5.824   2.952  14.657  0.00  0.00    +0.000 HD
ENDBRANCH  15  17
BRANCH  15  19
ATOM     19  O   UNL     1       7.808   5.503  14.180  0.00  0.00    +0.000 OA
ATOM     20  H   UNL     1       8.573   5.763  14.736  0.00  0.00    +0.000 HD
ENDBRANCH  15  19
ENDBRANCH  14  15
ENDBRANCH  13  14
ENDBRANCH   3   5
BRANCH   2  21
ATOM     21  C   UNL     1       1.068  10.290  19.542  0.00  0.00    +0.000 A 
ATOM     22  C   UNL     1       0.292  10.437  20.689  0.00  0.00    +0.000 A 
ATOM     23  C   UNL     1       0.117  11.711  21.237  0.00  0.00    +0.000 A 
ATOM     24  C   UNL     1       0.707  12.836  20.640  0.00  0.00    +0.000 A 
ATOM     25  C   UNL     1       1.503  12.724  19.487  0.00  0.00    +0.000 A 
ATOM     26  C   UNL     1       1.674  11.428  18.964  0.00  0.00    +0.000 A 
BRANCH  25  27
ATOM     27  C   UNL     1       2.151  13.907  18.860  0.00  0.00    +0.000 A 
ATOM     28  C   UNL     1       1.526  15.169  18.835  0.00  0.00    +0.000 A 
ATOM     29  C   UNL     1       2.143  16.279  18.246  0.00  0.00    +0.000 A 
ATOM     30  C   UNL     1       3.405  16.161  17.673  0.00  0.00    +0.000 A 
ATOM     31  C   UNL     1       4.043  14.929  17.686  0.00  0.00    +0.000 A 
ATOM     32  C   UNL     1       3.425  13.817  18.266  0.00  0.00    +0.000 A 
ENDBRANCH  25  27
ENDBRANCH   2  21
TORSDOF 7
ENDMDL
MODEL 7
REMARK VINA RESULT:      -7.7      4.907      9.917
REMARK  Name = 
REMARK  7 active torsions:
REMARK  status: ('A' for Active; 'I' for Inactive)
REMARK    1  A    between atoms: C_2  and  C_18
REMARK    2  A    between atoms: N_3  and  C_4
REMARK    3  A    between atoms: N_12  and  C_13
REMARK    4  A    between atoms: C_13  and  P_14
REMARK    5  A    between atoms: P_14  and  O_16
REMARK    6  A    between atoms: P_14  and  O_17
REMARK    7  A    between atoms: C_22  and  C_23
REMARK                            x       y       z     vdW  Elec       q    Type
REMARK                         _______ _______ _______ _____ _____    ______ ____
ROOT
ATOM      1  O   UNL     1       0.787   9.216  20.744  0.00  0.00    +0.000 OA
ATOM      2  C   UNL     1       0.961   9.281  19.531  0.00  0.00    +0.000 C 
ATOM      3  N   UNL     1       0.336  10.171  18.668  0.00  0.00    +0.000 N 
ATOM      4  H   UNL     1       0.386  10.043  17.666  0.00  0.00    +0.000 HD
ENDROOT
BRANCH   3   5
ATOM      5  C   UNL     1      -0.560  11.163  19.123  0.00  0.00    +0.000 A 
ATOM      6  N   UNL     1      -0.150  12.141  19.971  0.00  0.00    +0.000 NA
ATOM      7  C   UNL     1      -1.034  13.047  20.426  0.00  0.00    +0.000 A 
ATOM      8  N   UNL     1      -2.349  13.139  20.140  0.00  0.00    +0.000 NA
ATOM      9  C   UNL     1      -2.721  12.160  19.301  0.00  0.00    +0.000 A 
ATOM     10  C   UNL     1      -1.916  11.170  18.741  0.00  0.00    +0.000 A 
ATOM     11  N   UNL     1      -2.673  10.360  17.915  0.00  0.00    +0.000 NA
ATOM     12  C   UNL     1      -3.904  10.836  17.999  0.00  0.00    +0.000 A 
ATOM     13  N   UNL     1      -3.987  11.912  18.845  0.00  0.00    +0.000 N 
BRANCH  13  14
ATOM     14  C   UNL     1      -5.205  12.596  19.259  0.00  0.00    +0.000 C 
BRANCH  14  15
ATOM     15  P   UNL     1      -6.495  11.335  19.568  0.00  0.00    +0.000 P 
ATOM     16  O   UNL     1      -6.403  11.538  21.085  0.00  0.00    +0.000 OA
BRANCH  15  17
ATOM     17  O   UNL     1      -7.681  12.364  19.110  0.00  0.00    +0.000 OA
ATOM     18  H   UNL     1      -7.918  12.946  19.856  0.00  0.00    +0.000 HD
ENDBRANCH  15  17
BRANCH  15  19
ATOM     19  O   UNL     1      -7.713  10.142  19.860  0.00  0.00    +0.000 OA
ATOM     20  H   UNL     1      -8.560  10.634  19.892  0.00  0.00    +0.000 HD
ENDBRANCH  15  19
ENDBRANCH  14  15
ENDBRANCH  13  14
ENDBRANCH   3   5
BRANCH   2  21
ATOM     21  C   UNL     1       1.883   8.267  18.941  0.00  0.00    +0.000 A 
ATOM     22  C   UNL     1       2.710   8.537  17.852  0.00  0.00    +0.000 A 
ATOM     23  C   UNL     1       3.618   7.564  17.426  0.00  0.00    +0.000 A 
ATOM     24  C   UNL     1       3.698   6.324  18.079  0.00  0.00    +0.000 A 
ATOM     25  C   UNL     1       2.887   6.021  19.185  0.00  0.00    +0.000 A 
ATOM     26  C   UNL     1       1.990   7.024  19.601  0.00  0.00    +0.000 A 
BRANCH  25  27
ATOM     27  C   UNL     1       2.980   4.718  19.897  0.00  0.00    +0.000 A 
ATOM     28  C   UNL     1       2.115   4.389  20.958  0.00  0.00    +0.000 A 
ATOM     29  C   UNL     1       2.206   3.158  21.621  0.00  0.00    +0.000 A 
ATOM     30  C   UNL     1       3.159   2.221  21.236  0.00  0.00    +0.000 A 
ATOM     31  C   UNL     1       4.022   2.520  20.193  0.00  0.00    +0.000 A 
ATOM     32  C   UNL     1       3.939   3.751  19.535  0.00  0.00    +0.000 A 
ENDBRANCH  25  27
ENDBRANCH   2  21
TORSDOF 7
ENDMDL
MODEL 8
REMARK VINA RESULT:      -7.7      2.347      3.057
REMARK  Name = 
REMARK  7 active torsions:
REMARK  status: ('A' for Active; 'I' for Inactive)
REMARK    1  A    between atoms: C_2  and  C_18
REMARK    2  A    between atoms: N_3  and  C_4
REMARK    3  A    between atoms: N_12  and  C_13
REMARK    4  A    between atoms: C_13  and  P_14
REMARK    5  A    between atoms: P_14  and  O_16
REMARK    6  A    between atoms: P_14  and  O_17
REMARK    7  A    between atoms: C_22  and  C_23
REMARK                            x       y       z     vdW  Elec       q    Type
REMARK                         _______ _______ _______ _____ _____    ______ ____
ROOT
ATOM      1  O   UNL     1       1.037   8.915  17.526  0.00  0.00    +0.000 OA
ATOM      2  C   UNL     1       1.419   9.238  18.646  0.00  0.00    +0.000 C 
ATOM      3  N   UNL     1       2.071   8.412  19.551  0.00  0.00    +0.000 N 
ATOM      4  H   UNL     1       2.187   8.691  20.517  0.00  0.00    +0.000 HD
ENDROOT
BRANCH   3   5
ATOM      5  C   UNL     1       2.421   7.080  19.243  0.00  0.00    +0.000 A 
ATOM      6  N   UNL     1       1.901   6.040  19.944  0.00  0.00    +0.000 NA
ATOM      7  C   UNL     1       2.285   4.782  19.660  0.00  0.00    +0.000 A 
ATOM      8  N   UNL     1       3.160   4.375  18.718  0.00  0.00    +0.000 NA
ATOM      9  C   UNL     1       3.654   5.425  18.045  0.00  0.00    +0.000 A 
ATOM     10  C   UNL     1       3.336   6.771  18.218  0.00  0.00    +0.000 A 
ATOM     11  N   UNL     1       4.048   7.541  17.318  0.00  0.00    +0.000 NA
ATOM     12  C   UNL     1       4.792   6.683  16.641  0.00  0.00    +0.000 A 
ATOM     13  N   UNL     1       4.605   5.391  17.062  0.00  0.00    +0.000 N 
BRANCH  13  14
ATOM     14  C   UNL     1       5.349   4.219  16.618  0.00  0.00    +0.000 C 
BRANCH  14  15
ATOM     15  P   UNL     1       6.612   4.765  15.412  0.00  0.00    +0.000 P 
ATOM     16  O   UNL     1       7.756   4.399  16.364  0.00  0.00    +0.000 OA
BRANCH  15  17
ATOM     17  O   UNL     1       6.408   3.414  14.512  0.00  0.00    +0.000 OA
ATOM     18  H   UNL     1       5.787   3.596  13.782  0.00  0.00    +0.000 HD
ENDBRANCH  15  17
BRANCH  15  19
ATOM     19  O   UNL     1       7.806   5.282  14.272  0.00  0.00    +0.000 OA
ATOM     20  H   UNL     1       8.522   4.614  14.319  0.00  0.00    +0.000 HD
ENDBRANCH  15  19
ENDBRANCH  14  15
ENDBRANCH  13  14
ENDBRANCH   3   5
BRANCH   2  21
ATOM     21  C   UNL     1       1.090  10.628  19.079  0.00  0.00    +0.000 A 
ATOM     22  C   UNL     1       1.752  11.752  18.589  0.00  0.00    +0.000 A 
ATOM     23  C   UNL     1       1.313  13.023  18.969  0.00  0.00    +0.000 A 
ATOM     24  C   UNL     1       0.223  13.174  19.841  0.00  0.00    +0.000 A 
ATOM     25  C   UNL     1      -0.473  12.064  20.348  0.00  0.00    +0.000 A 
ATOM     26  C   UNL     1      -0.018  10.796  19.939  0.00  0.00    +0.000 A 
BRANCH  25  27
ATOM     27  C   UNL     1      -1.643  12.215  21.255  0.00  0.00    +0.000 A 
ATOM     28  C   UNL     1      -1.593  11.811  22.602  0.00  0.00    +0.000 A 
ATOM     29  C   UNL     1      -2.697  11.960  23.452  0.00  0.00    +0.000 A 
ATOM     30  C   UNL     1      -3.877  12.523  22.978  0.00  0.00    +0.000 A 
ATOM     31  C   UNL     1      -3.951  12.931  21.655  0.00  0.00    +0.000 A 
ATOM     32  C   UNL     1      -2.854  12.776  20.803  0.00  0.00    +0.000 A 
ENDBRANCH  25  27
ENDBRANCH   2  21
TORSDOF 7
ENDMDL
MODEL 9
REMARK VINA RESULT:      -7.7      4.895      9.626
REMARK  Name = 
REMARK  7 active torsions:
REMARK  status: ('A' for Active; 'I' for Inactive)
REMARK    1  A    between atoms: C_2  and  C_18
REMARK    2  A    between atoms: N_3  and  C_4
REMARK    3  A    between atoms: N_12  and  C_13
REMARK    4  A    between atoms: C_13  and  P_14
REMARK    5  A    between atoms: P_14  and  O_16
REMARK    6  A    between atoms: P_14  and  O_17
REMARK    7  A    between atoms: C_22  and  C_23
REMARK                            x       y       z     vdW  Elec       q    Type
REMARK                         _______ _______ _______ _____ _____    ______ ____
ROOT
ATOM      1  O   UNL     1       1.165   8.900  20.049  0.00  0.00    +0.000 OA
ATOM      2  C   UNL     1       1.277   8.930  18.827  0.00  0.00    +0.000 C 
ATOM      3  N   UNL     1       0.547   9.736  17.964  0.00  0.00    +0.000 N 
ATOM      4  H   UNL     1       0.561   9.572  16.966  0.00  0.00    +0.000 HD
ENDROOT
BRANCH   3   5
ATOM      5  C   UNL     1      -0.398  10.678  18.426  0.00  0.00    +0.000 A 
ATOM      6  N   UNL     1      -0.097  11.535  19.436  0.00  0.00    +0.000 NA
ATOM      7  C   UNL     1      -1.031  12.391  19.888  0.00  0.00    +0.000 A 
ATOM      8  N   UNL     1      -2.300  12.539  19.455  0.00  0.00    +0.000 NA
ATOM      9  C   UNL     1      -2.564  11.679  18.459  0.00  0.00    +0.000 A 
ATOM     10  C   UNL     1      -1.695  10.755  17.882  0.00  0.00    +0.000 A 
ATOM     11  N   UNL     1      -2.342  10.068  16.872  0.00  0.00    +0.000 NA
ATOM     12  C   UNL     1      -3.574  10.549  16.862  0.00  0.00    +0.000 A 
ATOM     13  N   UNL     1      -3.763  11.511  17.821  0.00  0.00    +0.000 N 
BRANCH  13  14
ATOM     14  C   UNL     1      -5.023  12.158  18.164  0.00  0.00    +0.000 C 
BRANCH  14  15
ATOM     15  P   UNL     1      -6.218  10.861  18.652  0.00  0.00    +0.000 P 
ATOM     16  O   UNL     1      -6.157  11.285  20.124  0.00  0.00    +0.000 OA
BRANCH  15  17
ATOM     17  O   UNL     1      -7.473  11.723  18.052  0.00  0.00    +0.000 OA
ATOM     18  H   UNL     1      -7.145  12.370  17.400  0.00  0.00    +0.000 HD
ENDBRANCH  15  17
BRANCH  15  19
ATOM     19  O   UNL     1      -7.348   9.635  19.113  0.00  0.00    +0.000 OA
ATOM     20  H   UNL     1      -6.952   8.788  18.818  0.00  0.00    +0.000 HD
ENDBRANCH  15  19
ENDBRANCH  14  15
ENDBRANCH  13  14
ENDBRANCH   3   5
BRANCH   2  21
ATOM     21  C   UNL     1       2.244   7.963  18.230  0.00  0.00    +0.000 A 
ATOM     22  C   UNL     1       3.405   8.362  17.570  0.00  0.00    +0.000 A 
ATOM     23  C   UNL     1       4.309   7.391  17.131  0.00  0.00    +0.000 A 
ATOM     24  C   UNL     1       4.054   6.026  17.341  0.00  0.00    +0.000 A 
ATOM     25  C   UNL     1       2.898   5.589  18.010  0.00  0.00    +0.000 A 
ATOM     26  C   UNL     1       2.011   6.588  18.454  0.00  0.00    +0.000 A 
BRANCH  25  27
ATOM     27  C   UNL     1       2.630   4.146  18.258  0.00  0.00    +0.000 A 
ATOM     28  C   UNL     1       1.388   3.696  18.745  0.00  0.00    +0.000 A 
ATOM     29  C   UNL     1       1.141   2.336  18.972  0.00  0.00    +0.000 A 
ATOM     30  C   UNL     1       2.127   1.389  18.710  0.00  0.00    +0.000 A 
ATOM     31  C   UNL     1       3.358   1.807  18.228  0.00  0.00    +0.000 A 
ATOM     32  C   UNL     1       3.610   3.164  18.008  0.00  0.00    +0.000 A 
ENDBRANCH  25  27
ENDBRANCH   2  21
TORSDOF 7
ENDMDL
