MODEL 1
REMARK VINA RESULT:      -7.8      0.000      0.000
REMARK  Name = 
REMARK  6 active torsions:
REMARK  status: ('A' for Active; 'I' for Inactive)
REMARK    1  A    between atoms: C_2  and  C_3
REMARK    2  A    between atoms: C_3  and  C_4
REMARK    3  A    between atoms: C_9  and  C_10
REMARK    4  A    between atoms: C_10  and  C_11
REMARK    5  A    between atoms: C_22  and  C_23
REMARK    6  A    between atoms: C_23  and  C_24
REMARK                            x       y       z     vdW  Elec       q    Type
REMARK                         _______ _______ _______ _____ _____    ______ ____
ROOT
ATOM      1  C   UNL     1       1.617   9.502  19.752  0.00  0.00    +0.000 C 
ENDROOT
BRANCH   1   3
ATOM      2  O   UNL     1       0.673   8.099  21.421  0.00  0.00    +0.000 OA
ATOM      3  C   UNL     1       1.468   8.179  20.477  0.00  0.00    +0.000 C 
ATOM      4  N   UNL     1       2.147   7.072  19.989  0.00  0.00    +0.000 N 
ATOM      5  C   UNL     1       3.146   7.083  18.919  0.00  0.00    +0.000 C 
ATOM      6  C   UNL     1       2.724   6.129  17.810  0.00  0.00    +0.000 C 
ATOM      7  C   UNL     1       2.502   4.700  18.335  0.00  0.00    +0.000 C 
ATOM      8  C   UNL     1       1.503   4.752  19.513  0.00  0.00    +0.000 C 
ATOM      9  C   UNL     1       1.912   5.759  20.592  0.00  0.00    +0.000 C 
BRANCH   7  10
ATOM     10  C   UNL     1       3.803   3.984  18.763  0.00  0.00    +0.000 C 
BRANCH  10  11
ATOM     11  C   UNL     1       4.975   4.132  17.821  0.00  0.00    +0.000 A 
ATOM     12  C   UNL     1       4.827   3.821  16.461  0.00  0.00    +0.000 A 
ATOM     13  C   UNL     1       5.885   4.007  15.568  0.00  0.00    +0.000 A 
ATOM     14  C   UNL     1       7.100   4.513  16.026  0.00  0.00    +0.000 A 
ATOM     15  C   UNL     1       7.261   4.823  17.374  0.00  0.00    +0.000 A 
ATOM     16  C   UNL     1       6.204   4.634  18.267  0.00  0.00    +0.000 A 
ENDBRANCH  10  11
ENDBRANCH   7  10
ENDBRANCH   1   3
BRANCH   1  17
ATOM     17  C   UNL     1       0.783   9.640  18.505  0.00  0.00    +0.000 C 
ATOM     18  O   UNL     1       1.242   9.362  17.392  0.00  0.00    +0.000 OA
ATOM     19  N   UNL     1      -0.550  10.000  18.669  0.00  0.00    +0.000 N 
ATOM     20  C   UNL     1      -1.445   9.876  17.522  0.00  0.00    +0.000 C 
ATOM     21  C   UNL     1      -1.916  11.254  17.080  0.00  0.00    +0.000 C 
ATOM     22  C   UNL     1      -2.658  11.972  18.221  0.00  0.00    +0.000 C 
ATOM     23  C   UNL     1      -1.709  12.049  19.442  0.00  0.00    +0.000 C 
ATOM     24  C   UNL     1      -1.111  10.687  19.836  0.00  0.00    +0.000 C 
BRANCH  22  25
ATOM     25  C   UNL     1      -4.003  11.305  18.607  0.00  0.00    +0.000 C 
BRANCH  25  26
ATOM     26  C   UNL     1      -5.220  12.204  18.580  0.00  0.00    +0.000 A 
ATOM     27  C   UNL     1      -6.146  12.108  17.529  0.00  0.00    +0.000 A 
ATOM     28  C   UNL     1      -7.299  12.898  17.516  0.00  0.00    +0.000 A 
ATOM     29  C   UNL     1      -7.542  13.791  18.555  0.00  0.00    +0.000 A 
ATOM     30  C   UNL     1      -6.632  13.896  19.606  0.00  0.00    +0.000 A 
ATOM     31  C   UNL     1      -5.478  13.107  19.619  0.00  0.00    +0.000 A 
ENDBRANCH  25  26
ENDBRANCH  22  25
ENDBRANCH   1  17
TORSDOF 6
ENDMDL
MODEL 2
REMARK VINA RESULT:      -7.6      3.069     10.395
REMARK  Name = 
REMARK  6 active torsions:
REMARK  status: ('A' for Active; 'I' for Inactive)
REMARK    1  A    between atoms: C_2  and  C_3
REMARK    2  A    between atoms: C_3  and  C_4
REMARK    3  A    between atoms: C_9  and  C_10
REMARK    4  A    between atoms: C_10  and  C_11
REMARK    5  A    between atoms: C_22  and  C_23
REMARK    6  A    between atoms: C_23  and  C_24
REMARK                            x       y       z     vdW  Elec       q    Type
REMARK                         _______ _______ _______ _____ _____    ______ ____
ROOT
ATOM      1  C   UNL     1       3.964   3.614  19.285  0.00  0.00    +0.000 C 
ENDROOT
BRANCH   1   3
ATOM      2  O   UNL     1       2.805   4.188  21.277  0.00  0.00    +0.000 OA
ATOM      3  C   UNL     1       2.985   4.452  20.082  0.00  0.00    +0.000 C 
ATOM      4  N   UNL     1       2.404   5.556  19.475  0.00  0.00    +0.000 N 
ATOM      5  C   UNL     1       2.515   5.912  18.059  0.00  0.00    +0.000 C 
ATOM      6  C   UNL     1       3.078   7.321  17.924  0.00  0.00    +0.000 C 
ATOM      7  C   UNL     1       2.227   8.355  18.683  0.00  0.00    +0.000 C 
ATOM      8  C   UNL     1       2.073   7.893  20.150  0.00  0.00    +0.000 C 
ATOM      9  C   UNL     1       1.562   6.454  20.267  0.00  0.00    +0.000 C 
BRANCH   7  10
ATOM     10  C   UNL     1       0.840   8.606  18.049  0.00  0.00    +0.000 C 
BRANCH  10  11
ATOM     11  C   UNL     1       0.268   9.990  18.249  0.00  0.00    +0.000 A 
ATOM     12  C   UNL     1       1.093  11.037  18.685  0.00  0.00    +0.000 A 
ATOM     13  C   UNL     1       0.591  12.332  18.820  0.00  0.00    +0.000 A 
ATOM     14  C   UNL     1      -0.743  12.596  18.516  0.00  0.00    +0.000 A 
ATOM     15  C   UNL     1      -1.575  11.565  18.085  0.00  0.00    +0.000 A 
ATOM     16  C   UNL     1      -1.073  10.269  17.953  0.00  0.00    +0.000 A 
ENDBRANCH  10  11
ENDBRANCH   7  10
ENDBRANCH   1   3
BRANCH   1  17
ATOM     17  C   UNL     1       5.230   4.327  18.885  0.00  0.00    +0.000 C 
ATOM     18  O   UNL     1       5.891   4.970  19.707  0.00  0.00    +0.000 OA
ATOM     19  N   UNL     1       5.673   4.150  17.578  0.00  0.00    +0.000 N 
ATOM     20  C   UNL     1       7.022   4.596  17.240  0.00  0.00    +0.000 C 
ATOM     21  C   UNL     1       6.955   5.754  16.256  0.00  0.00    +0.000 C 
ATOM     22  C   UNL     1       6.225   5.337  14.967  0.00  0.00    +0.000 C 
ATOM     23  C   UNL     1       4.817   4.824  15.353  0.00  0.00    +0.000 C 
ATOM     24  C   UNL     1       4.840   3.739  16.444  0.00  0.00    +0.000 C 
BRANCH  22  25
ATOM     25  C   UNL     1       6.990   4.279  14.131  0.00  0.00    +0.000 C 
BRANCH  25  26
ATOM     26  C   UNL     1       6.218   3.647  12.994  0.00  0.00    +0.000 A 
ATOM     27  C   UNL     1       6.782   2.593  12.258  0.00  0.00    +0.000 A 
ATOM     28  C   UNL     1       6.061   1.968  11.236  0.00  0.00    +0.000 A 
ATOM     29  C   UNL     1       4.768   2.387  10.940  0.00  0.00    +0.000 A 
ATOM     30  C   UNL     1       4.195   3.432  11.664  0.00  0.00    +0.000 A 
ATOM     31  C   UNL     1       4.915   4.058  12.685  0.00  0.00    +0.000 A 
ENDBRANCH  25  26
ENDBRANCH  22  25
ENDBRANCH   1  17
TORSDOF 6
ENDMDL
MODEL 3
REMARK VINA RESULT:      -7.6      3.165     11.107
REMARK  Name = 
REMARK  6 active torsions:
REMARK  status: ('A' for Active; 'I' for Inactive)
REMARK    1  A    between atoms: C_2  and  C_3
REMARK    2  A    between atoms: C_3  and  C_4
REMARK    3  A    between atoms: C_9  and  C_10
REMARK    4  A    between atoms: C_10  and  C_11
REMARK    5  A    between atoms: C_22  and  C_23
REMARK    6  A    between atoms: C_23  and  C_24
REMARK                            x       y       z     vdW  Elec       q    Type
REMARK                         _______ _______ _______ _____ _____    ______ ____
ROOT
ATOM      1  C   UNL     1       1.839   7.233  18.349  0.00  0.00    +0.000 C 
ENDROOT
BRANCH   1   3
ATOM      2  O   UNL     1       2.426   9.195  17.146  0.00  0.00    +0.000 OA
ATOM      3  C   UNL     1       1.940   8.736  18.187  0.00  0.00    +0.000 C 
ATOM      4  N   UNL     1       1.385   9.551  19.163  0.00  0.00    +0.000 N 
ATOM      5  C   UNL     1       0.842   9.101  20.446  0.00  0.00    +0.000 C 
ATOM      6  C   UNL     1      -0.603   9.560  20.584  0.00  0.00    +0.000 C 
ATOM      7  C   UNL     1      -0.737  11.086  20.438  0.00  0.00    +0.000 C 
ATOM      8  C   UNL     1      -0.080  11.519  19.108  0.00  0.00    +0.000 C 
ATOM      9  C   UNL     1       1.354  11.000  18.960  0.00  0.00    +0.000 C 
BRANCH   7  10
ATOM     10  C   UNL     1      -0.137  11.880  21.620  0.00  0.00    +0.000 C 
BRANCH  10  11
ATOM     11  C   UNL     1      -1.135  12.531  22.549  0.00  0.00    +0.000 A 
ATOM     12  C   UNL     1      -0.876  13.802  23.082  0.00  0.00    +0.000 A 
ATOM     13  C   UNL     1      -1.815  14.439  23.897  0.00  0.00    +0.000 A 
ATOM     14  C   UNL     1      -3.027  13.813  24.181  0.00  0.00    +0.000 A 
ATOM     15  C   UNL     1      -3.296  12.550  23.660  0.00  0.00    +0.000 A 
ATOM     16  C   UNL     1      -2.356  11.911  22.848  0.00  0.00    +0.000 A 
ENDBRANCH  10  11
ENDBRANCH   7  10
ENDBRANCH   1   3
BRANCH   1  17
ATOM     17  C   UNL     1       3.012   6.589  19.041  0.00  0.00    +0.000 C 
ATOM     18  O   UNL     1       3.105   6.582  20.273  0.00  0.00    +0.000 OA
ATOM     19  N   UNL     1       3.934   5.921  18.242  0.00  0.00    +0.000 N 
ATOM     20  C   UNL     1       4.920   5.064  18.893  0.00  0.00    +0.000 C 
ATOM     21  C   UNL     1       6.315   5.641  18.703  0.00  0.00    +0.000 C 
ATOM     22  C   UNL     1       6.661   5.759  17.208  0.00  0.00    +0.000 C 
ATOM     23  C   UNL     1       5.577   6.631  16.529  0.00  0.00    +0.000 C 
ATOM     24  C   UNL     1       4.143   6.149  16.809  0.00  0.00    +0.000 C 
BRANCH  22  25
ATOM     25  C   UNL     1       6.802   4.393  16.491  0.00  0.00    +0.000 C 
BRANCH  25  26
ATOM     26  C   UNL     1       6.834   4.437  14.979  0.00  0.00    +0.000 A 
ATOM     27  C   UNL     1       7.803   5.207  14.315  0.00  0.00    +0.000 A 
ATOM     28  C   UNL     1       7.874   5.219  12.920  0.00  0.00    +0.000 A 
ATOM     29  C   UNL     1       6.981   4.461  12.170  0.00  0.00    +0.000 A 
ATOM     30  C   UNL     1       6.014   3.691  12.816  0.00  0.00    +0.000 A 
ATOM     31  C   UNL     1       5.941   3.678  14.212  0.00  0.00    +0.000 A 
ENDBRANCH  25  26
ENDBRANCH  22  25
ENDBRANCH   1  17
TORSDOF 6
ENDMDL
MODEL 4
REMARK VINA RESULT:      -7.5      3.013      4.325
REMARK  Name = 
REMARK  6 active torsions:
REMARK  status: ('A' for Active; 'I' for Inactive)
REMARK    1  A    between atoms: C_2  and  C_3
REMARK    2  A    between atoms: C_3  and  C_4
REMARK    3  A    between atoms: C_9  and  C_10
REMARK    4  A    between atoms: C_10  and  C_11
REMARK    5  A    between atoms: C_22  and  C_23
REMARK    6  A    between atoms: C_23  and  C_24
REMARK                            x       y       z     vdW  Elec       q    Type
REMARK                         _______ _______ _______ _____ _____    ______ ____
ROOT
ATOM      1  C   UNL     1       1.337   9.105  19.969  0.00  0.00    +0.000 C 
ENDROOT
BRANCH   1   3
ATOM      2  O   UNL     1       0.773   7.626  21.740  0.00  0.00    +0.000 OA
ATOM      3  C   UNL     1       1.415   7.777  20.694  0.00  0.00    +0.000 C 
ATOM      4  N   UNL     1       2.118   6.736  20.104  0.00  0.00    +0.000 N 
ATOM      5  C   UNL     1       2.949   6.837  18.903  0.00  0.00    +0.000 C 
ATOM      6  C   UNL     1       2.464   5.844  17.855  0.00  0.00    +0.000 C 
ATOM      7  C   UNL     1       2.452   4.402  18.392  0.00  0.00    +0.000 C 
ATOM      8  C   UNL     1       1.630   4.365  19.700  0.00  0.00    +0.000 C 
ATOM      9  C   UNL     1       2.094   5.409  20.720  0.00  0.00    +0.000 C 
BRANCH   7  10
ATOM     10  C   UNL     1       3.862   3.812  18.624  0.00  0.00    +0.000 C 
BRANCH  10  11
ATOM     11  C   UNL     1       4.907   4.188  17.600  0.00  0.00    +0.000 A 
ATOM     12  C   UNL     1       6.087   4.831  18.002  0.00  0.00    +0.000 A 
ATOM     13  C   UNL     1       7.086   5.133  17.074  0.00  0.00    +0.000 A 
ATOM     14  C   UNL     1       6.918   4.790  15.734  0.00  0.00    +0.000 A 
ATOM     15  C   UNL     1       5.750   4.153  15.321  0.00  0.00    +0.000 A 
ATOM     16  C   UNL     1       4.749   3.854  16.248  0.00  0.00    +0.000 A 
ENDBRANCH  10  11
ENDBRANCH   7  10
ENDBRANCH   1   3
BRANCH   1  17
ATOM     17  C   UNL     1       0.245  10.026  20.449  0.00  0.00    +0.000 C 
ATOM     18  O   UNL     1      -0.719   9.598  21.093  0.00  0.00    +0.000 OA
ATOM     19  N   UNL     1       0.416  11.387  20.221  0.00  0.00    +0.000 N 
ATOM     20  C   UNL     1      -0.476  12.320  20.905  0.00  0.00    +0.000 C 
ATOM     21  C   UNL     1      -1.358  13.033  19.892  0.00  0.00    +0.000 C 
ATOM     22  C   UNL     1      -0.506  13.809  18.872  0.00  0.00    +0.000 C 
ATOM     23  C   UNL     1       0.464  12.811  18.194  0.00  0.00    +0.000 C 
ATOM     24  C   UNL     1       1.282  11.978  19.197  0.00  0.00    +0.000 C 
BRANCH  22  25
ATOM     25  C   UNL     1       0.268  15.003  19.488  0.00  0.00    +0.000 C 
BRANCH  25  26
ATOM     26  C   UNL     1       0.552  16.160  18.556  0.00  0.00    +0.000 A 
ATOM     27  C   UNL     1      -0.499  16.966  18.090  0.00  0.00    +0.000 A 
ATOM     28  C   UNL     1      -0.247  18.067  17.267  0.00  0.00    +0.000 A 
ATOM     29  C   UNL     1       1.059  18.379  16.902  0.00  0.00    +0.000 A 
ATOM     30  C   UNL     1       2.113  17.589  17.358  0.00  0.00    +0.000 A 
ATOM     31  C   UNL     1       1.862  16.486  18.181  0.00  0.00    +0.000 A 
ENDBRANCH  25  26
ENDBRANCH  22  25
ENDBRANCH   1  17
TORSDOF 6
ENDMDL
MODEL 5
REMARK VINA RESULT:      -7.5      2.706      4.040
REMARK  Name = 
REMARK  6 active torsions:
REMARK  status: ('A' for Active; 'I' for Inactive)
REMARK    1  A    between atoms: C_2  and  C_3
REMARK    2  A    between atoms: C_3  and  C_4
REMARK    3  A    between atoms: C_9  and  C_10
REMARK    4  A    between atoms: C_10  and  C_11
REMARK    5  A    between atoms: C_22  and  C_23
REMARK    6  A    between atoms: C_23  and  C_24
REMARK                            x       y       z     vdW  Elec       q    Type
REMARK                         _______ _______ _______ _____ _____    ______ ____
ROOT
ATOM      1  C   UNL     1       0.905  11.148  21.009  0.00  0.00    +0.000 C 
ENDROOT
BRANCH   1   3
ATOM      2  O   UNL     1       1.326  11.726  18.744  0.00  0.00    +0.000 OA
ATOM      3  C   UNL     1       1.135  10.808  19.551  0.00  0.00    +0.000 C 
ATOM      4  N   UNL     1       1.232   9.473  19.184  0.00  0.00    +0.000 N 
ATOM      5  C   UNL     1       0.967   8.325  20.054  0.00  0.00    +0.000 C 
ATOM      6  C   UNL     1       2.190   7.420  20.100  0.00  0.00    +0.000 C 
ATOM      7  C   UNL     1       2.615   6.956  18.696  0.00  0.00    +0.000 C 
ATOM      8  C   UNL     1       2.804   8.198  17.796  0.00  0.00    +0.000 C 
ATOM      9  C   UNL     1       1.587   9.128  17.807  0.00  0.00    +0.000 C 
BRANCH   7  10
ATOM     10  C   UNL     1       1.626   5.963  18.043  0.00  0.00    +0.000 C 
BRANCH  10  11
ATOM     11  C   UNL     1       1.801   4.513  18.430  0.00  0.00    +0.000 A 
ATOM     12  C   UNL     1       1.356   4.060  19.680  0.00  0.00    +0.000 A 
ATOM     13  C   UNL     1       1.460   2.712  20.029  0.00  0.00    +0.000 A 
ATOM     14  C   UNL     1       2.004   1.800  19.126  0.00  0.00    +0.000 A 
ATOM     15  C   UNL     1       2.452   2.237  17.882  0.00  0.00    +0.000 A 
ATOM     16  C   UNL     1       2.352   3.586  17.535  0.00  0.00    +0.000 A 
ENDBRANCH  10  11
ENDBRANCH   7  10
ENDBRANCH   1   3
BRANCH   1  17
ATOM     17  C   UNL     1       0.500  12.575  21.272  0.00  0.00    +0.000 C 
ATOM     18  O   UNL     1       1.341  13.445  21.521  0.00  0.00    +0.000 OA
ATOM     19  N   UNL     1      -0.847  12.891  21.128  0.00  0.00    +0.000 N 
ATOM     20  C   UNL     1      -1.228  14.300  21.106  0.00  0.00    +0.000 C 
ATOM     21  C   UNL     1      -2.062  14.632  22.334  0.00  0.00    +0.000 C 
ATOM     22  C   UNL     1      -3.334  13.768  22.383  0.00  0.00    +0.000 C 
ATOM     23  C   UNL     1      -2.910  12.280  22.357  0.00  0.00    +0.000 C 
ATOM     24  C   UNL     1      -1.958  11.937  21.197  0.00  0.00    +0.000 C 
BRANCH  22  25
ATOM     25  C   UNL     1      -4.342  14.077  21.245  0.00  0.00    +0.000 C 
BRANCH  25  26
ATOM     26  C   UNL     1      -5.511  13.125  21.118  0.00  0.00    +0.000 A 
ATOM     27  C   UNL     1      -5.669  12.351  19.957  0.00  0.00    +0.000 A 
ATOM     28  C   UNL     1      -6.717  11.434  19.846  0.00  0.00    +0.000 A 
ATOM     29  C   UNL     1      -7.618  11.275  20.895  0.00  0.00    +0.000 A 
ATOM     30  C   UNL     1      -7.473  12.036  22.054  0.00  0.00    +0.000 A 
ATOM     31  C   UNL     1      -6.425  12.955  22.166  0.00  0.00    +0.000 A 
ENDBRANCH  25  26
ENDBRANCH  22  25
ENDBRANCH   1  17
TORSDOF 6
ENDMDL
MODEL 6
REMARK VINA RESULT:      -7.4      0.663      1.431
REMARK  Name = 
REMARK  6 active torsions:
REMARK  status: ('A' for Active; 'I' for Inactive)
REMARK    1  A    between atoms: C_2  and  C_3
REMARK    2  A    between atoms: C_3  and  C_4
REMARK    3  A    between atoms: C_9  and  C_10
REMARK    4  A    between atoms: C_10  and  C_11
REMARK    5  A    between atoms: C_22  and  C_23
REMARK    6  A    between atoms: C_23  and  C_24
REMARK                            x       y       z     vdW  Elec       q    Type
REMARK                         _______ _______ _______ _____ _____    ______ ____
ROOT
ATOM      1  C   UNL     1       1.567   9.387  19.849  0.00  0.00    +0.000 C 
ENDROOT
BRANCH   1   3
ATOM      2  O   UNL     1       0.683   7.965  21.533  0.00  0.00    +0.000 OA
ATOM      3  C   UNL     1       1.446   8.057  20.563  0.00  0.00    +0.000 C 
ATOM      4  N   UNL     1       2.111   6.957  20.042  0.00  0.00    +0.000 N 
ATOM      5  C   UNL     1       3.073   6.982  18.938  0.00  0.00    +0.000 C 
ATOM      6  C   UNL     1       2.615   6.039  17.834  0.00  0.00    +0.000 C 
ATOM      7  C   UNL     1       2.414   4.603  18.351  0.00  0.00    +0.000 C 
ATOM      8  C   UNL     1       1.456   4.640  19.562  0.00  0.00    +0.000 C 
ATOM      9  C   UNL     1       1.899   5.637  20.638  0.00  0.00    +0.000 C 
BRANCH   7  10
ATOM     10  C   UNL     1       3.731   3.886  18.727  0.00  0.00    +0.000 C 
BRANCH  10  11
ATOM     11  C   UNL     1       4.897   4.125  17.796  0.00  0.00    +0.000 A 
ATOM     12  C   UNL     1       6.102   4.640  18.296  0.00  0.00    +0.000 A 
ATOM     13  C   UNL     1       7.206   4.813  17.459  0.00  0.00    +0.000 A 
ATOM     14  C   UNL     1       7.118   4.467  16.112  0.00  0.00    +0.000 A 
ATOM     15  C   UNL     1       5.926   3.958  15.602  0.00  0.00    +0.000 A 
ATOM     16  C   UNL     1       4.821   3.788  16.438  0.00  0.00    +0.000 A 
ENDBRANCH  10  11
ENDBRANCH   7  10
ENDBRANCH   1   3
BRANCH   1  17
ATOM     17  C   UNL     1       0.478   9.672  18.847  0.00  0.00    +0.000 C 
ATOM     18  O   UNL     1       0.576   9.305  17.672  0.00  0.00    +0.000 OA
ATOM     19  N   UNL     1      -0.681  10.277  19.323  0.00  0.00    +0.000 N 
ATOM     20  C   UNL     1      -1.849  10.316  18.448  0.00  0.00    +0.000 C 
ATOM     21  C   UNL     1      -2.162  11.755  18.065  0.00  0.00    +0.000 C 
ATOM     22  C   UNL     1      -2.442  12.607  19.315  0.00  0.00    +0.000 C 
ATOM     23  C   UNL     1      -1.212  12.512  20.250  0.00  0.00    +0.000 C 
ATOM     24  C   UNL     1      -0.787  11.065  20.555  0.00  0.00    +0.000 C 
BRANCH  22  25
ATOM     25  C   UNL     1      -3.739  12.208  20.064  0.00  0.00    +0.000 C 
BRANCH  25  26
ATOM     26  C   UNL     1      -4.990  12.963  19.673  0.00  0.00    +0.000 A 
ATOM     27  C   UNL     1      -5.356  14.129  20.364  0.00  0.00    +0.000 A 
ATOM     28  C   UNL     1      -6.482  14.863  19.983  0.00  0.00    +0.000 A 
ATOM     29  C   UNL     1      -7.255  14.443  18.905  0.00  0.00    +0.000 A 
ATOM     30  C   UNL     1      -6.903  13.288  18.208  0.00  0.00    +0.000 A 
ATOM     31  C   UNL     1      -5.777  12.552  18.589  0.00  0.00    +0.000 A 
ENDBRANCH  25  26
ENDBRANCH  22  25
ENDBRANCH   1  17
TORSDOF 6
ENDMDL
MODEL 7
REMARK VINA RESULT:      -7.4      3.054      4.192
REMARK  Name = 
REMARK  6 active torsions:
REMARK  status: ('A' for Active; 'I' for Inactive)
REMARK    1  A    between atoms: C_2  and  C_3
REMARK    2  A    between atoms: C_3  and  C_4
REMARK    3  A    between atoms: C_9  and  C_10
REMARK    4  A    between atoms: C_10  and  C_11
REMARK    5  A    between atoms: C_22  and  C_23
REMARK    6  A    between atoms: C_23  and  C_24
REMARK                            x       y       z     vdW  Elec       q    Type
REMARK                         _______ _______ _______ _____ _____    ______ ____
ROOT
ATOM      1  C   UNL     1       1.417   9.203  19.876  0.00  0.00    +0.000 C 
ENDROOT
BRANCH   1   3
ATOM      2  O   UNL     1       0.806   7.758  21.660  0.00  0.00    +0.000 OA
ATOM      3  C   UNL     1       1.467   7.885  20.622  0.00  0.00    +0.000 C 
ATOM      4  N   UNL     1       2.165   6.826  20.059  0.00  0.00    +0.000 N 
ATOM      5  C   UNL     1       3.017   6.898  18.871  0.00  0.00    +0.000 C 
ATOM      6  C   UNL     1       2.535   5.896  17.830  0.00  0.00    +0.000 C 
ATOM      7  C   UNL     1       2.497   4.462  18.389  0.00  0.00    +0.000 C 
ATOM      8  C   UNL     1       1.654   4.455  19.684  0.00  0.00    +0.000 C 
ATOM      9  C   UNL     1       2.114   5.509  20.696  0.00  0.00    +0.000 C 
BRANCH   7  10
ATOM     10  C   UNL     1       3.895   3.858  18.652  0.00  0.00    +0.000 C 
BRANCH  10  11
ATOM     11  C   UNL     1       4.946   4.156  17.608  0.00  0.00    +0.000 A 
ATOM     12  C   UNL     1       4.697   3.871  16.258  0.00  0.00    +0.000 A 
ATOM     13  C   UNL     1       5.636   4.192  15.276  0.00  0.00    +0.000 A 
ATOM     14  C   UNL     1       6.833   4.809  15.635  0.00  0.00    +0.000 A 
ATOM     15  C   UNL     1       7.094   5.096  16.972  0.00  0.00    +0.000 A 
ATOM     16  C   UNL     1       6.156   4.771  17.955  0.00  0.00    +0.000 A 
ENDBRANCH  10  11
ENDBRANCH   7  10
ENDBRANCH   1   3
BRANCH   1  17
ATOM     17  C   UNL     1       0.240  10.080  20.217  0.00  0.00    +0.000 C 
ATOM     18  O   UNL     1      -0.787   9.610  20.717  0.00  0.00    +0.000 OA
ATOM     19  N   UNL     1       0.396  11.450  20.035  0.00  0.00    +0.000 N 
ATOM     20  C   UNL     1      -0.611  12.341  20.606  0.00  0.00    +0.000 C 
ATOM     21  C   UNL     1      -1.370  13.048  19.493  0.00  0.00    +0.000 C 
ATOM     22  C   UNL     1      -0.413  13.869  18.611  0.00  0.00    +0.000 C 
ATOM     23  C   UNL     1       0.672  12.915  18.056  0.00  0.00    +0.000 C 
ATOM     24  C   UNL     1       1.373  12.087  19.148  0.00  0.00    +0.000 C 
BRANCH  22  25
ATOM     25  C   UNL     1       0.231  15.073  19.344  0.00  0.00    +0.000 C 
BRANCH  25  26
ATOM     26  C   UNL     1       0.400  16.334  18.526  0.00  0.00    +0.000 A 
ATOM     27  C   UNL     1       1.663  16.686  18.023  0.00  0.00    +0.000 A 
ATOM     28  C   UNL     1       1.824  17.822  17.225  0.00  0.00    +0.000 A 
ATOM     29  C   UNL     1       0.726  18.620  16.918  0.00  0.00    +0.000 A 
ATOM     30  C   UNL     1      -0.534  18.282  17.409  0.00  0.00    +0.000 A 
ATOM     31  C   UNL     1      -0.697  17.146  18.208  0.00  0.00    +0.000 A 
ENDBRANCH  25  26
ENDBRANCH  22  25
ENDBRANCH   1  17
TORSDOF 6
ENDMDL
MODEL 8
REMARK VINA RESULT:      -7.4      1.356     10.480
REMARK  Name = 
REMARK  6 active torsions:
REMARK  status: ('A' for Active; 'I' for Inactive)
REMARK    1  A    between atoms: C_2  and  C_3
REMARK    2  A    between atoms: C_3  and  C_4
REMARK    3  A    between atoms: C_9  and  C_10
REMARK    4  A    between atoms: C_10  and  C_11
REMARK    5  A    between atoms: C_22  and  C_23
REMARK    6  A    between atoms: C_23  and  C_24
REMARK                            x       y       z     vdW  Elec       q    Type
REMARK                         _______ _______ _______ _____ _____    ______ ____
ROOT
ATOM      1  C   UNL     1       0.955   8.121  21.305  0.00  0.00    +0.000 C 
ENDROOT
BRANCH   1   3
ATOM      2  O   UNL     1       1.759   9.995  22.523  0.00  0.00    +0.000 OA
ATOM      3  C   UNL     1       0.866   9.554  21.789  0.00  0.00    +0.000 C 
ATOM      4  N   UNL     1      -0.156  10.358  21.306  0.00  0.00    +0.000 N 
ATOM      5  C   UNL     1      -1.282   9.912  20.484  0.00  0.00    +0.000 C 
ATOM      6  C   UNL     1      -1.322  10.710  19.188  0.00  0.00    +0.000 C 
ATOM      7  C   UNL     1      -1.404  12.225  19.449  0.00  0.00    +0.000 C 
ATOM      8  C   UNL     1      -0.243  12.632  20.385  0.00  0.00    +0.000 C 
ATOM      9  C   UNL     1      -0.181  11.779  21.656  0.00  0.00    +0.000 C 
BRANCH   7  10
ATOM     10  C   UNL     1      -2.757  12.684  20.038  0.00  0.00    +0.000 C 
BRANCH  10  11
ATOM     11  C   UNL     1      -3.989  12.174  19.327  0.00  0.00    +0.000 A 
ATOM     12  C   UNL     1      -5.224  12.147  19.991  0.00  0.00    +0.000 A 
ATOM     13  C   UNL     1      -6.381  11.731  19.329  0.00  0.00    +0.000 A 
ATOM     14  C   UNL     1      -6.316  11.344  17.992  0.00  0.00    +0.000 A 
ATOM     15  C   UNL     1      -5.095  11.364  17.321  0.00  0.00    +0.000 A 
ATOM     16  C   UNL     1      -3.937  11.776  17.985  0.00  0.00    +0.000 A 
ENDBRANCH  10  11
ENDBRANCH   7  10
ENDBRANCH   1   3
BRANCH   1  17
ATOM     17  C   UNL     1       1.644   7.941  19.977  0.00  0.00    +0.000 C 
ATOM     18  O   UNL     1       1.672   8.850  19.140  0.00  0.00    +0.000 OA
ATOM     19  N   UNL     1       2.328   6.747  19.772  0.00  0.00    +0.000 N 
ATOM     20  C   UNL     1       3.224   6.653  18.624  0.00  0.00    +0.000 C 
ATOM     21  C   UNL     1       2.688   5.634  17.629  0.00  0.00    +0.000 C 
ATOM     22  C   UNL     1       2.557   4.247  18.280  0.00  0.00    +0.000 C 
ATOM     23  C   UNL     1       1.643   4.379  19.522  0.00  0.00    +0.000 C 
ATOM     24  C   UNL     1       2.085   5.491  20.489  0.00  0.00    +0.000 C 
BRANCH  22  25
ATOM     25  C   UNL     1       3.917   3.606  18.659  0.00  0.00    +0.000 C 
BRANCH  25  26
ATOM     26  C   UNL     1       5.077   3.919  17.741  0.00  0.00    +0.000 A 
ATOM     27  C   UNL     1       4.995   3.619  16.371  0.00  0.00    +0.000 A 
ATOM     28  C   UNL     1       6.040   3.946  15.503  0.00  0.00    +0.000 A 
ATOM     29  C   UNL     1       7.178   4.581  15.991  0.00  0.00    +0.000 A 
ATOM     30  C   UNL     1       7.272   4.887  17.347  0.00  0.00    +0.000 A 
ATOM     31  C   UNL     1       6.228   4.559  18.218  0.00  0.00    +0.000 A 
ENDBRANCH  25  26
ENDBRANCH  22  25
ENDBRANCH   1  17
TORSDOF 6
ENDMDL
MODEL 9
REMARK VINA RESULT:      -7.3      2.527      3.433
REMARK  Name = 
REMARK  6 active torsions:
REMARK  status: ('A' for Active; 'I' for Inactive)
REMARK    1  A    between atoms: C_2  and  C_3
REMARK    2  A    between atoms: C_3  and  C_4
REMARK    3  A    between atoms: C_9  and  C_10
REMARK    4  A    between atoms: C_10  and  C_11
REMARK    5  A    between atoms: C_22  and  C_23
REMARK    6  A    between atoms: C_23  and  C_24
REMARK                            x       y       z     vdW  Elec       q    Type
REMARK                         _______ _______ _______ _____ _____    ______ ____
ROOT
ATOM      1  C   UNL     1       0.473   9.902  19.286  0.00  0.00    +0.000 C 
ENDROOT
BRANCH   1   3
ATOM      2  O   UNL     1       0.286   8.796  21.380  0.00  0.00    +0.000 OA
ATOM      3  C   UNL     1       0.868   8.837  20.289  0.00  0.00    +0.000 C 
ATOM      4  N   UNL     1       1.793   7.875  19.911  0.00  0.00    +0.000 N 
ATOM      5  C   UNL     1       2.570   7.874  18.670  0.00  0.00    +0.000 C 
ATOM      6  C   UNL     1       2.326   6.578  17.910  0.00  0.00    +0.000 C 
ATOM      7  C   UNL     1       2.658   5.341  18.762  0.00  0.00    +0.000 C 
ATOM      8  C   UNL     1       1.877   5.428  20.093  0.00  0.00    +0.000 C 
ATOM      9  C   UNL     1       2.087   6.762  20.816  0.00  0.00    +0.000 C 
BRANCH   7  10
ATOM     10  C   UNL     1       4.169   5.160  19.036  0.00  0.00    +0.000 C 
BRANCH  10  11
ATOM     11  C   UNL     1       5.051   5.071  17.812  0.00  0.00    +0.000 A 
ATOM     12  C   UNL     1       6.136   5.947  17.661  0.00  0.00    +0.000 A 
ATOM     13  C   UNL     1       6.992   5.839  16.564  0.00  0.00    +0.000 A 
ATOM     14  C   UNL     1       6.777   4.848  15.608  0.00  0.00    +0.000 A 
ATOM     15  C   UNL     1       5.702   3.973  15.745  0.00  0.00    +0.000 A 
ATOM     16  C   UNL     1       4.843   4.083  16.840  0.00  0.00    +0.000 A 
ENDBRANCH  10  11
ENDBRANCH   7  10
ENDBRANCH   1   3
BRANCH   1  17
ATOM     17  C   UNL     1       0.784  11.315  19.705  0.00  0.00    +0.000 C 
ATOM     18  O   UNL     1       1.853  11.855  19.399  0.00  0.00    +0.000 OA
ATOM     19  N   UNL     1      -0.218  12.017  20.367  0.00  0.00    +0.000 N 
ATOM     20  C   UNL     1      -0.052  13.457  20.542  0.00  0.00    +0.000 C 
ATOM     21  C   UNL     1       0.104  13.787  22.019  0.00  0.00    +0.000 C 
ATOM     22  C   UNL     1      -1.125  13.321  22.818  0.00  0.00    +0.000 C 
ATOM     23  C   UNL     1      -1.310  11.803  22.580  0.00  0.00    +0.000 C 
ATOM     24  C   UNL     1      -1.343  11.417  21.091  0.00  0.00    +0.000 C 
BRANCH  22  25
ATOM     25  C   UNL     1      -2.423  14.097  22.475  0.00  0.00    +0.000 C 
BRANCH  25  26
ATOM     26  C   UNL     1      -3.709  13.507  23.007  0.00  0.00    +0.000 A 
ATOM     27  C   UNL     1      -3.768  13.006  24.318  0.00  0.00    +0.000 A 
ATOM     28  C   UNL     1      -4.962  12.502  24.839  0.00  0.00    +0.000 A 
ATOM     29  C   UNL     1      -6.114  12.494  24.058  0.00  0.00    +0.000 A 
ATOM     30  C   UNL     1      -6.072  12.989  22.756  0.00  0.00    +0.000 A 
ATOM     31  C   UNL     1      -4.877  13.493  22.233  0.00  0.00    +0.000 A 
ENDBRANCH  25  26
ENDBRANCH  22  25
ENDBRANCH   1  17
TORSDOF 6
ENDMDL
