MODEL 1
REMARK VINA RESULT:      -8.0      0.000      0.000
REMARK  Name = 
REMARK  7 active torsions:
REMARK  status: ('A' for Active; 'I' for Inactive)
REMARK    1  A    between atoms: C_1  and  O_2
REMARK    2  A    between atoms: O_2  and  C_3
REMARK    3  A    between atoms: C_12  and  C_14
REMARK    4  A    between atoms: C_14  and  C_15
REMARK    5  A    between atoms: C_15  and  C_16
REMARK    6  A    between atoms: C_29  and  O_30
REMARK    7  A    between atoms: O_30  and  C_31
REMARK                            x       y       z     vdW  Elec       q    Type
REMARK                         _______ _______ _______ _____ _____    ______ ____
ROOT
ATOM      1  C   UNL     1      -0.707  12.692  19.874  0.00  0.00    +0.000 A 
ATOM      2  C   UNL     1       0.085  11.624  19.432  0.00  0.00    +0.000 A 
ATOM      3  C   UNL     1       0.367  10.535  20.242  0.00  0.00    +0.000 A 
ATOM      4  N   UNL     1       1.085   9.530  19.738  0.00  0.00    +0.000 NA
ATOM      5  C   UNL     1       1.292   8.443  20.492  0.00  0.00    +0.000 A 
ATOM      6  N   UNL     1       1.927   7.369  19.923  0.00  0.00    +0.000 N 
ATOM      7  C   UNL     1       2.176   6.147  20.687  0.00  0.00    +0.000 C 
ATOM      8  C   UNL     1       1.934   4.921  19.783  0.00  0.00    +0.000 C 
ATOM      9  N   UNL     1       2.658   5.029  18.505  0.00  0.00    +0.000 N 
ATOM     10  C   UNL     1       3.372   3.941  18.026  0.00  0.00    +0.000 C 
ATOM     11  O   UNL     1       3.451   2.886  18.655  0.00  0.00    +0.000 OA
ATOM     12  C   UNL     1       2.417   6.288  17.780  0.00  0.00    +0.000 C 
ATOM     13  C   UNL     1       2.673   7.515  18.675  0.00  0.00    +0.000 C 
ATOM     14  N   UNL     1       0.842   8.341  21.750  0.00  0.00    +0.000 NA
ATOM     15  C   UNL     1       0.156   9.369  22.260  0.00  0.00    +0.000 A 
ATOM     16  N   UNL     1      -0.302   9.187  23.571  0.00  0.00    +0.000 N 
ATOM     17  C   UNL     1      -0.137  10.524  21.537  0.00  0.00    +0.000 A 
ATOM     18  C   UNL     1      -0.895  11.619  22.017  0.00  0.00    +0.000 A 
ATOM     19  C   UNL     1      -1.174  12.713  21.196  0.00  0.00    +0.000 A 
ATOM     20  H   UNL     1       0.058   8.288  23.884  0.00  0.00    +0.000 HD
ATOM     21  H   UNL     1       0.001   9.941  24.176  0.00  0.00    +0.000 HD
ENDROOT
BRANCH   1  23
ATOM     22  C   UNL     1       0.040  14.679  18.844  0.00  0.00    +0.000 C 
ATOM     23  O   UNL     1      -1.025  13.755  19.062  0.00  0.00    +0.000 OA
ENDBRANCH   1  23
BRANCH  19  24
ATOM     24  O   UNL     1      -1.898  13.808  21.588  0.00  0.00    +0.000 OA
ATOM     25  C   UNL     1      -3.266  13.599  21.921  0.00  0.00    +0.000 C 
ENDBRANCH  19  24
BRANCH  10  26
ATOM     26  C   UNL     1       4.080   4.123  16.693  0.00  0.00    +0.000 C 
BRANCH  26  27
ATOM     27  C   UNL     1       5.572   3.797  16.779  0.00  0.00    +0.000 C 
BRANCH  27  28
ATOM     28  C   UNL     1       6.366   4.967  17.309  0.00  0.00    +0.000 A 
ATOM     29  C   UNL     1       7.256   4.802  18.380  0.00  0.00    +0.000 A 
ATOM     30  C   UNL     1       7.982   5.887  18.874  0.00  0.00    +0.000 A 
ATOM     31  C   UNL     1       7.826   7.151  18.305  0.00  0.00    +0.000 A 
ATOM     32  C   UNL     1       6.939   7.327  17.244  0.00  0.00    +0.000 A 
ATOM     33  C   UNL     1       6.211   6.244  16.749  0.00  0.00    +0.000 A 
ENDBRANCH  27  28
ENDBRANCH  26  27
ENDBRANCH  10  26
TORSDOF 5
ENDMDL
MODEL 2
REMARK VINA RESULT:      -7.9      0.530      1.014
REMARK  Name = 
REMARK  7 active torsions:
REMARK  status: ('A' for Active; 'I' for Inactive)
REMARK    1  A    between atoms: C_1  and  O_2
REMARK    2  A    between atoms: O_2  and  C_3
REMARK    3  A    between atoms: C_12  and  C_14
REMARK    4  A    between atoms: C_14  and  C_15
REMARK    5  A    between atoms: C_15  and  C_16
REMARK    6  A    between atoms: C_29  and  O_30
REMARK    7  A    between atoms: O_30  and  C_31
REMARK                            x       y       z     vdW  Elec       q    Type
REMARK                         _______ _______ _______ _____ _____    ______ ____
ROOT
ATOM      1  C   UNL     1      -0.294  12.910  19.886  0.00  0.00    +0.000 A 
ATOM      2  C   UNL     1       0.425  11.786  19.457  0.00  0.00    +0.000 A 
ATOM      3  C   UNL     1       0.596  10.672  20.264  0.00  0.00    +0.000 A 
ATOM      4  N   UNL     1       1.248   9.618  19.770  0.00  0.00    +0.000 NA
ATOM      5  C   UNL     1       1.348   8.512  20.520  0.00  0.00    +0.000 A 
ATOM      6  N   UNL     1       1.913   7.397  19.958  0.00  0.00    +0.000 N 
ATOM      7  C   UNL     1       2.043   6.152  20.716  0.00  0.00    +0.000 C 
ATOM      8  C   UNL     1       1.732   4.956  19.794  0.00  0.00    +0.000 C 
ATOM      9  N   UNL     1       2.500   5.017  18.538  0.00  0.00    +0.000 N 
ATOM     10  C   UNL     1       3.140   3.881  18.069  0.00  0.00    +0.000 C 
ATOM     11  O   UNL     1       3.118   2.817  18.689  0.00  0.00    +0.000 OA
ATOM     12  C   UNL     1       2.379   6.296  17.819  0.00  0.00    +0.000 C 
ATOM     13  C   UNL     1       2.705   7.493  18.733  0.00  0.00    +0.000 C 
ATOM     14  N   UNL     1       0.855   8.436  21.763  0.00  0.00    +0.000 NA
ATOM     15  C   UNL     1       0.236   9.511  22.263  0.00  0.00    +0.000 A 
ATOM     16  N   UNL     1      -0.273   9.356  23.558  0.00  0.00    +0.000 N 
ATOM     17  C   UNL     1       0.056  10.691  21.543  0.00  0.00    +0.000 A 
ATOM     18  C   UNL     1      -0.628  11.839  22.013  0.00  0.00    +0.000 A 
ATOM     19  C   UNL     1      -0.797  12.957  21.195  0.00  0.00    +0.000 A 
ATOM     20  H   UNL     1       0.007   8.429  23.873  0.00  0.00    +0.000 HD
ATOM     21  H   UNL     1       0.070  10.079  24.179  0.00  0.00    +0.000 HD
ENDROOT
BRANCH   1  23
ATOM     22  C   UNL     1       0.619  14.871  18.944  0.00  0.00    +0.000 C 
ATOM     23  O   UNL     1      -0.504  14.001  19.076  0.00  0.00    +0.000 OA
ENDBRANCH   1  23
BRANCH  19  24
ATOM     24  O   UNL     1      -1.444  14.103  21.577  0.00  0.00    +0.000 OA
ATOM     25  C   UNL     1      -1.243  14.548  22.914  0.00  0.00    +0.000 C 
ENDBRANCH  19  24
BRANCH  10  26
ATOM     26  C   UNL     1       3.899   4.016  16.758  0.00  0.00    +0.000 C 
BRANCH  26  27
ATOM     27  C   UNL     1       5.389   3.710  16.916  0.00  0.00    +0.000 C 
BRANCH  27  28
ATOM     28  C   UNL     1       6.170   4.937  17.319  0.00  0.00    +0.000 A 
ATOM     29  C   UNL     1       5.932   6.173  16.701  0.00  0.00    +0.000 A 
ATOM     30  C   UNL     1       6.663   7.304  17.070  0.00  0.00    +0.000 A 
ATOM     31  C   UNL     1       7.641   7.213  18.060  0.00  0.00    +0.000 A 
ATOM     32  C   UNL     1       7.890   5.987  18.676  0.00  0.00    +0.000 A 
ATOM     33  C   UNL     1       7.161   4.855  18.308  0.00  0.00    +0.000 A 
ENDBRANCH  27  28
ENDBRANCH  26  27
ENDBRANCH  10  26
TORSDOF 5
ENDMDL
MODEL 3
REMARK VINA RESULT:      -7.6      2.224     10.342
REMARK  Name = 
REMARK  7 active torsions:
REMARK  status: ('A' for Active; 'I' for Inactive)
REMARK    1  A    between atoms: C_1  and  O_2
REMARK    2  A    between atoms: O_2  and  C_3
REMARK    3  A    between atoms: C_12  and  C_14
REMARK    4  A    between atoms: C_14  and  C_15
REMARK    5  A    between atoms: C_15  and  C_16
REMARK    6  A    between atoms: C_29  and  O_30
REMARK    7  A    between atoms: O_30  and  C_31
REMARK                            x       y       z     vdW  Elec       q    Type
REMARK                         _______ _______ _______ _____ _____    ______ ____
ROOT
ATOM      1  C   UNL     1       2.908   3.617  20.418  0.00  0.00    +0.000 A 
ATOM      2  C   UNL     1       2.346   4.876  20.667  0.00  0.00    +0.000 A 
ATOM      3  C   UNL     1       2.554   5.954  19.821  0.00  0.00    +0.000 A 
ATOM      4  N   UNL     1       1.945   7.109  20.094  0.00  0.00    +0.000 NA
ATOM      5  C   UNL     1       2.082   8.129  19.236  0.00  0.00    +0.000 A 
ATOM      6  N   UNL     1       1.356   9.269  19.463  0.00  0.00    +0.000 N 
ATOM      7  C   UNL     1       1.450  10.417  18.560  0.00  0.00    +0.000 C 
ATOM      8  C   UNL     1       0.049  11.034  18.371  0.00  0.00    +0.000 C 
ATOM      9  N   UNL     1      -0.615  11.294  19.659  0.00  0.00    +0.000 N 
ATOM     10  C   UNL     1      -1.247  12.509  19.874  0.00  0.00    +0.000 C 
ATOM     11  O   UNL     1      -1.242  13.403  19.028  0.00  0.00    +0.000 OA
ATOM     12  C   UNL     1      -0.658  10.130  20.561  0.00  0.00    +0.000 C 
ATOM     13  C   UNL     1       0.742   9.520  20.765  0.00  0.00    +0.000 C 
ATOM     14  N   UNL     1       2.840   8.048  18.135  0.00  0.00    +0.000 NA
ATOM     15  C   UNL     1       3.477   6.898  17.890  0.00  0.00    +0.000 A 
ATOM     16  N   UNL     1       4.234   6.877  16.712  0.00  0.00    +0.000 N 
ATOM     17  C   UNL     1       3.365   5.775  18.708  0.00  0.00    +0.000 A 
ATOM     18  C   UNL     1       3.984   4.524  18.468  0.00  0.00    +0.000 A 
ATOM     19  C   UNL     1       3.770   3.444  19.325  0.00  0.00    +0.000 A 
ATOM     20  H   UNL     1       4.178   7.810  16.311  0.00  0.00    +0.000 HD
ATOM     21  H   UNL     1       5.194   6.607  16.894  0.00  0.00    +0.000 HD
ENDROOT
BRANCH   1  23
ATOM     22  C   UNL     1       1.378   2.508  21.830  0.00  0.00    +0.000 C 
ATOM     23  O   UNL     1       2.672   2.533  21.230  0.00  0.00    +0.000 OA
ENDBRANCH   1  23
BRANCH  19  24
ATOM     24  O   UNL     1       4.334   2.205  19.161  0.00  0.00    +0.000 OA
ATOM     25  C   UNL     1       3.707   1.322  18.237  0.00  0.00    +0.000 C 
ENDBRANCH  19  24
BRANCH  10  26
ATOM     26  C   UNL     1      -1.925  12.698  21.221  0.00  0.00    +0.000 C 
BRANCH  26  27
ATOM     27  C   UNL     1      -3.291  13.373  21.094  0.00  0.00    +0.000 C 
BRANCH  27  28
ATOM     28  C   UNL     1      -4.168  13.085  22.290  0.00  0.00    +0.000 A 
ATOM     29  C   UNL     1      -3.612  12.626  23.492  0.00  0.00    +0.000 A 
ATOM     30  C   UNL     1      -4.427  12.351  24.592  0.00  0.00    +0.000 A 
ATOM     31  C   UNL     1      -5.807  12.531  24.503  0.00  0.00    +0.000 A 
ATOM     32  C   UNL     1      -6.370  12.980  23.309  0.00  0.00    +0.000 A 
ATOM     33  C   UNL     1      -5.558  13.254  22.207  0.00  0.00    +0.000 A 
ENDBRANCH  27  28
ENDBRANCH  26  27
ENDBRANCH  10  26
TORSDOF 5
ENDMDL
MODEL 4
REMARK VINA RESULT:      -7.6      0.983      1.078
REMARK  Name = 
REMARK  7 active torsions:
REMARK  status: ('A' for Active; 'I' for Inactive)
REMARK    1  A    between atoms: C_1  and  O_2
REMARK    2  A    between atoms: O_2  and  C_3
REMARK    3  A    between atoms: C_12  and  C_14
REMARK    4  A    between atoms: C_14  and  C_15
REMARK    5  A    between atoms: C_15  and  C_16
REMARK    6  A    between atoms: C_29  and  O_30
REMARK    7  A    between atoms: O_30  and  C_31
REMARK                            x       y       z     vdW  Elec       q    Type
REMARK                         _______ _______ _______ _____ _____    ______ ____
ROOT
ATOM      1  C   UNL     1       0.354  12.710  19.640  0.00  0.00    +0.000 A 
ATOM      2  C   UNL     1       0.907  11.469  19.295  0.00  0.00    +0.000 A 
ATOM      3  C   UNL     1       0.921  10.401  20.179  0.00  0.00    +0.000 A 
ATOM      4  N   UNL     1       1.418   9.234  19.765  0.00  0.00    +0.000 NA
ATOM      5  C   UNL     1       1.361   8.180  20.590  0.00  0.00    +0.000 A 
ATOM      6  N   UNL     1       1.763   6.960  20.112  0.00  0.00    +0.000 N 
ATOM      7  C   UNL     1       1.718   5.766  20.956  0.00  0.00    +0.000 C 
ATOM      8  C   UNL     1       1.241   4.564  20.116  0.00  0.00    +0.000 C 
ATOM      9  N   UNL     1       2.008   4.428  18.866  0.00  0.00    +0.000 N 
ATOM     10  C   UNL     1       2.481   3.183  18.481  0.00  0.00    +0.000 C 
ATOM     11  O   UNL     1       2.311   2.180  19.174  0.00  0.00    +0.000 OA
ATOM     12  C   UNL     1       2.067   5.659  18.058  0.00  0.00    +0.000 C 
ATOM     13  C   UNL     1       2.559   6.858  18.890  0.00  0.00    +0.000 C 
ATOM     14  N   UNL     1       0.865   8.262  21.832  0.00  0.00    +0.000 NA
ATOM     15  C   UNL     1       0.404   9.445  22.251  0.00  0.00    +0.000 A 
ATOM     16  N   UNL     1      -0.120   9.453  23.549  0.00  0.00    +0.000 N 
ATOM     17  C   UNL     1       0.391  10.585  21.449  0.00  0.00    +0.000 A 
ATOM     18  C   UNL     1      -0.125  11.848  21.833  0.00  0.00    +0.000 A 
ATOM     19  C   UNL     1      -0.135  12.918  20.938  0.00  0.00    +0.000 A 
ATOM     20  H   UNL     1       0.027   8.521  23.930  0.00  0.00    +0.000 HD
ATOM     21  H   UNL     1       0.323  10.162  24.122  0.00  0.00    +0.000 HD
ENDROOT
BRANCH   1  23
ATOM     22  C   UNL     1       1.547  14.408  18.518  0.00  0.00    +0.000 C 
ATOM     23  O   UNL     1       0.298  13.760  18.754  0.00  0.00    +0.000 OA
ENDBRANCH   1  23
BRANCH  19  24
ATOM     24  O   UNL     1      -0.614  14.168  21.234  0.00  0.00    +0.000 OA
ATOM     25  C   UNL     1      -1.855  14.241  21.927  0.00  0.00    +0.000 C 
ENDBRANCH  19  24
BRANCH  10  26
ATOM     26  C   UNL     1       3.250   3.119  17.171  0.00  0.00    +0.000 C 
BRANCH  26  27
ATOM     27  C   UNL     1       4.762   3.048  17.388  0.00  0.00    +0.000 C 
BRANCH  27  28
ATOM     28  C   UNL     1       5.397   4.417  17.330  0.00  0.00    +0.000 A 
ATOM     29  C   UNL     1       6.348   4.806  18.284  0.00  0.00    +0.000 A 
ATOM     30  C   UNL     1       6.926   6.076  18.233  0.00  0.00    +0.000 A 
ATOM     31  C   UNL     1       6.559   6.973  17.230  0.00  0.00    +0.000 A 
ATOM     32  C   UNL     1       5.609   6.597  16.281  0.00  0.00    +0.000 A 
ATOM     33  C   UNL     1       5.028   5.329  16.330  0.00  0.00    +0.000 A 
ENDBRANCH  27  28
ENDBRANCH  26  27
ENDBRANCH  10  26
TORSDOF 5
ENDMDL
MODEL 5
REMARK VINA RESULT:      -7.5      1.374      1.807
REMARK  Name = 
REMARK  7 active torsions:
REMARK  status: ('A' for Active; 'I' for Inactive)
REMARK    1  A    between atoms: C_1  and  O_2
REMARK    2  A    between atoms: O_2  and  C_3
REMARK    3  A    between atoms: C_12  and  C_14
REMARK    4  A    between atoms: C_14  and  C_15
REMARK    5  A    between atoms: C_15  and  C_16
REMARK    6  A    between atoms: C_29  and  O_30
REMARK    7  A    between atoms: O_30  and  C_31
REMARK                            x       y       z     vdW  Elec       q    Type
REMARK                         _______ _______ _______ _____ _____    ______ ____
ROOT
ATOM      1  C   UNL     1       0.440  12.629  19.492  0.00  0.00    +0.000 A 
ATOM      2  C   UNL     1       1.027  11.383  19.232  0.00  0.00    +0.000 A 
ATOM      3  C   UNL     1       0.931  10.326  20.124  0.00  0.00    +0.000 A 
ATOM      4  N   UNL     1       1.470   9.153  19.787  0.00  0.00    +0.000 NA
ATOM      5  C   UNL     1       1.311   8.110  20.612  0.00  0.00    +0.000 A 
ATOM      6  N   UNL     1       1.764   6.883  20.200  0.00  0.00    +0.000 N 
ATOM      7  C   UNL     1       1.614   5.699  21.046  0.00  0.00    +0.000 C 
ATOM      8  C   UNL     1       1.237   4.488  20.170  0.00  0.00    +0.000 C 
ATOM      9  N   UNL     1       2.149   4.335  19.023  0.00  0.00    +0.000 N 
ATOM     10  C   UNL     1       2.660   3.085  18.713  0.00  0.00    +0.000 C 
ATOM     11  O   UNL     1       2.405   2.090  19.392  0.00  0.00    +0.000 OA
ATOM     12  C   UNL     1       2.308   5.556  18.214  0.00  0.00    +0.000 C 
ATOM     13  C   UNL     1       2.701   6.765  19.084  0.00  0.00    +0.000 C 
ATOM     14  N   UNL     1       0.669   8.207  21.783  0.00  0.00    +0.000 NA
ATOM     15  C   UNL     1       0.166   9.396  22.129  0.00  0.00    +0.000 A 
ATOM     16  N   UNL     1      -0.511   9.422  23.355  0.00  0.00    +0.000 N 
ATOM     17  C   UNL     1       0.252  10.527  21.319  0.00  0.00    +0.000 A 
ATOM     18  C   UNL     1      -0.301  11.795  21.622  0.00  0.00    +0.000 A 
ATOM     19  C   UNL     1      -0.201  12.854  20.719  0.00  0.00    +0.000 A 
ATOM     20  H   UNL     1      -0.414   8.494  23.762  0.00  0.00    +0.000 HD
ATOM     21  H   UNL     1      -0.138  10.137  23.968  0.00  0.00    +0.000 HD
ENDROOT
BRANCH   1  23
ATOM     22  C   UNL     1       1.770  14.299  18.489  0.00  0.00    +0.000 C 
ATOM     23  O   UNL     1       0.495  13.668  18.594  0.00  0.00    +0.000 OA
ENDBRANCH   1  23
BRANCH  19  24
ATOM     24  O   UNL     1      -0.708  14.108  20.941  0.00  0.00    +0.000 OA
ATOM     25  C   UNL     1      -2.125  14.242  20.965  0.00  0.00    +0.000 C 
ENDBRANCH  19  24
BRANCH  10  26
ATOM     26  C   UNL     1       3.581   3.003  17.506  0.00  0.00    +0.000 C 
BRANCH  26  27
ATOM     27  C   UNL     1       4.950   3.628  17.776  0.00  0.00    +0.000 C 
BRANCH  27  28
ATOM     28  C   UNL     1       5.631   4.051  16.496  0.00  0.00    +0.000 A 
ATOM     29  C   UNL     1       6.878   4.692  16.526  0.00  0.00    +0.000 A 
ATOM     30  C   UNL     1       7.500   5.091  15.341  0.00  0.00    +0.000 A 
ATOM     31  C   UNL     1       6.883   4.855  14.113  0.00  0.00    +0.000 A 
ATOM     32  C   UNL     1       5.640   4.224  14.073  0.00  0.00    +0.000 A 
ATOM     33  C   UNL     1       5.015   3.826  15.256  0.00  0.00    +0.000 A 
ENDBRANCH  27  28
ENDBRANCH  26  27
ENDBRANCH  10  26
TORSDOF 5
ENDMDL
MODEL 6
REMARK VINA RESULT:      -7.4      0.913      1.348
REMARK  Name = 
REMARK  7 active torsions:
REMARK  status: ('A' for Active; 'I' for Inactive)
REMARK    1  A    between atoms: C_1  and  O_2
REMARK    2  A    between atoms: O_2  and  C_3
REMARK    3  A    between atoms: C_12  and  C_14
REMARK    4  A    between atoms: C_14  and  C_15
REMARK    5  A    between atoms: C_15  and  C_16
REMARK    6  A    between atoms: C_29  and  O_30
REMARK    7  A    between atoms: O_30  and  C_31
REMARK                            x       y       z     vdW  Elec       q    Type
REMARK                         _______ _______ _______ _____ _____    ______ ____
ROOT
ATOM      1  C   UNL     1      -1.729  11.936  20.010  0.00  0.00    +0.000 A 
ATOM      2  C   UNL     1      -0.833  10.984  19.505  0.00  0.00    +0.000 A 
ATOM      3  C   UNL     1      -0.133  10.123  20.335  0.00  0.00    +0.000 A 
ATOM      4  N   UNL     1       0.665   9.207  19.782  0.00  0.00    +0.000 NA
ATOM      5  C   UNL     1       1.282   8.324  20.577  0.00  0.00    +0.000 A 
ATOM      6  N   UNL     1       2.001   7.315  19.991  0.00  0.00    +0.000 N 
ATOM      7  C   UNL     1       2.691   6.311  20.800  0.00  0.00    +0.000 C 
ATOM      8  C   UNL     1       2.540   4.927  20.136  0.00  0.00    +0.000 C 
ATOM      9  N   UNL     1       2.911   4.958  18.711  0.00  0.00    +0.000 N 
ATOM     10  C   UNL     1       3.728   3.965  18.193  0.00  0.00    +0.000 C 
ATOM     11  O   UNL     1       4.189   3.067  18.897  0.00  0.00    +0.000 OA
ATOM     12  C   UNL     1       2.228   6.005  17.933  0.00  0.00    +0.000 C 
ATOM     13  C   UNL     1       2.391   7.391  18.584  0.00  0.00    +0.000 C 
ATOM     14  N   UNL     1       1.165   8.350  21.912  0.00  0.00    +0.000 NA
ATOM     15  C   UNL     1       0.394   9.296  22.459  0.00  0.00    +0.000 A 
ATOM     16  N   UNL     1       0.300   9.251  23.856  0.00  0.00    +0.000 N 
ATOM     17  C   UNL     1      -0.313  10.233  21.708  0.00  0.00    +0.000 A 
ATOM     18  C   UNL     1      -1.174  11.224  22.239  0.00  0.00    +0.000 A 
ATOM     19  C   UNL     1      -1.876  12.088  21.397  0.00  0.00    +0.000 A 
ATOM     20  H   UNL     1       0.919   8.505  24.167  0.00  0.00    +0.000 HD
ATOM     21  H   UNL     1       0.550  10.140  24.272  0.00  0.00    +0.000 HD
ENDROOT
BRANCH   1  23
ATOM     22  C   UNL     1      -3.522  12.123  18.488  0.00  0.00    +0.000 C 
ATOM     23  O   UNL     1      -2.459  12.765  19.191  0.00  0.00    +0.000 OA
ENDBRANCH   1  23
BRANCH  19  24
ATOM     24  O   UNL     1      -2.724  13.071  21.834  0.00  0.00    +0.000 OA
ATOM     25  C   UNL     1      -4.013  12.667  22.283  0.00  0.00    +0.000 C 
ENDBRANCH  19  24
BRANCH  10  26
ATOM     26  C   UNL     1       4.054   4.054  16.710  0.00  0.00    +0.000 C 
BRANCH  26  27
ATOM     27  C   UNL     1       5.552   3.915  16.436  0.00  0.00    +0.000 C 
BRANCH  27  28
ATOM     28  C   UNL     1       6.345   5.012  17.106  0.00  0.00    +0.000 A 
ATOM     29  C   UNL     1       6.234   6.342  16.675  0.00  0.00    +0.000 A 
ATOM     30  C   UNL     1       6.976   7.352  17.290  0.00  0.00    +0.000 A 
ATOM     31  C   UNL     1       7.838   7.046  18.342  0.00  0.00    +0.000 A 
ATOM     32  C   UNL     1       7.960   5.725  18.774  0.00  0.00    +0.000 A 
ATOM     33  C   UNL     1       7.221   4.713  18.160  0.00  0.00    +0.000 A 
ENDBRANCH  27  28
ENDBRANCH  26  27
ENDBRANCH  10  26
TORSDOF 5
ENDMDL
MODEL 7
REMARK VINA RESULT:      -7.4      2.236     10.396
REMARK  Name = 
REMARK  7 active torsions:
REMARK  status: ('A' for Active; 'I' for Inactive)
REMARK    1  A    between atoms: C_1  and  O_2
REMARK    2  A    between atoms: O_2  and  C_3
REMARK    3  A    between atoms: C_12  and  C_14
REMARK    4  A    between atoms: C_14  and  C_15
REMARK    5  A    between atoms: C_15  and  C_16
REMARK    6  A    between atoms: C_29  and  O_30
REMARK    7  A    between atoms: O_30  and  C_31
REMARK                            x       y       z     vdW  Elec       q    Type
REMARK                         _______ _______ _______ _____ _____    ______ ____
ROOT
ATOM      1  C   UNL     1       2.896   3.686  20.453  0.00  0.00    +0.000 A 
ATOM      2  C   UNL     1       2.328   4.935  20.734  0.00  0.00    +0.000 A 
ATOM      3  C   UNL     1       2.497   6.024  19.893  0.00  0.00    +0.000 A 
ATOM      4  N   UNL     1       1.885   7.170  20.197  0.00  0.00    +0.000 NA
ATOM      5  C   UNL     1       1.983   8.199  19.346  0.00  0.00    +0.000 A 
ATOM      6  N   UNL     1       1.252   9.329  19.607  0.00  0.00    +0.000 N 
ATOM      7  C   UNL     1       1.305  10.487  18.714  0.00  0.00    +0.000 C 
ATOM      8  C   UNL     1      -0.108  11.090  18.574  0.00  0.00    +0.000 C 
ATOM      9  N   UNL     1      -0.735  11.328  19.885  0.00  0.00    +0.000 N 
ATOM     10  C   UNL     1      -1.374  12.534  20.132  0.00  0.00    +0.000 C 
ATOM     11  O   UNL     1      -1.405  13.437  19.297  0.00  0.00    +0.000 OA
ATOM     12  C   UNL     1      -0.737  10.155  20.775  0.00  0.00    +0.000 C 
ATOM     13  C   UNL     1       0.675   9.560  20.930  0.00  0.00    +0.000 C 
ATOM     14  N   UNL     1       2.708   8.139  18.221  0.00  0.00    +0.000 NA
ATOM     15  C   UNL     1       3.350   6.999  17.944  0.00  0.00    +0.000 A 
ATOM     16  N   UNL     1       4.071   6.999  16.744  0.00  0.00    +0.000 N 
ATOM     17  C   UNL     1       3.276   5.866  18.754  0.00  0.00    +0.000 A 
ATOM     18  C   UNL     1       3.901   4.625  18.481  0.00  0.00    +0.000 A 
ATOM     19  C   UNL     1       3.726   3.534  19.333  0.00  0.00    +0.000 A 
ATOM     20  H   UNL     1       3.992   7.936  16.355  0.00  0.00    +0.000 HD
ATOM     21  H   UNL     1       5.039   6.739  16.894  0.00  0.00    +0.000 HD
ENDROOT
BRANCH   1  23
ATOM     22  C   UNL     1       1.385   2.485  21.811  0.00  0.00    +0.000 C 
ATOM     23  O   UNL     1       2.698   2.591  21.261  0.00  0.00    +0.000 OA
ENDBRANCH   1  23
BRANCH  19  24
ATOM     24  O   UNL     1       4.299   2.304  19.139  0.00  0.00    +0.000 OA
ATOM     25  C   UNL     1       3.656   1.424  18.222  0.00  0.00    +0.000 C 
ENDBRANCH  19  24
BRANCH  10  26
ATOM     26  C   UNL     1      -2.012  12.701  21.502  0.00  0.00    +0.000 C 
BRANCH  26  27
ATOM     27  C   UNL     1      -3.076  13.799  21.516  0.00  0.00    +0.000 C 
BRANCH  27  28
ATOM     28  C   UNL     1      -4.469  13.223  21.600  0.00  0.00    +0.000 A 
ATOM     29  C   UNL     1      -5.018  12.514  20.522  0.00  0.00    +0.000 A 
ATOM     30  C   UNL     1      -6.310  11.992  20.600  0.00  0.00    +0.000 A 
ATOM     31  C   UNL     1      -7.070  12.173  21.755  0.00  0.00    +0.000 A 
ATOM     32  C   UNL     1      -6.536  12.883  22.830  0.00  0.00    +0.000 A 
ATOM     33  C   UNL     1      -5.245  13.408  22.755  0.00  0.00    +0.000 A 
ENDBRANCH  27  28
ENDBRANCH  26  27
ENDBRANCH  10  26
TORSDOF 5
ENDMDL
MODEL 8
REMARK VINA RESULT:      -7.4      1.027      1.156
REMARK  Name = 
REMARK  7 active torsions:
REMARK  status: ('A' for Active; 'I' for Inactive)
REMARK    1  A    between atoms: C_1  and  O_2
REMARK    2  A    between atoms: O_2  and  C_3
REMARK    3  A    between atoms: C_12  and  C_14
REMARK    4  A    between atoms: C_14  and  C_15
REMARK    5  A    between atoms: C_15  and  C_16
REMARK    6  A    between atoms: C_29  and  O_30
REMARK    7  A    between atoms: O_30  and  C_31
REMARK                            x       y       z     vdW  Elec       q    Type
REMARK                         _______ _______ _______ _____ _____    ______ ____
ROOT
ATOM      1  C   UNL     1      -1.484  11.676  19.253  0.00  0.00    +0.000 A 
ATOM      2  C   UNL     1      -0.585  10.684  18.839  0.00  0.00    +0.000 A 
ATOM      3  C   UNL     1       0.111   9.900  19.746  0.00  0.00    +0.000 A 
ATOM      4  N   UNL     1       0.912   8.940  19.281  0.00  0.00    +0.000 NA
ATOM      5  C   UNL     1       1.525   8.131  20.155  0.00  0.00    +0.000 A 
ATOM      6  N   UNL     1       2.248   7.074  19.664  0.00  0.00    +0.000 N 
ATOM      7  C   UNL     1       2.933   6.146  20.563  0.00  0.00    +0.000 C 
ATOM      8  C   UNL     1       2.787   4.709  20.023  0.00  0.00    +0.000 C 
ATOM      9  N   UNL     1       3.168   4.614  18.603  0.00  0.00    +0.000 N 
ATOM     10  C   UNL     1       3.989   3.581  18.179  0.00  0.00    +0.000 C 
ATOM     11  O   UNL     1       4.445   2.748  18.962  0.00  0.00    +0.000 OA
ATOM     12  C   UNL     1       2.489   5.588  17.731  0.00  0.00    +0.000 C 
ATOM     13  C   UNL     1       2.647   7.027  18.259  0.00  0.00    +0.000 C 
ATOM     14  N   UNL     1       1.399   8.273  21.481  0.00  0.00    +0.000 NA
ATOM     15  C   UNL     1       0.624   9.263  21.938  0.00  0.00    +0.000 A 
ATOM     16  N   UNL     1       0.520   9.341  23.333  0.00  0.00    +0.000 N 
ATOM     17  C   UNL     1      -0.079  10.129  21.103  0.00  0.00    +0.000 A 
ATOM     18  C   UNL     1      -0.944  11.162  21.539  0.00  0.00    +0.000 A 
ATOM     19  C   UNL     1      -1.640  11.948  20.619  0.00  0.00    +0.000 A 
ATOM     20  H   UNL     1       1.138   8.626  23.712  0.00  0.00    +0.000 HD
ATOM     21  H   UNL     1       0.767  10.263  23.670  0.00  0.00    +0.000 HD
ENDROOT
BRANCH   1  23
ATOM     22  C   UNL     1      -3.232  11.713  17.669  0.00  0.00    +0.000 C 
ATOM     23  O   UNL     1      -2.209  12.428  18.359  0.00  0.00    +0.000 OA
ENDBRANCH   1  23
BRANCH  19  24
ATOM     24  O   UNL     1      -2.492  12.965  20.963  0.00  0.00    +0.000 OA
ATOM     25  C   UNL     1      -2.339  13.533  22.259  0.00  0.00    +0.000 C 
ENDBRANCH  19  24
BRANCH  10  26
ATOM     26  C   UNL     1       4.325   3.540  16.696  0.00  0.00    +0.000 C 
BRANCH  26  27
ATOM     27  C   UNL     1       5.831   3.594  16.441  0.00  0.00    +0.000 C 
BRANCH  27  28
ATOM     28  C   UNL     1       6.454   4.831  17.045  0.00  0.00    +0.000 A 
ATOM     29  C   UNL     1       7.388   4.728  18.085  0.00  0.00    +0.000 A 
ATOM     30  C   UNL     1       7.954   5.874  18.647  0.00  0.00    +0.000 A 
ATOM     31  C   UNL     1       7.592   7.136  18.177  0.00  0.00    +0.000 A 
ATOM     32  C   UNL     1       6.659   7.249  17.147  0.00  0.00    +0.000 A 
ATOM     33  C   UNL     1       6.090   6.105  16.584  0.00  0.00    +0.000 A 
ENDBRANCH  27  28
ENDBRANCH  26  27
ENDBRANCH  10  26
TORSDOF 5
ENDMDL
MODEL 9
REMARK VINA RESULT:      -7.3      1.873      2.451
REMARK  Name = 
REMARK  7 active torsions:
REMARK  status: ('A' for Active; 'I' for Inactive)
REMARK    1  A    between atoms: C_1  and  O_2
REMARK    2  A    between atoms: O_2  and  C_3
REMARK    3  A    between atoms: C_12  and  C_14
REMARK    4  A    between atoms: C_14  and  C_15
REMARK    5  A    between atoms: C_15  and  C_16
REMARK    6  A    between atoms: C_29  and  O_30
REMARK    7  A    between atoms: O_30  and  C_31
REMARK                            x       y       z     vdW  Elec       q    Type
REMARK                         _______ _______ _______ _____ _____    ______ ____
ROOT
ATOM      1  C   UNL     1      -0.632  12.855  19.679  0.00  0.00    +0.000 A 
ATOM      2  C   UNL     1       0.260  11.861  19.255  0.00  0.00    +0.000 A 
ATOM      3  C   UNL     1       0.444  10.687  19.969  0.00  0.00    +0.000 A 
ATOM      4  N   UNL     1       1.272   9.762  19.479  0.00  0.00    +0.000 NA
ATOM      5  C   UNL     1       1.391   8.596  20.125  0.00  0.00    +0.000 A 
ATOM      6  N   UNL     1       2.149   7.609  19.550  0.00  0.00    +0.000 N 
ATOM      7  C   UNL     1       2.313   6.308  20.196  0.00  0.00    +0.000 C 
ATOM      8  C   UNL     1       2.268   5.196  19.128  0.00  0.00    +0.000 C 
ATOM      9  N   UNL     1       3.189   5.470  18.012  0.00  0.00    +0.000 N 
ATOM     10  C   UNL     1       4.011   4.460  17.535  0.00  0.00    +0.000 C 
ATOM     11  O   UNL     1       4.024   3.338  18.041  0.00  0.00    +0.000 OA
ATOM     12  C   UNL     1       3.025   6.803  17.408  0.00  0.00    +0.000 C 
ATOM     13  C   UNL     1       3.086   7.917  18.470  0.00  0.00    +0.000 C 
ATOM     14  N   UNL     1       0.744   8.335  21.269  0.00  0.00    +0.000 NA
ATOM     15  C   UNL     1      -0.054   9.283  21.773  0.00  0.00    +0.000 A 
ATOM     16  N   UNL     1      -0.714   8.936  22.958  0.00  0.00    +0.000 N 
ATOM     17  C   UNL     1      -0.265  10.512  21.150  0.00  0.00    +0.000 A 
ATOM     18  C   UNL     1      -1.132  11.528  21.621  0.00  0.00    +0.000 A 
ATOM     19  C   UNL     1      -1.311  12.708  20.898  0.00  0.00    +0.000 A 
ATOM     20  H   UNL     1      -0.378   8.012  23.221  0.00  0.00    +0.000 HD
ATOM     21  H   UNL     1      -0.543   9.616  23.689  0.00  0.00    +0.000 HD
ENDROOT
BRANCH   1  23
ATOM     22  C   UNL     1       0.247  14.915  18.938  0.00  0.00    +0.000 C 
ATOM     23  O   UNL     1      -0.850  14.003  18.955  0.00  0.00    +0.000 OA
ENDBRANCH   1  23
BRANCH  19  24
ATOM     24  O   UNL     1      -2.129  13.736  21.288  0.00  0.00    +0.000 OA
ATOM     25  C   UNL     1      -1.737  14.480  22.437  0.00  0.00    +0.000 C 
ENDBRANCH  19  24
BRANCH  10  26
ATOM     26  C   UNL     1       4.922   4.813  16.370  0.00  0.00    +0.000 C 
BRANCH  26  27
ATOM     27  C   UNL     1       5.400   3.575  15.612  0.00  0.00    +0.000 C 
BRANCH  27  28
ATOM     28  C   UNL     1       6.126   3.946  14.341  0.00  0.00    +0.000 A 
ATOM     29  C   UNL     1       5.850   3.282  13.137  0.00  0.00    +0.000 A 
ATOM     30  C   UNL     1       6.531   3.622  11.966  0.00  0.00    +0.000 A 
ATOM     31  C   UNL     1       7.496   4.628  11.985  0.00  0.00    +0.000 A 
ATOM     32  C   UNL     1       7.782   5.290  13.178  0.00  0.00    +0.000 A 
ATOM     33  C   UNL     1       7.105   4.952  14.351  0.00  0.00    +0.000 A 
ENDBRANCH  27  28
ENDBRANCH  26  27
ENDBRANCH  10  26
TORSDOF 5
ENDMDL
