MODEL 1
REMARK VINA RESULT:      -8.5      0.000      0.000
REMARK  Name = 
REMARK  9 active torsions:
REMARK  status: ('A' for Active; 'I' for Inactive)
REMARK    1  A    between atoms: C_1  and  C_2
REMARK    2  A    between atoms: C_4  and  C_5
REMARK    3  A    between atoms: C_8  and  C_9
REMARK    4  A    between atoms: N_11  and  C_12
REMARK    5  A    between atoms: N_11  and  C_13
REMARK    6  A    between atoms: C_14  and  C_15
REMARK    7  A    between atoms: C_18  and  C_19
REMARK    8  A    between atoms: C_19  and  C_20
REMARK    9  A    between atoms: C_20  and  C_21
REMARK                            x       y       z     vdW  Elec       q    Type
REMARK                         _______ _______ _______ _____ _____    ______ ____
ROOT
ATOM      1  C   UNL     1       7.916   8.731  17.616  0.00  0.00    +0.000 C 
ATOM      2  C   UNL     1       7.048   7.533  17.369  0.00  0.00    +0.000 A 
ATOM      3  C   UNL     1       7.556   6.407  16.734  0.00  0.00    +0.000 A 
ATOM      4  C   UNL     1       6.771   5.260  16.542  0.00  0.00    +0.000 A 
ATOM      5  C   UNL     1       7.354   4.074  15.820  0.00  0.00    +0.000 C 
ATOM      6  C   UNL     1       5.446   5.266  17.045  0.00  0.00    +0.000 A 
ATOM      7  S   UNL     1       4.358   3.944  17.044  0.00  0.00    +0.000 S 
ATOM      8  C   UNL     1       3.052   4.852  17.666  0.00  0.00    +0.000 A 
ATOM      9  C   UNL     1       3.477   6.131  18.063  0.00  0.00    +0.000 A 
ATOM     10  C   UNL     1       4.873   6.382  17.659  0.00  0.00    +0.000 A 
ATOM     11  C   UNL     1       5.709   7.531  17.795  0.00  0.00    +0.000 A 
ENDROOT
BRANCH   9  12
ATOM     12  C   UNL     1       2.623   7.088  18.817  0.00  0.00    +0.000 A 
ATOM     13  C   UNL     1       2.190   8.279  18.208  0.00  0.00    +0.000 A 
ATOM     14  C   UNL     1       1.346   9.183  18.870  0.00  0.00    +0.000 A 
ATOM     15  C   UNL     1       0.950   8.952  20.188  0.00  0.00    +0.000 A 
ATOM     16  C   UNL     1       1.412   7.793  20.823  0.00  0.00    +0.000 A 
ATOM     17  C   UNL     1       2.212   6.863  20.137  0.00  0.00    +0.000 A 
BRANCH  15  18
ATOM     18  C   UNL     1       0.068   9.939  20.916  0.00  0.00    +0.000 C 
BRANCH  18  19
ATOM     19  C   UNL     1       0.345  11.391  20.518  0.00  0.00    +0.000 C 
BRANCH  19  20
ATOM     20  C   UNL     1      -0.459  11.800  19.336  0.00  0.00    +0.000 A 
ATOM     21  N   UNL     1      -1.649  11.216  19.011  0.00  0.00    +0.000 NA
ATOM     22  N   UNL     1      -2.078  11.830  17.918  0.00  0.00    +0.000 NA
ATOM     23  N   UNL     1      -1.135  12.743  17.644  0.00  0.00    +0.000 N 
ATOM     24  N   UNL     1      -0.091  12.773  18.489  0.00  0.00    +0.000 NA
ATOM     25  H   UNL     1      -1.202  13.358  16.836  0.00  0.00    +0.000 HD
ENDBRANCH  19  20
ENDBRANCH  18  19
ENDBRANCH  15  18
ENDBRANCH   9  12
BRANCH   8  26
ATOM     26  C   UNL     1       1.778   4.163  17.926  0.00  0.00    +0.000 C 
ATOM     27  O   UNL     1       0.852   4.287  17.123  0.00  0.00    +0.000 OA
ATOM     28  N   UNL     1       1.592   3.345  19.062  0.00  0.00    +0.000 N 
ATOM     29  C   UNL     1       2.505   3.101  20.172  0.00  0.00    +0.000 C 
ATOM     30  C   UNL     1       0.316   2.657  19.191  0.00  0.00    +0.000 C 
ENDBRANCH   8  26
TORSDOF 5
ENDMDL
MODEL 2
REMARK VINA RESULT:      -8.3      1.390      1.687
REMARK  Name = 
REMARK  9 active torsions:
REMARK  status: ('A' for Active; 'I' for Inactive)
REMARK    1  A    between atoms: C_1  and  C_2
REMARK    2  A    between atoms: C_4  and  C_5
REMARK    3  A    between atoms: C_8  and  C_9
REMARK    4  A    between atoms: N_11  and  C_12
REMARK    5  A    between atoms: N_11  and  C_13
REMARK    6  A    between atoms: C_14  and  C_15
REMARK    7  A    between atoms: C_18  and  C_19
REMARK    8  A    between atoms: C_19  and  C_20
REMARK    9  A    between atoms: C_20  and  C_21
REMARK                            x       y       z     vdW  Elec       q    Type
REMARK                         _______ _______ _______ _____ _____    ______ ____
ROOT
ATOM      1  C   UNL     1       7.905   8.826  17.587  0.00  0.00    +0.000 C 
ATOM      2  C   UNL     1       7.045   7.616  17.369  0.00  0.00    +0.000 A 
ATOM      3  C   UNL     1       7.570   6.469  16.786  0.00  0.00    +0.000 A 
ATOM      4  C   UNL     1       6.793   5.313  16.622  0.00  0.00    +0.000 A 
ATOM      5  C   UNL     1       7.392   4.102  15.956  0.00  0.00    +0.000 C 
ATOM      6  C   UNL     1       5.458   5.332  17.101  0.00  0.00    +0.000 A 
ATOM      7  S   UNL     1       4.375   4.007  17.128  0.00  0.00    +0.000 S 
ATOM      8  C   UNL     1       3.054   4.932  17.692  0.00  0.00    +0.000 A 
ATOM      9  C   UNL     1       3.467   6.227  18.048  0.00  0.00    +0.000 A 
ATOM     10  C   UNL     1       4.870   6.468  17.661  0.00  0.00    +0.000 A 
ATOM     11  C   UNL     1       5.699   7.624  17.769  0.00  0.00    +0.000 A 
ENDROOT
BRANCH   9  12
ATOM     12  C   UNL     1       2.596   7.207  18.750  0.00  0.00    +0.000 A 
ATOM     13  C   UNL     1       2.078   8.316  18.055  0.00  0.00    +0.000 A 
ATOM     14  C   UNL     1       1.216   9.236  18.669  0.00  0.00    +0.000 A 
ATOM     15  C   UNL     1       0.885   9.109  20.019  0.00  0.00    +0.000 A 
ATOM     16  C   UNL     1       1.431   8.037  20.736  0.00  0.00    +0.000 A 
ATOM     17  C   UNL     1       2.250   7.087  20.101  0.00  0.00    +0.000 A 
BRANCH  15  18
ATOM     18  C   UNL     1      -0.016  10.116  20.694  0.00  0.00    +0.000 C 
BRANCH  18  19
ATOM     19  C   UNL     1      -0.118  11.434  19.922  0.00  0.00    +0.000 C 
BRANCH  19  20
ATOM     20  C   UNL     1       0.944  12.393  20.328  0.00  0.00    +0.000 A 
ATOM     21  N   UNL     1       0.960  13.010  21.545  0.00  0.00    +0.000 NA
ATOM     22  N   UNL     1       2.040  13.777  21.558  0.00  0.00    +0.000 NA
ATOM     23  N   UNL     1       2.613  13.585  20.363  0.00  0.00    +0.000 N 
ATOM     24  N   UNL     1       1.976  12.735  19.541  0.00  0.00    +0.000 NA
ATOM     25  H   UNL     1       3.467  14.069  20.092  0.00  0.00    +0.000 HD
ENDBRANCH  19  20
ENDBRANCH  18  19
ENDBRANCH  15  18
ENDBRANCH   9  12
BRANCH   8  26
ATOM     26  C   UNL     1       1.777   4.248  17.953  0.00  0.00    +0.000 C 
ATOM     27  O   UNL     1       0.878   4.313  17.115  0.00  0.00    +0.000 OA
ATOM     28  N   UNL     1       1.561   3.500  19.132  0.00  0.00    +0.000 N 
ATOM     29  C   UNL     1       2.440   3.335  20.284  0.00  0.00    +0.000 C 
ATOM     30  C   UNL     1       0.287   2.809  19.263  0.00  0.00    +0.000 C 
ENDBRANCH   8  26
TORSDOF 5
ENDMDL
MODEL 3
REMARK VINA RESULT:      -8.3      1.512      1.734
REMARK  Name = 
REMARK  9 active torsions:
REMARK  status: ('A' for Active; 'I' for Inactive)
REMARK    1  A    between atoms: C_1  and  C_2
REMARK    2  A    between atoms: C_4  and  C_5
REMARK    3  A    between atoms: C_8  and  C_9
REMARK    4  A    between atoms: N_11  and  C_12
REMARK    5  A    between atoms: N_11  and  C_13
REMARK    6  A    between atoms: C_14  and  C_15
REMARK    7  A    between atoms: C_18  and  C_19
REMARK    8  A    between atoms: C_19  and  C_20
REMARK    9  A    between atoms: C_20  and  C_21
REMARK                            x       y       z     vdW  Elec       q    Type
REMARK                         _______ _______ _______ _____ _____    ______ ____
ROOT
ATOM      1  C   UNL     1       7.894   8.802  17.682  0.00  0.00    +0.000 C 
ATOM      2  C   UNL     1       7.036   7.605  17.394  0.00  0.00    +0.000 A 
ATOM      3  C   UNL     1       7.548   6.516  16.702  0.00  0.00    +0.000 A 
ATOM      4  C   UNL     1       6.774   5.369  16.469  0.00  0.00    +0.000 A 
ATOM      5  C   UNL     1       7.359   4.223  15.687  0.00  0.00    +0.000 C 
ATOM      6  C   UNL     1       5.456   5.336  16.992  0.00  0.00    +0.000 A 
ATOM      7  S   UNL     1       4.383   4.002  16.946  0.00  0.00    +0.000 S 
ATOM      8  C   UNL     1       3.076   4.866  17.627  0.00  0.00    +0.000 A 
ATOM      9  C   UNL     1       3.492   6.131  18.075  0.00  0.00    +0.000 A 
ATOM     10  C   UNL     1       4.879   6.416  17.662  0.00  0.00    +0.000 A 
ATOM     11  C   UNL     1       5.704   7.568  17.838  0.00  0.00    +0.000 A 
ENDROOT
BRANCH   9  12
ATOM     12  C   UNL     1       2.638   7.043  18.883  0.00  0.00    +0.000 A 
ATOM     13  C   UNL     1       2.180   8.253  18.333  0.00  0.00    +0.000 A 
ATOM     14  C   UNL     1       1.336   9.116  19.046  0.00  0.00    +0.000 A 
ATOM     15  C   UNL     1       0.964   8.823  20.359  0.00  0.00    +0.000 A 
ATOM     16  C   UNL     1       1.451   7.644  20.936  0.00  0.00    +0.000 A 
ATOM     17  C   UNL     1       2.252   6.756  20.198  0.00  0.00    +0.000 A 
BRANCH  15  18
ATOM     18  C   UNL     1       0.082   9.766  21.143  0.00  0.00    +0.000 C 
BRANCH  18  19
ATOM     19  C   UNL     1      -0.101  11.121  20.455  0.00  0.00    +0.000 C 
BRANCH  19  20
ATOM     20  C   UNL     1      -0.194  12.230  21.441  0.00  0.00    +0.000 A 
ATOM     21  N   UNL     1      -0.555  12.036  22.743  0.00  0.00    +0.000 NA
ATOM     22  N   UNL     1      -0.526  13.230  23.318  0.00  0.00    +0.000 NA
ATOM     23  N   UNL     1      -0.152  14.071  22.345  0.00  0.00    +0.000 N 
ATOM     24  N   UNL     1       0.065  13.512  21.143  0.00  0.00    +0.000 NA
ATOM     25  H   UNL     1      -0.059  15.072  22.506  0.00  0.00    +0.000 HD
ENDBRANCH  19  20
ENDBRANCH  18  19
ENDBRANCH  15  18
ENDBRANCH   9  12
BRANCH   8  26
ATOM     26  C   UNL     1       1.814   4.150  17.874  0.00  0.00    +0.000 C 
ATOM     27  O   UNL     1       0.865   4.325  17.109  0.00  0.00    +0.000 OA
ATOM     28  N   UNL     1       1.666   3.252  18.953  0.00  0.00    +0.000 N 
ATOM     29  C   UNL     1       2.613   2.936  20.017  0.00  0.00    +0.000 C 
ATOM     30  C   UNL     1       0.398   2.547  19.070  0.00  0.00    +0.000 C 
ENDBRANCH   8  26
TORSDOF 5
ENDMDL
MODEL 4
REMARK VINA RESULT:      -8.3      0.683      1.241
REMARK  Name = 
REMARK  9 active torsions:
REMARK  status: ('A' for Active; 'I' for Inactive)
REMARK    1  A    between atoms: C_1  and  C_2
REMARK    2  A    between atoms: C_4  and  C_5
REMARK    3  A    between atoms: C_8  and  C_9
REMARK    4  A    between atoms: N_11  and  C_12
REMARK    5  A    between atoms: N_11  and  C_13
REMARK    6  A    between atoms: C_14  and  C_15
REMARK    7  A    between atoms: C_18  and  C_19
REMARK    8  A    between atoms: C_19  and  C_20
REMARK    9  A    between atoms: C_20  and  C_21
REMARK                            x       y       z     vdW  Elec       q    Type
REMARK                         _______ _______ _______ _____ _____    ______ ____
ROOT
ATOM      1  C   UNL     1       7.876   8.950  17.625  0.00  0.00    +0.000 C 
ATOM      2  C   UNL     1       7.042   7.720  17.420  0.00  0.00    +0.000 A 
ATOM      3  C   UNL     1       7.600   6.566  16.885  0.00  0.00    +0.000 A 
ATOM      4  C   UNL     1       6.847   5.392  16.735  0.00  0.00    +0.000 A 
ATOM      5  C   UNL     1       7.483   4.173  16.120  0.00  0.00    +0.000 C 
ATOM      6  C   UNL     1       5.499   5.402  17.177  0.00  0.00    +0.000 A 
ATOM      7  S   UNL     1       4.437   4.060  17.215  0.00  0.00    +0.000 S 
ATOM      8  C   UNL     1       3.087   4.980  17.716  0.00  0.00    +0.000 A 
ATOM      9  C   UNL     1       3.470   6.290  18.045  0.00  0.00    +0.000 A 
ATOM     10  C   UNL     1       4.879   6.544  17.688  0.00  0.00    +0.000 A 
ATOM     11  C   UNL     1       5.686   7.717  17.785  0.00  0.00    +0.000 A 
ENDROOT
BRANCH   9  12
ATOM     12  C   UNL     1       2.564   7.276  18.695  0.00  0.00    +0.000 A 
ATOM     13  C   UNL     1       2.194   7.114  20.042  0.00  0.00    +0.000 A 
ATOM     14  C   UNL     1       1.381   8.046  20.702  0.00  0.00    +0.000 A 
ATOM     15  C   UNL     1       0.862   9.148  20.019  0.00  0.00    +0.000 A 
ATOM     16  C   UNL     1       1.183   9.296  18.664  0.00  0.00    +0.000 A 
ATOM     17  C   UNL     1       2.044   8.389  18.023  0.00  0.00    +0.000 A 
BRANCH  15  18
ATOM     18  C   UNL     1      -0.041  10.137  20.717  0.00  0.00    +0.000 C 
BRANCH  18  19
ATOM     19  C   UNL     1      -0.147  11.472  19.975  0.00  0.00    +0.000 C 
BRANCH  19  20
ATOM     20  C   UNL     1      -1.532  11.727  19.498  0.00  0.00    +0.000 A 
ATOM     21  N   UNL     1      -2.029  11.194  18.344  0.00  0.00    +0.000 NA
ATOM     22  N   UNL     1      -3.278  11.626  18.243  0.00  0.00    +0.000 NA
ATOM     23  N   UNL     1      -3.467  12.388  19.329  0.00  0.00    +0.000 N 
ATOM     24  N   UNL     1      -2.413  12.499  20.153  0.00  0.00    +0.000 NA
ATOM     25  H   UNL     1      -4.349  12.865  19.503  0.00  0.00    +0.000 HD
ENDBRANCH  19  20
ENDBRANCH  18  19
ENDBRANCH  15  18
ENDBRANCH   9  12
BRANCH   8  26
ATOM     26  C   UNL     1       1.816   4.281  17.964  0.00  0.00    +0.000 C 
ATOM     27  O   UNL     1       0.925   4.336  17.115  0.00  0.00    +0.000 OA
ATOM     28  N   UNL     1       1.594   3.533  19.140  0.00  0.00    +0.000 N 
ATOM     29  C   UNL     1       2.461   3.378  20.302  0.00  0.00    +0.000 C 
ATOM     30  C   UNL     1       0.326   2.828  19.258  0.00  0.00    +0.000 C 
ENDBRANCH   8  26
TORSDOF 5
ENDMDL
MODEL 5
REMARK VINA RESULT:      -8.2      1.499      1.949
REMARK  Name = 
REMARK  9 active torsions:
REMARK  status: ('A' for Active; 'I' for Inactive)
REMARK    1  A    between atoms: C_1  and  C_2
REMARK    2  A    between atoms: C_4  and  C_5
REMARK    3  A    between atoms: C_8  and  C_9
REMARK    4  A    between atoms: N_11  and  C_12
REMARK    5  A    between atoms: N_11  and  C_13
REMARK    6  A    between atoms: C_14  and  C_15
REMARK    7  A    between atoms: C_18  and  C_19
REMARK    8  A    between atoms: C_19  and  C_20
REMARK    9  A    between atoms: C_20  and  C_21
REMARK                            x       y       z     vdW  Elec       q    Type
REMARK                         _______ _______ _______ _____ _____    ______ ____
ROOT
ATOM      1  C   UNL     1       7.844   8.733  17.670  0.00  0.00    +0.000 C 
ATOM      2  C   UNL     1       6.987   7.537  17.376  0.00  0.00    +0.000 A 
ATOM      3  C   UNL     1       7.498   6.455  16.672  0.00  0.00    +0.000 A 
ATOM      4  C   UNL     1       6.725   5.308  16.433  0.00  0.00    +0.000 A 
ATOM      5  C   UNL     1       7.308   4.170  15.637  0.00  0.00    +0.000 C 
ATOM      6  C   UNL     1       5.409   5.268  16.961  0.00  0.00    +0.000 A 
ATOM      7  S   UNL     1       4.339   3.933  16.908  0.00  0.00    +0.000 S 
ATOM      8  C   UNL     1       3.033   4.788  17.604  0.00  0.00    +0.000 A 
ATOM      9  C   UNL     1       3.449   6.050  18.061  0.00  0.00    +0.000 A 
ATOM     10  C   UNL     1       4.834   6.342  17.644  0.00  0.00    +0.000 A 
ATOM     11  C   UNL     1       5.657   7.494  17.826  0.00  0.00    +0.000 A 
ENDROOT
BRANCH   9  12
ATOM     12  C   UNL     1       2.598   6.953  18.881  0.00  0.00    +0.000 A 
ATOM     13  C   UNL     1       2.223   6.579  20.184  0.00  0.00    +0.000 A 
ATOM     14  C   UNL     1       1.460   7.423  21.004  0.00  0.00    +0.000 A 
ATOM     15  C   UNL     1       0.998   8.651  20.528  0.00  0.00    +0.000 A 
ATOM     16  C   UNL     1       1.323   9.015  19.216  0.00  0.00    +0.000 A 
ATOM     17  C   UNL     1       2.134   8.190  18.417  0.00  0.00    +0.000 A 
BRANCH  15  18
ATOM     18  C   UNL     1       0.149   9.548  21.396  0.00  0.00    +0.000 C 
BRANCH  18  19
ATOM     19  C   UNL     1      -0.285  10.831  20.681  0.00  0.00    +0.000 C 
BRANCH  19  20
ATOM     20  C   UNL     1      -0.960  11.776  21.610  0.00  0.00    +0.000 A 
ATOM     21  N   UNL     1      -2.074  12.485  21.265  0.00  0.00    +0.000 NA
ATOM     22  N   UNL     1      -2.397  13.209  22.327  0.00  0.00    +0.000 NA
ATOM     23  N   UNL     1      -1.472  12.902  23.246  0.00  0.00    +0.000 N 
ATOM     24  N   UNL     1      -0.539  12.017  22.861  0.00  0.00    +0.000 NA
ATOM     25  H   UNL     1      -1.470  13.331  24.169  0.00  0.00    +0.000 HD
ENDBRANCH  19  20
ENDBRANCH  18  19
ENDBRANCH  15  18
ENDBRANCH   9  12
BRANCH   8  26
ATOM     26  C   UNL     1       1.774   4.068  17.850  0.00  0.00    +0.000 C 
ATOM     27  O   UNL     1       0.818   4.253  17.095  0.00  0.00    +0.000 OA
ATOM     28  N   UNL     1       1.635   3.155  18.918  0.00  0.00    +0.000 N 
ATOM     29  C   UNL     1       2.590   2.825  19.969  0.00  0.00    +0.000 C 
ATOM     30  C   UNL     1       0.368   2.447  19.034  0.00  0.00    +0.000 C 
ENDBRANCH   8  26
TORSDOF 5
ENDMDL
MODEL 6
REMARK VINA RESULT:      -7.8      0.928      1.524
REMARK  Name = 
REMARK  9 active torsions:
REMARK  status: ('A' for Active; 'I' for Inactive)
REMARK    1  A    between atoms: C_1  and  C_2
REMARK    2  A    between atoms: C_4  and  C_5
REMARK    3  A    between atoms: C_8  and  C_9
REMARK    4  A    between atoms: N_11  and  C_12
REMARK    5  A    between atoms: N_11  and  C_13
REMARK    6  A    between atoms: C_14  and  C_15
REMARK    7  A    between atoms: C_18  and  C_19
REMARK    8  A    between atoms: C_19  and  C_20
REMARK    9  A    between atoms: C_20  and  C_21
REMARK                            x       y       z     vdW  Elec       q    Type
REMARK                         _______ _______ _______ _____ _____    ______ ____
ROOT
ATOM      1  C   UNL     1       7.869   8.801  17.646  0.00  0.00    +0.000 C 
ATOM      2  C   UNL     1       7.026   7.585  17.402  0.00  0.00    +0.000 A 
ATOM      3  C   UNL     1       7.567   6.454  16.804  0.00  0.00    +0.000 A 
ATOM      4  C   UNL     1       6.804   5.292  16.615  0.00  0.00    +0.000 A 
ATOM      5  C   UNL     1       7.422   4.099  15.934  0.00  0.00    +0.000 C 
ATOM      6  C   UNL     1       5.466   5.287  17.085  0.00  0.00    +0.000 A 
ATOM      7  S   UNL     1       4.398   3.950  17.083  0.00  0.00    +0.000 S 
ATOM      8  C   UNL     1       3.063   4.851  17.652  0.00  0.00    +0.000 A 
ATOM      9  C   UNL     1       3.459   6.144  18.033  0.00  0.00    +0.000 A 
ATOM     10  C   UNL     1       4.861   6.407  17.659  0.00  0.00    +0.000 A 
ATOM     11  C   UNL     1       5.677   7.571  17.793  0.00  0.00    +0.000 A 
ENDROOT
BRANCH   9  12
ATOM     12  C   UNL     1       2.571   7.103  18.745  0.00  0.00    +0.000 A 
ATOM     13  C   UNL     1       2.196   6.862  20.078  0.00  0.00    +0.000 A 
ATOM     14  C   UNL     1       1.400   7.764  20.797  0.00  0.00    +0.000 A 
ATOM     15  C   UNL     1       0.904   8.917  20.186  0.00  0.00    +0.000 A 
ATOM     16  C   UNL     1       1.229   9.146  18.844  0.00  0.00    +0.000 A 
ATOM     17  C   UNL     1       2.073   8.266  18.145  0.00  0.00    +0.000 A 
BRANCH  15  18
ATOM     18  C   UNL     1       0.018   9.877  20.946  0.00  0.00    +0.000 C 
BRANCH  18  19
ATOM     19  C   UNL     1       0.805  10.999  21.628  0.00  0.00    +0.000 C 
BRANCH  19  20
ATOM     20  C   UNL     1       0.536  12.319  20.998  0.00  0.00    +0.000 A 
ATOM     21  N   UNL     1      -0.210  12.462  19.864  0.00  0.00    +0.000 NA
ATOM     22  N   UNL     1      -0.241  13.760  19.600  0.00  0.00    +0.000 NA
ATOM     23  N   UNL     1       0.478  14.327  20.579  0.00  0.00    +0.000 N 
ATOM     24  N   UNL     1       0.999  13.481  21.483  0.00  0.00    +0.000 NA
ATOM     25  H   UNL     1       0.633  15.332  20.618  0.00  0.00    +0.000 HD
ENDBRANCH  19  20
ENDBRANCH  18  19
ENDBRANCH  15  18
ENDBRANCH   9  12
BRANCH   8  26
ATOM     26  C   UNL     1       1.793   4.148  17.893  0.00  0.00    +0.000 C 
ATOM     27  O   UNL     1       0.872   4.276  17.086  0.00  0.00    +0.000 OA
ATOM     28  N   UNL     1       1.606   3.312  19.016  0.00  0.00    +0.000 N 
ATOM     29  C   UNL     1       2.513   3.059  20.129  0.00  0.00    +0.000 C 
ATOM     30  C   UNL     1       0.334   2.612  19.127  0.00  0.00    +0.000 C 
ENDBRANCH   8  26
TORSDOF 5
ENDMDL
MODEL 7
REMARK VINA RESULT:      -7.7      1.616      2.078
REMARK  Name = 
REMARK  9 active torsions:
REMARK  status: ('A' for Active; 'I' for Inactive)
REMARK    1  A    between atoms: C_1  and  C_2
REMARK    2  A    between atoms: C_4  and  C_5
REMARK    3  A    between atoms: C_8  and  C_9
REMARK    4  A    between atoms: N_11  and  C_12
REMARK    5  A    between atoms: N_11  and  C_13
REMARK    6  A    between atoms: C_14  and  C_15
REMARK    7  A    between atoms: C_18  and  C_19
REMARK    8  A    between atoms: C_19  and  C_20
REMARK    9  A    between atoms: C_20  and  C_21
REMARK                            x       y       z     vdW  Elec       q    Type
REMARK                         _______ _______ _______ _____ _____    ______ ____
ROOT
ATOM      1  C   UNL     1       7.921   9.010  17.572  0.00  0.00    +0.000 C 
ATOM      2  C   UNL     1       7.101   7.758  17.465  0.00  0.00    +0.000 A 
ATOM      3  C   UNL     1       7.690   6.553  17.108  0.00  0.00    +0.000 A 
ATOM      4  C   UNL     1       6.947   5.364  17.053  0.00  0.00    +0.000 A 
ATOM      5  C   UNL     1       7.620   4.085  16.630  0.00  0.00    +0.000 C 
ATOM      6  C   UNL     1       5.575   5.417  17.408  0.00  0.00    +0.000 A 
ATOM      7  S   UNL     1       4.512   4.082  17.541  0.00  0.00    +0.000 S 
ATOM      8  C   UNL     1       3.134   5.045  17.845  0.00  0.00    +0.000 A 
ATOM      9  C   UNL     1       3.496   6.389  18.037  0.00  0.00    +0.000 A 
ATOM     10  C   UNL     1       4.924   6.608  17.739  0.00  0.00    +0.000 A 
ATOM     11  C   UNL     1       5.725   7.790  17.743  0.00  0.00    +0.000 A 
ENDROOT
BRANCH   9  12
ATOM     12  C   UNL     1       2.552   7.439  18.507  0.00  0.00    +0.000 A 
ATOM     13  C   UNL     1       2.204   7.518  19.867  0.00  0.00    +0.000 A 
ATOM     14  C   UNL     1       1.355   8.521  20.355  0.00  0.00    +0.000 A 
ATOM     15  C   UNL     1       0.779   9.451  19.487  0.00  0.00    +0.000 A 
ATOM     16  C   UNL     1       1.080   9.355  18.123  0.00  0.00    +0.000 A 
ATOM     17  C   UNL     1       1.975   8.382  17.647  0.00  0.00    +0.000 A 
BRANCH  15  18
ATOM     18  C   UNL     1      -0.162  10.513  20.003  0.00  0.00    +0.000 C 
BRANCH  18  19
ATOM     19  C   UNL     1      -0.356  10.450  21.521  0.00  0.00    +0.000 C 
BRANCH  19  20
ATOM     20  C   UNL     1      -1.167  11.592  22.019  0.00  0.00    +0.000 A 
ATOM     21  N   UNL     1      -1.082  12.059  23.299  0.00  0.00    +0.000 NA
ATOM     22  N   UNL     1      -1.933  13.072  23.382  0.00  0.00    +0.000 NA
ATOM     23  N   UNL     1      -2.480  13.163  22.161  0.00  0.00    +0.000 N 
ATOM     24  N   UNL     1      -2.050  12.262  21.262  0.00  0.00    +0.000 NA
ATOM     25  H   UNL     1      -3.189  13.859  21.941  0.00  0.00    +0.000 HD
ENDBRANCH  19  20
ENDBRANCH  18  19
ENDBRANCH  15  18
ENDBRANCH   9  12
BRANCH   8  26
ATOM     26  C   UNL     1       1.849   4.373  18.096  0.00  0.00    +0.000 C 
ATOM     27  O   UNL     1       1.022   4.298  17.187  0.00  0.00    +0.000 OA
ATOM     28  N   UNL     1       1.544   3.793  19.347  0.00  0.00    +0.000 N 
ATOM     29  C   UNL     1       2.325   3.813  20.578  0.00  0.00    +0.000 C 
ATOM     30  C   UNL     1       0.272   3.096  19.471  0.00  0.00    +0.000 C 
ENDBRANCH   8  26
TORSDOF 5
ENDMDL
MODEL 8
REMARK VINA RESULT:      -7.6      4.532      8.105
REMARK  Name = 
REMARK  9 active torsions:
REMARK  status: ('A' for Active; 'I' for Inactive)
REMARK    1  A    between atoms: C_1  and  C_2
REMARK    2  A    between atoms: C_4  and  C_5
REMARK    3  A    between atoms: C_8  and  C_9
REMARK    4  A    between atoms: N_11  and  C_12
REMARK    5  A    between atoms: N_11  and  C_13
REMARK    6  A    between atoms: C_14  and  C_15
REMARK    7  A    between atoms: C_18  and  C_19
REMARK    8  A    between atoms: C_19  and  C_20
REMARK    9  A    between atoms: C_20  and  C_21
REMARK                            x       y       z     vdW  Elec       q    Type
REMARK                         _______ _______ _______ _____ _____    ______ ____
ROOT
ATOM      1  C   UNL     1       2.172  10.464  17.532  0.00  0.00    +0.000 C 
ATOM      2  C   UNL     1       2.237   9.201  18.339  0.00  0.00    +0.000 A 
ATOM      3  C   UNL     1       1.468   9.051  19.486  0.00  0.00    +0.000 A 
ATOM      4  C   UNL     1       1.480   7.857  20.222  0.00  0.00    +0.000 A 
ATOM      5  C   UNL     1       0.655   7.749  21.477  0.00  0.00    +0.000 C 
ATOM      6  C   UNL     1       2.277   6.785  19.744  0.00  0.00    +0.000 A 
ATOM      7  S   UNL     1       2.344   5.205  20.398  0.00  0.00    +0.000 S 
ATOM      8  C   UNL     1       3.587   4.684  19.347  0.00  0.00    +0.000 A 
ATOM      9  C   UNL     1       3.839   5.647  18.356  0.00  0.00    +0.000 A 
ATOM     10  C   UNL     1       3.096   6.894  18.618  0.00  0.00    +0.000 A 
ATOM     11  C   UNL     1       3.068   8.145  17.931  0.00  0.00    +0.000 A 
ENDROOT
BRANCH   9  12
ATOM     12  C   UNL     1       4.725   5.412  17.184  0.00  0.00    +0.000 A 
ATOM     13  C   UNL     1       5.830   6.251  16.955  0.00  0.00    +0.000 A 
ATOM     14  C   UNL     1       6.714   6.034  15.889  0.00  0.00    +0.000 A 
ATOM     15  C   UNL     1       6.491   5.000  14.979  0.00  0.00    +0.000 A 
ATOM     16  C   UNL     1       5.367   4.186  15.166  0.00  0.00    +0.000 A 
ATOM     17  C   UNL     1       4.516   4.374  16.268  0.00  0.00    +0.000 A 
BRANCH  15  18
ATOM     18  C   UNL     1       7.422   4.782  13.809  0.00  0.00    +0.000 C 
BRANCH  18  19
ATOM     19  C   UNL     1       6.690   4.743  12.465  0.00  0.00    +0.000 C 
BRANCH  19  20
ATOM     20  C   UNL     1       6.570   3.355  11.945  0.00  0.00    +0.000 A 
ATOM     21  N   UNL     1       7.623   2.669  11.414  0.00  0.00    +0.000 NA
ATOM     22  N   UNL     1       7.154   1.480  11.065  0.00  0.00    +0.000 NA
ATOM     23  N   UNL     1       5.857   1.510  11.401  0.00  0.00    +0.000 N 
ATOM     24  N   UNL     1       5.424   2.657  11.951  0.00  0.00    +0.000 NA
ATOM     25  H   UNL     1       5.239   0.719  11.230  0.00  0.00    +0.000 HD
ENDBRANCH  19  20
ENDBRANCH  18  19
ENDBRANCH  15  18
ENDBRANCH   9  12
BRANCH   8  26
ATOM     26  C   UNL     1       4.048   3.290  19.442  0.00  0.00    +0.000 C 
ATOM     27  O   UNL     1       5.090   3.041  20.049  0.00  0.00    +0.000 OA
ATOM     28  N   UNL     1       3.318   2.224  18.872  0.00  0.00    +0.000 N 
ATOM     29  C   UNL     1       2.108   2.275  18.060  0.00  0.00    +0.000 C 
ATOM     30  C   UNL     1       3.828   0.876  19.079  0.00  0.00    +0.000 C 
ENDBRANCH   8  26
TORSDOF 5
ENDMDL
MODEL 9
REMARK VINA RESULT:      -7.1      8.388     10.752
REMARK  Name = 
REMARK  9 active torsions:
REMARK  status: ('A' for Active; 'I' for Inactive)
REMARK    1  A    between atoms: C_1  and  C_2
REMARK    2  A    between atoms: C_4  and  C_5
REMARK    3  A    between atoms: C_8  and  C_9
REMARK    4  A    between atoms: N_11  and  C_12
REMARK    5  A    between atoms: N_11  and  C_13
REMARK    6  A    between atoms: C_14  and  C_15
REMARK    7  A    between atoms: C_18  and  C_19
REMARK    8  A    between atoms: C_19  and  C_20
REMARK    9  A    between atoms: C_20  and  C_21
REMARK                            x       y       z     vdW  Elec       q    Type
REMARK                         _______ _______ _______ _____ _____    ______ ____
ROOT
ATOM      1  C   UNL     1       8.847   9.311  18.779  0.00  0.00    +0.000 C 
ATOM      2  C   UNL     1       9.435  10.641  19.147  0.00  0.00    +0.000 A 
ATOM      3  C   UNL     1      10.343  11.272  18.306  0.00  0.00    +0.000 A 
ATOM      4  C   UNL     1      10.862  12.539  18.612  0.00  0.00    +0.000 A 
ATOM      5  C   UNL     1      11.868  13.173  17.688  0.00  0.00    +0.000 C 
ATOM      6  C   UNL     1      10.408  13.180  19.793  0.00  0.00    +0.000 A 
ATOM      7  S   UNL     1      10.800  14.769  20.296  0.00  0.00    +0.000 S 
ATOM      8  C   UNL     1       9.983  14.635  21.791  0.00  0.00    +0.000 A 
ATOM      9  C   UNL     1       9.240  13.444  21.849  0.00  0.00    +0.000 A 
ATOM     10  C   UNL     1       9.526  12.576  20.691  0.00  0.00    +0.000 A 
ATOM     11  C   UNL     1       9.059  11.272  20.344  0.00  0.00    +0.000 A 
ENDROOT
BRANCH   9  12
ATOM     12  C   UNL     1       8.273  13.127  22.934  0.00  0.00    +0.000 A 
ATOM     13  C   UNL     1       8.697  12.422  24.075  0.00  0.00    +0.000 A 
ATOM     14  C   UNL     1       7.827  12.145  25.138  0.00  0.00    +0.000 A 
ATOM     15  C   UNL     1       6.483  12.517  25.074  0.00  0.00    +0.000 A 
ATOM     16  C   UNL     1       6.036  13.178  23.924  0.00  0.00    +0.000 A 
ATOM     17  C   UNL     1       6.924  13.502  22.885  0.00  0.00    +0.000 A 
BRANCH  15  18
ATOM     18  C   UNL     1       5.534  12.192  26.203  0.00  0.00    +0.000 C 
BRANCH  18  19
ATOM     19  C   UNL     1       5.936  10.932  26.974  0.00  0.00    +0.000 C 
BRANCH  19  20
ATOM     20  C   UNL     1       4.750  10.124  27.364  0.00  0.00    +0.000 A 
ATOM     21  N   UNL     1       3.492  10.385  26.903  0.00  0.00    +0.000 NA
ATOM     22  N   UNL     1       2.700   9.473  27.448  0.00  0.00    +0.000 NA
ATOM     23  N   UNL     1       3.513   8.717  28.200  0.00  0.00    +0.000 N 
ATOM     24  N   UNL     1       4.807   9.074  28.197  0.00  0.00    +0.000 NA
ATOM     25  H   UNL     1       3.163   7.936  28.751  0.00  0.00    +0.000 HD
ENDBRANCH  19  20
ENDBRANCH  18  19
ENDBRANCH  15  18
ENDBRANCH   9  12
BRANCH   8  26
ATOM     26  C   UNL     1       9.954  15.805  22.682  0.00  0.00    +0.000 C 
ATOM     27  O   UNL     1      10.802  15.907  23.569  0.00  0.00    +0.000 OA
ATOM     28  N   UNL     1       8.990  16.827  22.538  0.00  0.00    +0.000 N 
ATOM     29  C   UNL     1       7.861  16.896  21.618  0.00  0.00    +0.000 C 
ATOM     30  C   UNL     1       9.089  17.973  23.430  0.00  0.00    +0.000 C 
ENDBRANCH   8  26
TORSDOF 5
ENDMDL
