MODEL 1
REMARK VINA RESULT:      -7.3      0.000      0.000
REMARK  Name = 
REMARK  4 active torsions:
REMARK  status: ('A' for Active; 'I' for Inactive)
REMARK    1  A    between atoms: C_1  and  O_2
REMARK    2  A    between atoms: O_2  and  C_3
REMARK    3  A    between atoms: N_10  and  C_11
REMARK    4  A    between atoms: C_15  and  C_16
REMARK                            x       y       z     vdW  Elec       q    Type
REMARK                         _______ _______ _______ _____ _____    ______ ____
ROOT
ATOM      1  C   UNL     1       1.857   4.617  19.357  0.00  0.00    +0.000 C 
ATOM      2  C   UNL     1       1.475   3.161  19.731  0.00  0.00    +0.000 C 
ATOM      3  C   UNL     1       1.376   2.233  18.511  0.00  0.00    +0.000 C 
ATOM      4  C   UNL     1       2.717   2.146  17.772  0.00  0.00    +0.000 C 
ATOM      5  C   UNL     1       3.283   3.504  17.554  0.00  0.00    +0.000 A 
ATOM      6  N   UNL     1       4.239   3.717  16.593  0.00  0.00    +0.000 NA
ATOM      7  C   UNL     1       4.666   4.964  16.633  0.00  0.00    +0.000 A 
ATOM      8  N   UNL     1       5.678   5.463  15.883  0.00  0.00    +0.000 N 
ATOM      9  S   UNL     1       3.838   5.958  17.788  0.00  0.00    +0.000 S 
ATOM     10  C   UNL     1       2.924   4.608  18.298  0.00  0.00    +0.000 A 
ATOM     11  H   UNL     1       6.147   6.304  16.190  0.00  0.00    +0.000 HD
ENDROOT
BRANCH   8  12
ATOM     12  C   UNL     1       6.114   4.938  14.651  0.00  0.00    +0.000 A 
ATOM     13  C   UNL     1       7.389   5.219  14.142  0.00  0.00    +0.000 A 
ATOM     14  C   UNL     1       7.799   4.736  12.900  0.00  0.00    +0.000 A 
ATOM     15  C   UNL     1       6.920   3.990  12.123  0.00  0.00    +0.000 A 
ATOM     16  C   UNL     1       5.632   3.716  12.584  0.00  0.00    +0.000 A 
ATOM     17  C   UNL     1       4.658   2.974  11.714  0.00  0.00    +0.000 C 
ATOM     18  C   UNL     1       5.237   4.184  13.854  0.00  0.00    +0.000 A 
ENDBRANCH   8  12
BRANCH   1  20
ATOM     19  C   UNL     1       1.637   6.480  20.833  0.00  0.00    +0.000 C 
ATOM     20  O   UNL     1       2.379   5.317  20.488  0.00  0.00    +0.000 OA
ENDBRANCH   1  20
TORSDOF 2
ENDMDL
MODEL 2
REMARK VINA RESULT:      -7.1      4.478      6.602
REMARK  Name = 
REMARK  4 active torsions:
REMARK  status: ('A' for Active; 'I' for Inactive)
REMARK    1  A    between atoms: C_1  and  O_2
REMARK    2  A    between atoms: O_2  and  C_3
REMARK    3  A    between atoms: N_10  and  C_11
REMARK    4  A    between atoms: C_15  and  C_16
REMARK                            x       y       z     vdW  Elec       q    Type
REMARK                         _______ _______ _______ _____ _____    ______ ____
ROOT
ATOM      1  C   UNL     1       0.051  11.057  19.985  0.00  0.00    +0.000 C 
ATOM      2  C   UNL     1      -0.042  11.287  21.515  0.00  0.00    +0.000 C 
ATOM      3  C   UNL     1      -0.272   9.990  22.306  0.00  0.00    +0.000 C 
ATOM      4  C   UNL     1       0.880   9.001  22.092  0.00  0.00    +0.000 C 
ATOM      5  C   UNL     1       1.198   8.872  20.644  0.00  0.00    +0.000 A 
ATOM      6  N   UNL     1       1.889   7.785  20.174  0.00  0.00    +0.000 NA
ATOM      7  C   UNL     1       2.141   7.917  18.887  0.00  0.00    +0.000 A 
ATOM      8  N   UNL     1       2.893   7.064  18.149  0.00  0.00    +0.000 N 
ATOM      9  S   UNL     1       1.451   9.340  18.174  0.00  0.00    +0.000 S 
ATOM     10  C   UNL     1       0.858   9.820  19.703  0.00  0.00    +0.000 A 
ATOM     11  H   UNL     1       3.298   7.391  17.283  0.00  0.00    +0.000 HD
ENDROOT
BRANCH   8  12
ATOM     12  C   UNL     1       3.123   5.709  18.458  0.00  0.00    +0.000 A 
ATOM     13  C   UNL     1       4.417   5.215  18.677  0.00  0.00    +0.000 A 
ATOM     14  C   UNL     1       4.645   3.865  18.935  0.00  0.00    +0.000 A 
ATOM     15  C   UNL     1       3.581   2.971  18.940  0.00  0.00    +0.000 A 
ATOM     16  C   UNL     1       2.283   3.421  18.696  0.00  0.00    +0.000 A 
ATOM     17  C   UNL     1       1.143   2.446  18.628  0.00  0.00    +0.000 C 
ATOM     18  C   UNL     1       2.059   4.794  18.465  0.00  0.00    +0.000 A 
ENDBRANCH   8  12
BRANCH   1  20
ATOM     19  C   UNL     1      -0.174  12.958  18.558  0.00  0.00    +0.000 C 
ATOM     20  O   UNL     1       0.701  12.153  19.339  0.00  0.00    +0.000 OA
ENDBRANCH   1  20
TORSDOF 2
ENDMDL
MODEL 3
REMARK VINA RESULT:      -7.0      4.159      8.025
REMARK  Name = 
REMARK  4 active torsions:
REMARK  status: ('A' for Active; 'I' for Inactive)
REMARK    1  A    between atoms: C_1  and  O_2
REMARK    2  A    between atoms: O_2  and  C_3
REMARK    3  A    between atoms: N_10  and  C_11
REMARK    4  A    between atoms: C_15  and  C_16
REMARK                            x       y       z     vdW  Elec       q    Type
REMARK                         _______ _______ _______ _____ _____    ______ ____
ROOT
ATOM      1  C   UNL     1       4.007   3.632  19.351  0.00  0.00    +0.000 C 
ATOM      2  C   UNL     1       3.293   2.393  19.948  0.00  0.00    +0.000 C 
ATOM      3  C   UNL     1       2.694   2.655  21.338  0.00  0.00    +0.000 C 
ATOM      4  C   UNL     1       1.642   3.769  21.286  0.00  0.00    +0.000 C 
ATOM      5  C   UNL     1       2.160   4.942  20.532  0.00  0.00    +0.000 A 
ATOM      6  N   UNL     1       1.588   6.180  20.685  0.00  0.00    +0.000 NA
ATOM      7  C   UNL     1       2.137   7.050  19.860  0.00  0.00    +0.000 A 
ATOM      8  N   UNL     1       1.727   8.331  19.694  0.00  0.00    +0.000 N 
ATOM      9  S   UNL     1       3.452   6.407  18.930  0.00  0.00    +0.000 S 
ATOM     10  C   UNL     1       3.200   4.869  19.629  0.00  0.00    +0.000 A 
ATOM     11  H   UNL     1       1.974   8.818  18.844  0.00  0.00    +0.000 HD
ENDROOT
BRANCH   8  12
ATOM     12  C   UNL     1       1.017   9.086  20.647  0.00  0.00    +0.000 A 
ATOM     13  C   UNL     1       1.050   8.766  22.012  0.00  0.00    +0.000 A 
ATOM     14  C   UNL     1       0.308   9.487  22.946  0.00  0.00    +0.000 A 
ATOM     15  C   UNL     1      -0.516  10.524  22.524  0.00  0.00    +0.000 A 
ATOM     16  C   UNL     1      -0.599  10.851  21.170  0.00  0.00    +0.000 A 
ATOM     17  C   UNL     1      -1.544  11.921  20.705  0.00  0.00    +0.000 C 
ATOM     18  C   UNL     1       0.179  10.135  20.236  0.00  0.00    +0.000 A 
ENDBRANCH   8  12
BRANCH   1  20
ATOM     19  C   UNL     1       2.960   3.060  17.284  0.00  0.00    +0.000 C 
ATOM     20  O   UNL     1       4.141   3.515  17.933  0.00  0.00    +0.000 OA
ENDBRANCH   1  20
TORSDOF 2
ENDMDL
MODEL 4
REMARK VINA RESULT:      -6.9      1.686      2.590
REMARK  Name = 
REMARK  4 active torsions:
REMARK  status: ('A' for Active; 'I' for Inactive)
REMARK    1  A    between atoms: C_1  and  O_2
REMARK    2  A    between atoms: O_2  and  C_3
REMARK    3  A    between atoms: N_10  and  C_11
REMARK    4  A    between atoms: C_15  and  C_16
REMARK                            x       y       z     vdW  Elec       q    Type
REMARK                         _______ _______ _______ _____ _____    ______ ____
ROOT
ATOM      1  C   UNL     1       2.273   4.734  20.704  0.00  0.00    +0.000 C 
ATOM      2  C   UNL     1       1.453   6.048  20.626  0.00  0.00    +0.000 C 
ATOM      3  C   UNL     1       2.230   7.204  19.980  0.00  0.00    +0.000 C 
ATOM      4  C   UNL     1       2.631   6.865  18.540  0.00  0.00    +0.000 C 
ATOM      5  C   UNL     1       3.239   5.509  18.471  0.00  0.00    +0.000 A 
ATOM      6  N   UNL     1       4.023   5.148  17.405  0.00  0.00    +0.000 NA
ATOM      7  C   UNL     1       4.381   3.883  17.500  0.00  0.00    +0.000 A 
ATOM      8  N   UNL     1       5.071   3.196  16.557  0.00  0.00    +0.000 N 
ATOM      9  S   UNL     1       3.853   3.108  18.959  0.00  0.00    +0.000 S 
ATOM     10  C   UNL     1       3.043   4.537  19.428  0.00  0.00    +0.000 A 
ATOM     11  H   UNL     1       5.025   2.186  16.554  0.00  0.00    +0.000 HD
ENDROOT
BRANCH   8  12
ATOM     12  C   UNL     1       5.915   3.771  15.588  0.00  0.00    +0.000 A 
ATOM     13  C   UNL     1       6.806   4.805  15.910  0.00  0.00    +0.000 A 
ATOM     14  C   UNL     1       7.605   5.404  14.938  0.00  0.00    +0.000 A 
ATOM     15  C   UNL     1       7.500   5.005  13.611  0.00  0.00    +0.000 A 
ATOM     16  C   UNL     1       6.602   4.000  13.248  0.00  0.00    +0.000 A 
ATOM     17  C   UNL     1       6.435   3.618  11.806  0.00  0.00    +0.000 C 
ATOM     18  C   UNL     1       5.819   3.379  14.243  0.00  0.00    +0.000 A 
ENDBRANCH   8  12
BRANCH   1  20
ATOM     19  C   UNL     1       1.787   2.756  21.949  0.00  0.00    +0.000 C 
ATOM     20  O   UNL     1       1.415   3.603  20.869  0.00  0.00    +0.000 OA
ENDBRANCH   1  20
TORSDOF 2
ENDMDL
MODEL 5
REMARK VINA RESULT:      -6.9      3.209      7.234
REMARK  Name = 
REMARK  4 active torsions:
REMARK  status: ('A' for Active; 'I' for Inactive)
REMARK    1  A    between atoms: C_1  and  O_2
REMARK    2  A    between atoms: O_2  and  C_3
REMARK    3  A    between atoms: N_10  and  C_11
REMARK    4  A    between atoms: C_15  and  C_16
REMARK                            x       y       z     vdW  Elec       q    Type
REMARK                         _______ _______ _______ _____ _____    ______ ____
ROOT
ATOM      1  C   UNL     1       4.725   3.859  17.391  0.00  0.00    +0.000 C 
ATOM      2  C   UNL     1       3.829   2.602  17.248  0.00  0.00    +0.000 C 
ATOM      3  C   UNL     1       2.673   2.568  18.259  0.00  0.00    +0.000 C 
ATOM      4  C   UNL     1       1.746   3.776  18.078  0.00  0.00    +0.000 C 
ATOM      5  C   UNL     1       2.536   5.033  17.984  0.00  0.00    +0.000 A 
ATOM      6  N   UNL     1       1.946   6.249  18.219  0.00  0.00    +0.000 NA
ATOM      7  C   UNL     1       2.798   7.229  17.992  0.00  0.00    +0.000 A 
ATOM      8  N   UNL     1       2.495   8.549  18.035  0.00  0.00    +0.000 N 
ATOM      9  S   UNL     1       4.394   6.695  17.575  0.00  0.00    +0.000 S 
ATOM     10  C   UNL     1       3.868   5.070  17.634  0.00  0.00    +0.000 A 
ATOM     11  H   UNL     1       3.090   9.205  17.548  0.00  0.00    +0.000 HD
ENDROOT
BRANCH   8  12
ATOM     12  C   UNL     1       1.430   9.115  18.762  0.00  0.00    +0.000 A 
ATOM     13  C   UNL     1       0.471   9.931  18.145  0.00  0.00    +0.000 A 
ATOM     14  C   UNL     1      -0.554  10.528  18.877  0.00  0.00    +0.000 A 
ATOM     15  C   UNL     1      -0.617  10.350  20.254  0.00  0.00    +0.000 A 
ATOM     16  C   UNL     1       0.338   9.569  20.907  0.00  0.00    +0.000 A 
ATOM     17  C   UNL     1       0.314   9.437  22.402  0.00  0.00    +0.000 C 
ATOM     18  C   UNL     1       1.354   8.946  20.154  0.00  0.00    +0.000 A 
ENDBRANCH   8  12
BRANCH   1  20
ATOM     19  C   UNL     1       6.859   4.328  16.430  0.00  0.00    +0.000 C 
ATOM     20  O   UNL     1       5.475   4.093  16.198  0.00  0.00    +0.000 OA
ENDBRANCH   1  20
TORSDOF 2
ENDMDL
MODEL 6
REMARK VINA RESULT:      -6.9      2.727      4.370
REMARK  Name = 
REMARK  4 active torsions:
REMARK  status: ('A' for Active; 'I' for Inactive)
REMARK    1  A    between atoms: C_1  and  O_2
REMARK    2  A    between atoms: O_2  and  C_3
REMARK    3  A    between atoms: N_10  and  C_11
REMARK    4  A    between atoms: C_15  and  C_16
REMARK                            x       y       z     vdW  Elec       q    Type
REMARK                         _______ _______ _______ _____ _____    ______ ____
ROOT
ATOM      1  C   UNL     1       1.097   8.745  20.538  0.00  0.00    +0.000 C 
ATOM      2  C   UNL     1       0.559   9.821  19.559  0.00  0.00    +0.000 C 
ATOM      3  C   UNL     1       1.611  10.289  18.542  0.00  0.00    +0.000 C 
ATOM      4  C   UNL     1       2.094   9.123  17.671  0.00  0.00    +0.000 C 
ATOM      5  C   UNL     1       2.434   7.946  18.514  0.00  0.00    +0.000 A 
ATOM      6  N   UNL     1       3.246   6.951  18.031  0.00  0.00    +0.000 NA
ATOM      7  C   UNL     1       3.341   5.966  18.902  0.00  0.00    +0.000 A 
ATOM      8  N   UNL     1       3.985   4.794  18.684  0.00  0.00    +0.000 N 
ATOM      9  S   UNL     1       2.516   6.265  20.398  0.00  0.00    +0.000 S 
ATOM     10  C   UNL     1       1.950   7.758  19.791  0.00  0.00    +0.000 A 
ATOM     11  H   UNL     1       3.746   3.991  19.249  0.00  0.00    +0.000 HD
ENDROOT
BRANCH   8  12
ATOM     12  C   UNL     1       5.026   4.599  17.756  0.00  0.00    +0.000 A 
ATOM     13  C   UNL     1       6.373   4.683  18.134  0.00  0.00    +0.000 A 
ATOM     14  C   UNL     1       7.400   4.537  17.202  0.00  0.00    +0.000 A 
ATOM     15  C   UNL     1       7.095   4.341  15.860  0.00  0.00    +0.000 A 
ATOM     16  C   UNL     1       5.765   4.282  15.442  0.00  0.00    +0.000 A 
ATOM     17  C   UNL     1       5.435   4.145  13.984  0.00  0.00    +0.000 C 
ATOM     18  C   UNL     1       4.734   4.402  16.396  0.00  0.00    +0.000 A 
ENDBRANCH   8  12
BRANCH   1  20
ATOM     19  C   UNL     1      -0.652   8.741  22.162  0.00  0.00    +0.000 C 
ATOM     20  O   UNL     1       0.025   8.018  21.141  0.00  0.00    +0.000 OA
ENDBRANCH   1  20
TORSDOF 2
ENDMDL
MODEL 7
REMARK VINA RESULT:      -6.9      4.174      6.501
REMARK  Name = 
REMARK  4 active torsions:
REMARK  status: ('A' for Active; 'I' for Inactive)
REMARK    1  A    between atoms: C_1  and  O_2
REMARK    2  A    between atoms: O_2  and  C_3
REMARK    3  A    between atoms: N_10  and  C_11
REMARK    4  A    between atoms: C_15  and  C_16
REMARK                            x       y       z     vdW  Elec       q    Type
REMARK                         _______ _______ _______ _____ _____    ______ ____
ROOT
ATOM      1  C   UNL     1      -0.473  11.005  20.597  0.00  0.00    +0.000 C 
ATOM      2  C   UNL     1      -0.392  10.988  22.145  0.00  0.00    +0.000 C 
ATOM      3  C   UNL     1      -0.316   9.569  22.728  0.00  0.00    +0.000 C 
ATOM      4  C   UNL     1       0.932   8.832  22.227  0.00  0.00    +0.000 C 
ATOM      5  C   UNL     1       1.067   8.974  20.753  0.00  0.00    +0.000 A 
ATOM      6  N   UNL     1       1.844   8.101  20.034  0.00  0.00    +0.000 NA
ATOM      7  C   UNL     1       1.898   8.462  18.768  0.00  0.00    +0.000 A 
ATOM      8  N   UNL     1       2.663   7.867  17.821  0.00  0.00    +0.000 N 
ATOM      9  S   UNL     1       0.913   9.837  18.383  0.00  0.00    +0.000 S 
ATOM     10  C   UNL     1       0.466   9.979  20.026  0.00  0.00    +0.000 A 
ATOM     11  H   UNL     1       2.894   8.382  16.982  0.00  0.00    +0.000 HD
ENDROOT
BRANCH   8  12
ATOM     12  C   UNL     1       3.134   6.541  17.872  0.00  0.00    +0.000 A 
ATOM     13  C   UNL     1       2.257   5.455  18.003  0.00  0.00    +0.000 A 
ATOM     14  C   UNL     1       2.730   4.147  18.101  0.00  0.00    +0.000 A 
ATOM     15  C   UNL     1       4.098   3.904  18.109  0.00  0.00    +0.000 A 
ATOM     16  C   UNL     1       5.002   4.962  18.010  0.00  0.00    +0.000 A 
ATOM     17  C   UNL     1       6.479   4.708  18.092  0.00  0.00    +0.000 C 
ATOM     18  C   UNL     1       4.513   6.279  17.882  0.00  0.00    +0.000 A 
ENDBRANCH   8  12
BRANCH   1  20
ATOM     19  C   UNL     1       1.006  12.872  20.767  0.00  0.00    +0.000 C 
ATOM     20  O   UNL     1      -0.087  12.279  20.076  0.00  0.00    +0.000 OA
ENDBRANCH   1  20
TORSDOF 2
ENDMDL
MODEL 8
REMARK VINA RESULT:      -6.8      3.506      7.088
REMARK  Name = 
REMARK  4 active torsions:
REMARK  status: ('A' for Active; 'I' for Inactive)
REMARK    1  A    between atoms: C_1  and  O_2
REMARK    2  A    between atoms: O_2  and  C_3
REMARK    3  A    between atoms: N_10  and  C_11
REMARK    4  A    between atoms: C_15  and  C_16
REMARK                            x       y       z     vdW  Elec       q    Type
REMARK                         _______ _______ _______ _____ _____    ______ ____
ROOT
ATOM      1  C   UNL     1       4.776   3.999  17.480  0.00  0.00    +0.000 C 
ATOM      2  C   UNL     1       3.898   2.727  17.356  0.00  0.00    +0.000 C 
ATOM      3  C   UNL     1       2.722   2.709  18.343  0.00  0.00    +0.000 C 
ATOM      4  C   UNL     1       1.784   3.899  18.108  0.00  0.00    +0.000 C 
ATOM      5  C   UNL     1       2.561   5.163  17.992  0.00  0.00    +0.000 A 
ATOM      6  N   UNL     1       1.952   6.378  18.179  0.00  0.00    +0.000 NA
ATOM      7  C   UNL     1       2.796   7.361  17.940  0.00  0.00    +0.000 A 
ATOM      8  N   UNL     1       2.476   8.678  17.938  0.00  0.00    +0.000 N 
ATOM      9  S   UNL     1       4.407   6.835  17.572  0.00  0.00    +0.000 S 
ATOM     10  C   UNL     1       3.900   5.207  17.668  0.00  0.00    +0.000 A 
ATOM     11  H   UNL     1       3.074   9.327  17.444  0.00  0.00    +0.000 HD
ENDROOT
BRANCH   8  12
ATOM     12  C   UNL     1       1.389   9.252  18.626  0.00  0.00    +0.000 A 
ATOM     13  C   UNL     1       1.267   9.153  20.019  0.00  0.00    +0.000 A 
ATOM     14  C   UNL     1       0.165   9.680  20.691  0.00  0.00    +0.000 A 
ATOM     15  C   UNL     1      -0.859  10.286  19.973  0.00  0.00    +0.000 A 
ATOM     16  C   UNL     1      -0.787  10.375  18.582  0.00  0.00    +0.000 A 
ATOM     17  C   UNL     1      -1.926  10.962  17.800  0.00  0.00    +0.000 C 
ATOM     18  C   UNL     1       0.346   9.865  17.914  0.00  0.00    +0.000 A 
ENDBRANCH   8  12
BRANCH   1  20
ATOM     19  C   UNL     1       6.934   4.406  16.545  0.00  0.00    +0.000 C 
ATOM     20  O   UNL     1       5.548   4.208  16.296  0.00  0.00    +0.000 OA
ENDBRANCH   1  20
TORSDOF 2
ENDMDL
MODEL 9
REMARK VINA RESULT:      -6.8      4.642      7.379
REMARK  Name = 
REMARK  4 active torsions:
REMARK  status: ('A' for Active; 'I' for Inactive)
REMARK    1  A    between atoms: C_1  and  O_2
REMARK    2  A    between atoms: O_2  and  C_3
REMARK    3  A    between atoms: N_10  and  C_11
REMARK    4  A    between atoms: C_15  and  C_16
REMARK                            x       y       z     vdW  Elec       q    Type
REMARK                         _______ _______ _______ _____ _____    ______ ____
ROOT
ATOM      1  C   UNL     1       0.017  11.784  21.677  0.00  0.00    +0.000 C 
ATOM      2  C   UNL     1      -1.014  12.368  20.676  0.00  0.00    +0.000 C 
ATOM      3  C   UNL     1      -0.653  12.089  19.210  0.00  0.00    +0.000 C 
ATOM      4  C   UNL     1      -0.595  10.582  18.932  0.00  0.00    +0.000 C 
ATOM      5  C   UNL     1       0.204   9.888  19.978  0.00  0.00    +0.000 A 
ATOM      6  N   UNL     1       0.729   8.642  19.744  0.00  0.00    +0.000 NA
ATOM      7  C   UNL     1       1.318   8.176  20.828  0.00  0.00    +0.000 A 
ATOM      8  N   UNL     1       1.843   6.934  20.955  0.00  0.00    +0.000 N 
ATOM      9  S   UNL     1       1.340   9.293  22.154  0.00  0.00    +0.000 S 
ATOM     10  C   UNL     1       0.443  10.415  21.229  0.00  0.00    +0.000 A 
ATOM     11  H   UNL     1       1.978   6.550  21.880  0.00  0.00    +0.000 HD
ENDROOT
BRANCH   8  12
ATOM     12  C   UNL     1       2.285   6.126  19.890  0.00  0.00    +0.000 A 
ATOM     13  C   UNL     1       3.167   6.613  18.914  0.00  0.00    +0.000 A 
ATOM     14  C   UNL     1       3.564   5.825  17.835  0.00  0.00    +0.000 A 
ATOM     15  C   UNL     1       3.053   4.541  17.690  0.00  0.00    +0.000 A 
ATOM     16  C   UNL     1       2.150   4.033  18.624  0.00  0.00    +0.000 A 
ATOM     17  C   UNL     1       1.541   2.674  18.429  0.00  0.00    +0.000 C 
ATOM     18  C   UNL     1       1.777   4.827  19.729  0.00  0.00    +0.000 A 
ENDBRANCH   8  12
BRANCH   1  20
ATOM     19  C   UNL     1      -1.955  11.881  23.019  0.00  0.00    +0.000 C 
ATOM     20  O   UNL     1      -0.552  11.653  22.981  0.00  0.00    +0.000 OA
ENDBRANCH   1  20
TORSDOF 2
ENDMDL
