MODEL 1
REMARK VINA RESULT:      -8.1      0.000      0.000
REMARK  Name = 
REMARK  12 active torsions:
REMARK  status: ('A' for Active; 'I' for Inactive)
REMARK    1  A    between atoms: C_1  and  O_2
REMARK    2  A    between atoms: O_2  and  C_3
REMARK    3  A    between atoms: C_5  and  O_6
REMARK    4  A    between atoms: O_6  and  C_7
REMARK    5  A    between atoms: C_10  and  C_11
REMARK    6  A    between atoms: C_14  and  N_15
REMARK    7  A    between atoms: N_15  and  C_16
REMARK    8  A    between atoms: C_17  and  C_18
REMARK    9  A    between atoms: C_18  and  C_20
REMARK   10  A    between atoms: C_23  and  O_24
REMARK   11  A    between atoms: O_24  and  C_25
REMARK   12  A    between atoms: C_29  and  C_30
REMARK                            x       y       z     vdW  Elec       q    Type
REMARK                         _______ _______ _______ _____ _____    ______ ____
ROOT
ATOM      1  C   UNL     1       0.792   8.818  21.050  0.00  0.00    +0.000 A 
ATOM      2  C   UNL     1      -0.147   8.573  22.053  0.00  0.00    +0.000 A 
ATOM      3  C   UNL     1      -0.810   9.636  22.690  0.00  0.00    +0.000 A 
ATOM      4  C   UNL     1      -0.567  10.987  22.370  0.00  0.00    +0.000 A 
ATOM      5  C   UNL     1       0.390  11.245  21.368  0.00  0.00    +0.000 A 
ATOM      6  C   UNL     1       0.827  12.613  20.919  0.00  0.00    +0.000 C 
ATOM      7  C   UNL     1       1.044  10.160  20.727  0.00  0.00    +0.000 A 
ENDROOT
BRANCH   1  13
ATOM      8  C   UNL     1       3.608   3.752  19.206  0.00  0.00    +0.000 A 
ATOM      9  C   UNL     1       4.066   4.433  18.078  0.00  0.00    +0.000 A 
ATOM     10  C   UNL     1       3.743   5.782  17.857  0.00  0.00    +0.000 A 
ATOM     11  C   UNL     1       2.929   6.425  18.817  0.00  0.00    +0.000 A 
ATOM     12  S   UNL     1       2.347   8.051  18.857  0.00  0.00    +0.000 S 
ATOM     13  C   UNL     1       1.538   7.754  20.343  0.00  0.00    +0.000 A 
ATOM     14  N   UNL     1       1.682   6.525  20.809  0.00  0.00    +0.000 NA
ATOM     15  C   UNL     1       2.454   5.761  19.948  0.00  0.00    +0.000 A 
ATOM     16  C   UNL     1       2.791   4.405  20.132  0.00  0.00    +0.000 A 
BRANCH   8  18
ATOM     17  C   UNL     1       3.570   1.509  18.450  0.00  0.00    +0.000 C 
ATOM     18  O   UNL     1       3.861   2.435  19.491  0.00  0.00    +0.000 OA
ENDBRANCH   8  18
BRANCH  10  19
ATOM     19  O   UNL     1       4.161   6.515  16.778  0.00  0.00    +0.000 OA
ATOM     20  C   UNL     1       5.270   6.025  16.033  0.00  0.00    +0.000 C 
ENDBRANCH  10  19
ENDBRANCH   1  13
BRANCH   4  21
ATOM     21  N   UNL     1      -1.348  11.941  23.057  0.00  0.00    +0.000 N 
ATOM     22  H   UNL     1      -0.855  12.462  23.789  0.00  0.00    +0.000 HD
BRANCH  21  23
ATOM     23  C   UNL     1      -2.705  12.135  23.075  0.00  0.00    +0.000 C 
ATOM     24  C   UNL     1      -3.494  12.662  22.121  0.00  0.00    +0.000 C 
BRANCH  24  25
ATOM     25  C   UNL     1      -2.986  13.184  20.818  0.00  0.00    +0.000 C 
ATOM     26  O   UNL     1      -2.490  14.301  20.718  0.00  0.00    +0.000 OA
BRANCH  25  27
ATOM     27  C   UNL     1      -3.140  12.317  19.611  0.00  0.00    +0.000 A 
ATOM     28  C   UNL     1      -2.005  11.715  19.052  0.00  0.00    +0.000 A 
ATOM     29  C   UNL     1      -2.128  10.863  17.944  0.00  0.00    +0.000 A 
ATOM     30  C   UNL     1      -3.380  10.583  17.387  0.00  0.00    +0.000 A 
ATOM     31  C   UNL     1      -4.505  11.180  17.961  0.00  0.00    +0.000 A 
ATOM     32  F   UNL     1      -5.738  10.945  17.488  0.00  0.00    +0.000 F 
ATOM     33  C   UNL     1      -4.394  12.039  19.059  0.00  0.00    +0.000 A 
BRANCH  30  34
ATOM     34  O   UNL     1      -3.346   9.729  16.319  0.00  0.00    +0.000 OA
ATOM     35  C   UNL     1      -3.035  10.284  15.045  0.00  0.00    +0.000 C 
ENDBRANCH  30  34
ENDBRANCH  25  27
ENDBRANCH  24  25
ENDBRANCH  21  23
ENDBRANCH   4  21
TORSDOF 8
ENDMDL
MODEL 2
REMARK VINA RESULT:      -8.0      1.658      2.878
REMARK  Name = 
REMARK  12 active torsions:
REMARK  status: ('A' for Active; 'I' for Inactive)
REMARK    1  A    between atoms: C_1  and  O_2
REMARK    2  A    between atoms: O_2  and  C_3
REMARK    3  A    between atoms: C_5  and  O_6
REMARK    4  A    between atoms: O_6  and  C_7
REMARK    5  A    between atoms: C_10  and  C_11
REMARK    6  A    between atoms: C_14  and  N_15
REMARK    7  A    between atoms: N_15  and  C_16
REMARK    8  A    between atoms: C_17  and  C_18
REMARK    9  A    between atoms: C_18  and  C_20
REMARK   10  A    between atoms: C_23  and  O_24
REMARK   11  A    between atoms: O_24  and  C_25
REMARK   12  A    between atoms: C_29  and  C_30
REMARK                            x       y       z     vdW  Elec       q    Type
REMARK                         _______ _______ _______ _____ _____    ______ ____
ROOT
ATOM      1  C   UNL     1       1.540   8.557  20.063  0.00  0.00    +0.000 A 
ATOM      2  C   UNL     1       1.329   9.719  19.320  0.00  0.00    +0.000 A 
ATOM      3  C   UNL     1       0.685  10.831  19.892  0.00  0.00    +0.000 A 
ATOM      4  C   UNL     1       0.214  10.837  21.221  0.00  0.00    +0.000 A 
ATOM      5  C   UNL     1       0.410   9.663  21.975  0.00  0.00    +0.000 A 
ATOM      6  C   UNL     1      -0.060   9.452  23.388  0.00  0.00    +0.000 C 
ATOM      7  C   UNL     1       1.071   8.553  21.386  0.00  0.00    +0.000 A 
ENDROOT
BRANCH   1  13
ATOM      8  C   UNL     1       4.601   4.361  16.899  0.00  0.00    +0.000 A 
ATOM      9  C   UNL     1       4.159   3.385  17.792  0.00  0.00    +0.000 A 
ATOM     10  C   UNL     1       3.332   3.709  18.879  0.00  0.00    +0.000 A 
ATOM     11  C   UNL     1       2.968   5.065  19.042  0.00  0.00    +0.000 A 
ATOM     12  S   UNL     1       1.980   5.803  20.252  0.00  0.00    +0.000 S 
ATOM     13  C   UNL     1       2.197   7.346  19.527  0.00  0.00    +0.000 A 
ATOM     14  N   UNL     1       2.951   7.339  18.441  0.00  0.00    +0.000 NA
ATOM     15  C   UNL     1       3.403   6.058  18.165  0.00  0.00    +0.000 A 
ATOM     16  C   UNL     1       4.240   5.696  17.090  0.00  0.00    +0.000 A 
BRANCH   8  18
ATOM     17  C   UNL     1       6.736   4.671  15.924  0.00  0.00    +0.000 C 
ATOM     18  O   UNL     1       5.421   4.136  15.823  0.00  0.00    +0.000 OA
ENDBRANCH   8  18
BRANCH  10  19
ATOM     19  O   UNL     1       2.856   2.804  19.791  0.00  0.00    +0.000 OA
ATOM     20  C   UNL     1       1.807   1.936  19.378  0.00  0.00    +0.000 C 
ENDBRANCH  10  19
ENDBRANCH   1  13
BRANCH   4  21
ATOM     21  N   UNL     1      -0.362  12.043  21.672  0.00  0.00    +0.000 N 
ATOM     22  H   UNL     1      -0.764  12.008  22.614  0.00  0.00    +0.000 HD
BRANCH  21  23
ATOM     23  C   UNL     1      -0.682  13.189  20.989  0.00  0.00    +0.000 C 
ATOM     24  C   UNL     1      -1.830  13.505  20.364  0.00  0.00    +0.000 C 
BRANCH  24  25
ATOM     25  C   UNL     1      -3.007  12.592  20.277  0.00  0.00    +0.000 C 
ATOM     26  O   UNL     1      -3.745  12.394  21.237  0.00  0.00    +0.000 OA
BRANCH  25  27
ATOM     27  C   UNL     1      -3.244  11.879  18.986  0.00  0.00    +0.000 A 
ATOM     28  C   UNL     1      -4.449  12.086  18.301  0.00  0.00    +0.000 A 
ATOM     29  C   UNL     1      -4.677  11.461  17.065  0.00  0.00    +0.000 A 
ATOM     30  C   UNL     1      -3.707  10.637  16.485  0.00  0.00    +0.000 A 
ATOM     31  C   UNL     1      -2.506  10.449  17.172  0.00  0.00    +0.000 A 
ATOM     32  F   UNL     1      -1.525   9.684  16.669  0.00  0.00    +0.000 F 
ATOM     33  C   UNL     1      -2.270  11.057  18.409  0.00  0.00    +0.000 A 
BRANCH  30  34
ATOM     34  O   UNL     1      -4.066  10.106  15.276  0.00  0.00    +0.000 OA
ATOM     35  C   UNL     1      -3.085  10.106  14.244  0.00  0.00    +0.000 C 
ENDBRANCH  30  34
ENDBRANCH  25  27
ENDBRANCH  24  25
ENDBRANCH  21  23
ENDBRANCH   4  21
TORSDOF 8
ENDMDL
MODEL 3
REMARK VINA RESULT:      -8.0      1.351      2.391
REMARK  Name = 
REMARK  12 active torsions:
REMARK  status: ('A' for Active; 'I' for Inactive)
REMARK    1  A    between atoms: C_1  and  O_2
REMARK    2  A    between atoms: O_2  and  C_3
REMARK    3  A    between atoms: C_5  and  O_6
REMARK    4  A    between atoms: O_6  and  C_7
REMARK    5  A    between atoms: C_10  and  C_11
REMARK    6  A    between atoms: C_14  and  N_15
REMARK    7  A    between atoms: N_15  and  C_16
REMARK    8  A    between atoms: C_17  and  C_18
REMARK    9  A    between atoms: C_18  and  C_20
REMARK   10  A    between atoms: C_23  and  O_24
REMARK   11  A    between atoms: O_24  and  C_25
REMARK   12  A    between atoms: C_29  and  C_30
REMARK                            x       y       z     vdW  Elec       q    Type
REMARK                         _______ _______ _______ _____ _____    ______ ____
ROOT
ATOM      1  C   UNL     1       1.049   8.575  20.817  0.00  0.00    +0.000 A 
ATOM      2  C   UNL     1       0.081   8.327  21.791  0.00  0.00    +0.000 A 
ATOM      3  C   UNL     1      -0.567   9.389  22.446  0.00  0.00    +0.000 A 
ATOM      4  C   UNL     1      -0.278  10.741  22.172  0.00  0.00    +0.000 A 
ATOM      5  C   UNL     1       0.708  11.002  21.199  0.00  0.00    +0.000 A 
ATOM      6  C   UNL     1       1.192  12.369  20.801  0.00  0.00    +0.000 C 
ATOM      7  C   UNL     1       1.345   9.918  20.540  0.00  0.00    +0.000 A 
ENDROOT
BRANCH   1  13
ATOM      8  C   UNL     1       4.381   5.158  17.046  0.00  0.00    +0.000 A 
ATOM      9  C   UNL     1       3.986   4.021  17.750  0.00  0.00    +0.000 A 
ATOM     10  C   UNL     1       3.130   4.108  18.859  0.00  0.00    +0.000 A 
ATOM     11  C   UNL     1       2.686   5.393  19.243  0.00  0.00    +0.000 A 
ATOM     12  S   UNL     1       1.644   5.857  20.541  0.00  0.00    +0.000 S 
ATOM     13  C   UNL     1       1.780   7.511  20.095  0.00  0.00    +0.000 A 
ATOM     14  N   UNL     1       2.546   7.732  19.040  0.00  0.00    +0.000 NA
ATOM     15  C   UNL     1       3.074   6.545  18.558  0.00  0.00    +0.000 A 
ATOM     16  C   UNL     1       3.942   6.419  17.455  0.00  0.00    +0.000 A 
BRANCH   8  18
ATOM     17  C   UNL     1       5.731   3.898  15.565  0.00  0.00    +0.000 C 
ATOM     18  O   UNL     1       5.225   5.167  15.965  0.00  0.00    +0.000 OA
ENDBRANCH   8  18
BRANCH  10  19
ATOM     19  O   UNL     1       2.696   3.034  19.593  0.00  0.00    +0.000 OA
ATOM     20  C   UNL     1       3.505   2.605  20.681  0.00  0.00    +0.000 C 
ENDBRANCH  10  19
ENDBRANCH   1  13
BRANCH   4  21
ATOM     21  N   UNL     1      -1.048  11.696  22.870  0.00  0.00    +0.000 N 
ATOM     22  H   UNL     1      -0.552  12.193  23.617  0.00  0.00    +0.000 HD
BRANCH  21  23
ATOM     23  C   UNL     1      -2.401  11.918  22.878  0.00  0.00    +0.000 C 
ATOM     24  C   UNL     1      -3.179  12.423  21.903  0.00  0.00    +0.000 C 
BRANCH  24  25
ATOM     25  C   UNL     1      -2.659  12.885  20.583  0.00  0.00    +0.000 C 
ATOM     26  O   UNL     1      -2.168  14.000  20.435  0.00  0.00    +0.000 OA
BRANCH  25  27
ATOM     27  C   UNL     1      -2.793  11.961  19.416  0.00  0.00    +0.000 A 
ATOM     28  C   UNL     1      -4.021  11.880  18.746  0.00  0.00    +0.000 A 
ATOM     29  C   UNL     1      -4.160  11.052  17.622  0.00  0.00    +0.000 A 
ATOM     30  C   UNL     1      -3.080  10.309  17.137  0.00  0.00    +0.000 A 
ATOM     31  C   UNL     1      -1.858  10.408  17.807  0.00  0.00    +0.000 A 
ATOM     32  F   UNL     1      -0.775   9.735  17.389  0.00  0.00    +0.000 F 
ATOM     33  C   UNL     1      -1.709  11.221  18.934  0.00  0.00    +0.000 A 
BRANCH  30  34
ATOM     34  O   UNL     1      -3.362   9.557  16.029  0.00  0.00    +0.000 OA
ATOM     35  C   UNL     1      -3.007  10.099  14.762  0.00  0.00    +0.000 C 
ENDBRANCH  30  34
ENDBRANCH  25  27
ENDBRANCH  24  25
ENDBRANCH  21  23
ENDBRANCH   4  21
TORSDOF 8
ENDMDL
MODEL 4
REMARK VINA RESULT:      -7.8      2.817      4.737
REMARK  Name = 
REMARK  12 active torsions:
REMARK  status: ('A' for Active; 'I' for Inactive)
REMARK    1  A    between atoms: C_1  and  O_2
REMARK    2  A    between atoms: O_2  and  C_3
REMARK    3  A    between atoms: C_5  and  O_6
REMARK    4  A    between atoms: O_6  and  C_7
REMARK    5  A    between atoms: C_10  and  C_11
REMARK    6  A    between atoms: C_14  and  N_15
REMARK    7  A    between atoms: N_15  and  C_16
REMARK    8  A    between atoms: C_17  and  C_18
REMARK    9  A    between atoms: C_18  and  C_20
REMARK   10  A    between atoms: C_23  and  O_24
REMARK   11  A    between atoms: O_24  and  C_25
REMARK   12  A    between atoms: C_29  and  C_30
REMARK                            x       y       z     vdW  Elec       q    Type
REMARK                         _______ _______ _______ _____ _____    ______ ____
ROOT
ATOM      1  C   UNL     1       1.877   8.326  18.651  0.00  0.00    +0.000 A 
ATOM      2  C   UNL     1       1.291   9.304  17.846  0.00  0.00    +0.000 A 
ATOM      3  C   UNL     1       0.379  10.227  18.386  0.00  0.00    +0.000 A 
ATOM      4  C   UNL     1      -0.001  10.217  19.743  0.00  0.00    +0.000 A 
ATOM      5  C   UNL     1       0.574   9.224  20.562  0.00  0.00    +0.000 A 
ATOM      6  C   UNL     1       0.264   9.015  22.019  0.00  0.00    +0.000 C 
ATOM      7  C   UNL     1       1.502   8.306  20.003  0.00  0.00    +0.000 A 
ENDROOT
BRANCH   1  13
ATOM      8  C   UNL     1       6.329   5.168  15.969  0.00  0.00    +0.000 A 
ATOM      9  C   UNL     1       5.784   3.991  16.480  0.00  0.00    +0.000 A 
ATOM     10  C   UNL     1       4.627   4.006  17.277  0.00  0.00    +0.000 A 
ATOM     11  C   UNL     1       4.038   5.262  17.550  0.00  0.00    +0.000 A 
ATOM     12  S   UNL     1       2.634   5.640  18.482  0.00  0.00    +0.000 S 
ATOM     13  C   UNL     1       2.834   7.315  18.153  0.00  0.00    +0.000 A 
ATOM     14  N   UNL     1       3.875   7.603  17.390  0.00  0.00    +0.000 NA
ATOM     15  C   UNL     1       4.571   6.452  17.054  0.00  0.00    +0.000 A 
ATOM     16  C   UNL     1       5.737   6.397  16.265  0.00  0.00    +0.000 A 
BRANCH   8  18
ATOM     17  C   UNL     1       7.298   4.907  13.825  0.00  0.00    +0.000 C 
ATOM     18  O   UNL     1       7.460   5.246  15.198  0.00  0.00    +0.000 OA
ENDBRANCH   8  18
BRANCH  10  19
ATOM     19  O   UNL     1       4.034   2.891  17.808  0.00  0.00    +0.000 OA
ATOM     20  C   UNL     1       4.249   2.618  19.187  0.00  0.00    +0.000 C 
ENDBRANCH  10  19
ENDBRANCH   1  13
BRANCH   4  21
ATOM     21  N   UNL     1      -0.885  11.239  20.151  0.00  0.00    +0.000 N 
ATOM     22  H   UNL     1      -1.848  11.142  19.813  0.00  0.00    +0.000 HD
BRANCH  21  23
ATOM     23  C   UNL     1      -0.633  12.456  20.730  0.00  0.00    +0.000 C 
ATOM     24  C   UNL     1      -0.970  12.892  21.957  0.00  0.00    +0.000 C 
BRANCH  24  25
ATOM     25  C   UNL     1      -1.750  12.084  22.940  0.00  0.00    +0.000 C 
ATOM     26  O   UNL     1      -1.238  11.169  23.578  0.00  0.00    +0.000 OA
BRANCH  25  27
ATOM     27  C   UNL     1      -3.204  12.390  23.099  0.00  0.00    +0.000 A 
ATOM     28  C   UNL     1      -3.785  12.306  24.370  0.00  0.00    +0.000 A 
ATOM     29  C   UNL     1      -5.138  12.630  24.553  0.00  0.00    +0.000 A 
ATOM     30  C   UNL     1      -5.927  13.059  23.480  0.00  0.00    +0.000 A 
ATOM     31  C   UNL     1      -5.332  13.150  22.220  0.00  0.00    +0.000 A 
ATOM     32  F   UNL     1      -6.023  13.568  21.149  0.00  0.00    +0.000 F 
ATOM     33  C   UNL     1      -3.987  12.820  22.023  0.00  0.00    +0.000 A 
BRANCH  30  34
ATOM     34  O   UNL     1      -7.222  13.349  23.811  0.00  0.00    +0.000 OA
ATOM     35  C   UNL     1      -7.614  14.718  23.785  0.00  0.00    +0.000 C 
ENDBRANCH  30  34
ENDBRANCH  25  27
ENDBRANCH  24  25
ENDBRANCH  21  23
ENDBRANCH   4  21
TORSDOF 8
ENDMDL
MODEL 5
REMARK VINA RESULT:      -7.8      3.634     10.008
REMARK  Name = 
REMARK  12 active torsions:
REMARK  status: ('A' for Active; 'I' for Inactive)
REMARK    1  A    between atoms: C_1  and  O_2
REMARK    2  A    between atoms: O_2  and  C_3
REMARK    3  A    between atoms: C_5  and  O_6
REMARK    4  A    between atoms: O_6  and  C_7
REMARK    5  A    between atoms: C_10  and  C_11
REMARK    6  A    between atoms: C_14  and  N_15
REMARK    7  A    between atoms: N_15  and  C_16
REMARK    8  A    between atoms: C_17  and  C_18
REMARK    9  A    between atoms: C_18  and  C_20
REMARK   10  A    between atoms: C_23  and  O_24
REMARK   11  A    between atoms: O_24  and  C_25
REMARK   12  A    between atoms: C_29  and  C_30
REMARK                            x       y       z     vdW  Elec       q    Type
REMARK                         _______ _______ _______ _____ _____    ______ ____
ROOT
ATOM      1  C   UNL     1       1.113   9.533  19.974  0.00  0.00    +0.000 A 
ATOM      2  C   UNL     1       0.846   8.680  21.046  0.00  0.00    +0.000 A 
ATOM      3  C   UNL     1       1.333   7.362  21.054  0.00  0.00    +0.000 A 
ATOM      4  C   UNL     1       2.098   6.827  19.997  0.00  0.00    +0.000 A 
ATOM      5  C   UNL     1       2.362   7.676  18.904  0.00  0.00    +0.000 A 
ATOM      6  C   UNL     1       3.114   7.281  17.662  0.00  0.00    +0.000 C 
ATOM      7  C   UNL     1       1.871   9.008  18.916  0.00  0.00    +0.000 A 
ENDROOT
BRANCH   1  13
ATOM      8  C   UNL     1       0.275  15.498  19.135  0.00  0.00    +0.000 A 
ATOM      9  C   UNL     1      -0.957  15.403  19.783  0.00  0.00    +0.000 A 
ATOM     10  C   UNL     1      -1.429  14.176  20.278  0.00  0.00    +0.000 A 
ATOM     11  C   UNL     1      -0.613  13.038  20.090  0.00  0.00    +0.000 A 
ATOM     12  S   UNL     1      -0.884  11.398  20.563  0.00  0.00    +0.000 S 
ATOM     13  C   UNL     1       0.625  10.926  19.890  0.00  0.00    +0.000 A 
ATOM     14  N   UNL     1       1.314  11.914  19.344  0.00  0.00    +0.000 NA
ATOM     15  C   UNL     1       0.618  13.109  19.439  0.00  0.00    +0.000 A 
ATOM     16  C   UNL     1       1.055  14.356  18.947  0.00  0.00    +0.000 A 
BRANCH   8  18
ATOM     17  C   UNL     1       2.178  16.586  18.242  0.00  0.00    +0.000 C 
ATOM     18  O   UNL     1       0.804  16.648  18.608  0.00  0.00    +0.000 OA
ENDBRANCH   8  18
BRANCH  10  19
ATOM     19  O   UNL     1      -2.624  14.009  20.928  0.00  0.00    +0.000 OA
ATOM     20  C   UNL     1      -2.811  14.699  22.158  0.00  0.00    +0.000 C 
ENDBRANCH  10  19
ENDBRANCH   1  13
BRANCH   4  21
ATOM     21  N   UNL     1       2.563   5.506  20.171  0.00  0.00    +0.000 N 
ATOM     22  H   UNL     1       3.461   5.421  20.658  0.00  0.00    +0.000 HD
BRANCH  21  23
ATOM     23  C   UNL     1       2.138   4.330  19.607  0.00  0.00    +0.000 C 
ATOM     24  C   UNL     1       2.866   3.261  19.237  0.00  0.00    +0.000 C 
BRANCH  24  25
ATOM     25  C   UNL     1       4.352   3.187  19.355  0.00  0.00    +0.000 C 
ATOM     26  O   UNL     1       4.904   2.356  20.070  0.00  0.00    +0.000 OA
BRANCH  25  27
ATOM     27  C   UNL     1       5.163   4.194  18.607  0.00  0.00    +0.000 A 
ATOM     28  C   UNL     1       5.991   5.071  19.319  0.00  0.00    +0.000 A 
ATOM     29  C   UNL     1       6.796   5.996  18.636  0.00  0.00    +0.000 A 
ATOM     30  C   UNL     1       6.802   6.051  17.239  0.00  0.00    +0.000 A 
ATOM     31  C   UNL     1       5.982   5.163  16.540  0.00  0.00    +0.000 A 
ATOM     32  F   UNL     1       5.948   5.150  15.199  0.00  0.00    +0.000 F 
ATOM     33  C   UNL     1       5.168   4.243  17.209  0.00  0.00    +0.000 A 
BRANCH  30  34
ATOM     34  O   UNL     1       7.643   6.995  16.714  0.00  0.00    +0.000 OA
ATOM     35  C   UNL     1       7.887   8.161  17.495  0.00  0.00    +0.000 C 
ENDBRANCH  30  34
ENDBRANCH  25  27
ENDBRANCH  24  25
ENDBRANCH  21  23
ENDBRANCH   4  21
TORSDOF 8
ENDMDL
MODEL 6
REMARK VINA RESULT:      -7.8      1.404      2.581
REMARK  Name = 
REMARK  12 active torsions:
REMARK  status: ('A' for Active; 'I' for Inactive)
REMARK    1  A    between atoms: C_1  and  O_2
REMARK    2  A    between atoms: O_2  and  C_3
REMARK    3  A    between atoms: C_5  and  O_6
REMARK    4  A    between atoms: O_6  and  C_7
REMARK    5  A    between atoms: C_10  and  C_11
REMARK    6  A    between atoms: C_14  and  N_15
REMARK    7  A    between atoms: N_15  and  C_16
REMARK    8  A    between atoms: C_17  and  C_18
REMARK    9  A    between atoms: C_18  and  C_20
REMARK   10  A    between atoms: C_23  and  O_24
REMARK   11  A    between atoms: O_24  and  C_25
REMARK   12  A    between atoms: C_29  and  C_30
REMARK                            x       y       z     vdW  Elec       q    Type
REMARK                         _______ _______ _______ _____ _____    ______ ____
ROOT
ATOM      1  C   UNL     1       1.455   8.554  20.158  0.00  0.00    +0.000 A 
ATOM      2  C   UNL     1       0.989   9.672  19.466  0.00  0.00    +0.000 A 
ATOM      3  C   UNL     1       0.283  10.687  20.135  0.00  0.00    +0.000 A 
ATOM      4  C   UNL     1      -0.002  10.634  21.514  0.00  0.00    +0.000 A 
ATOM      5  C   UNL     1       0.453   9.502  22.219  0.00  0.00    +0.000 A 
ATOM      6  C   UNL     1       0.210   9.235  23.679  0.00  0.00    +0.000 C 
ATOM      7  C   UNL     1       1.174   8.491  21.531  0.00  0.00    +0.000 A 
ENDROOT
BRANCH   1  13
ATOM      8  C   UNL     1       4.773   4.864  16.641  0.00  0.00    +0.000 A 
ATOM      9  C   UNL     1       4.423   3.790  17.460  0.00  0.00    +0.000 A 
ATOM     10  C   UNL     1       3.592   3.965  18.579  0.00  0.00    +0.000 A 
ATOM     11  C   UNL     1       3.128   5.272  18.850  0.00  0.00    +0.000 A 
ATOM     12  S   UNL     1       2.108   5.836  20.126  0.00  0.00    +0.000 S 
ATOM     13  C   UNL     1       2.193   7.442  19.521  0.00  0.00    +0.000 A 
ATOM     14  N   UNL     1       2.927   7.577  18.429  0.00  0.00    +0.000 NA
ATOM     15  C   UNL     1       3.471   6.361  18.049  0.00  0.00    +0.000 A 
ATOM     16  C   UNL     1       4.314   6.148  16.940  0.00  0.00    +0.000 A 
BRANCH   8  18
ATOM     17  C   UNL     1       6.892   4.263  15.773  0.00  0.00    +0.000 C 
ATOM     18  O   UNL     1       5.589   4.787  15.542  0.00  0.00    +0.000 OA
ENDBRANCH   8  18
BRANCH  10  19
ATOM     19  O   UNL     1       3.202   2.958  19.422  0.00  0.00    +0.000 OA
ATOM     20  C   UNL     1       4.203   2.340  20.223  0.00  0.00    +0.000 C 
ENDBRANCH  10  19
ENDBRANCH   1  13
BRANCH   4  21
ATOM     21  N   UNL     1      -0.672  11.753  22.056  0.00  0.00    +0.000 N 
ATOM     22  H   UNL     1      -1.260  11.555  22.872  0.00  0.00    +0.000 HD
BRANCH  21  23
ATOM     23  C   UNL     1      -0.856  13.013  21.549  0.00  0.00    +0.000 C 
ATOM     24  C   UNL     1      -1.962  13.550  21.003  0.00  0.00    +0.000 C 
BRANCH  24  25
ATOM     25  C   UNL     1      -3.241  12.806  20.818  0.00  0.00    +0.000 C 
ATOM     26  O   UNL     1      -4.012  12.600  21.751  0.00  0.00    +0.000 OA
BRANCH  25  27
ATOM     27  C   UNL     1      -3.547  12.268  19.457  0.00  0.00    +0.000 A 
ATOM     28  C   UNL     1      -2.489  11.939  18.599  0.00  0.00    +0.000 A 
ATOM     29  C   UNL     1      -2.749  11.393  17.333  0.00  0.00    +0.000 A 
ATOM     30  C   UNL     1      -4.059  11.150  16.910  0.00  0.00    +0.000 A 
ATOM     31  C   UNL     1      -5.104  11.471  17.779  0.00  0.00    +0.000 A 
ATOM     32  F   UNL     1      -6.384  11.251  17.445  0.00  0.00    +0.000 F 
ATOM     33  C   UNL     1      -4.859  12.025  19.039  0.00  0.00    +0.000 A 
BRANCH  30  34
ATOM     34  O   UNL     1      -4.157  10.605  15.658  0.00  0.00    +0.000 OA
ATOM     35  C   UNL     1      -2.943  10.291  14.984  0.00  0.00    +0.000 C 
ENDBRANCH  30  34
ENDBRANCH  25  27
ENDBRANCH  24  25
ENDBRANCH  21  23
ENDBRANCH   4  21
TORSDOF 8
ENDMDL
MODEL 7
REMARK VINA RESULT:      -7.7      1.092      1.531
REMARK  Name = 
REMARK  12 active torsions:
REMARK  status: ('A' for Active; 'I' for Inactive)
REMARK    1  A    between atoms: C_1  and  O_2
REMARK    2  A    between atoms: O_2  and  C_3
REMARK    3  A    between atoms: C_5  and  O_6
REMARK    4  A    between atoms: O_6  and  C_7
REMARK    5  A    between atoms: C_10  and  C_11
REMARK    6  A    between atoms: C_14  and  N_15
REMARK    7  A    between atoms: N_15  and  C_16
REMARK    8  A    between atoms: C_17  and  C_18
REMARK    9  A    between atoms: C_18  and  C_20
REMARK   10  A    between atoms: C_23  and  O_24
REMARK   11  A    between atoms: O_24  and  C_25
REMARK   12  A    between atoms: C_29  and  C_30
REMARK                            x       y       z     vdW  Elec       q    Type
REMARK                         _______ _______ _______ _____ _____    ______ ____
ROOT
ATOM      1  C   UNL     1       1.353   8.851  20.229  0.00  0.00    +0.000 A 
ATOM      2  C   UNL     1       0.998  10.018  19.550  0.00  0.00    +0.000 A 
ATOM      3  C   UNL     1       0.300  11.046  20.207  0.00  0.00    +0.000 A 
ATOM      4  C   UNL     1      -0.086  10.961  21.560  0.00  0.00    +0.000 A 
ATOM      5  C   UNL     1       0.256   9.781  22.250  0.00  0.00    +0.000 A 
ATOM      6  C   UNL     1      -0.105   9.477  23.678  0.00  0.00    +0.000 C 
ATOM      7  C   UNL     1       0.971   8.756  21.575  0.00  0.00    +0.000 A 
ENDROOT
BRANCH   1  13
ATOM      8  C   UNL     1       4.042   3.599  18.754  0.00  0.00    +0.000 A 
ATOM      9  C   UNL     1       4.533   4.192  17.592  0.00  0.00    +0.000 A 
ATOM     10  C   UNL     1       4.253   5.533  17.280  0.00  0.00    +0.000 A 
ATOM     11  C   UNL     1       3.446   6.259  18.185  0.00  0.00    +0.000 A 
ATOM     12  S   UNL     1       2.912   7.901  18.112  0.00  0.00    +0.000 S 
ATOM     13  C   UNL     1       2.076   7.723  19.603  0.00  0.00    +0.000 A 
ATOM     14  N   UNL     1       2.178   6.523  20.148  0.00  0.00    +0.000 NA
ATOM     15  C   UNL     1       2.938   5.683  19.350  0.00  0.00    +0.000 A 
ATOM     16  C   UNL     1       3.233   4.333  19.624  0.00  0.00    +0.000 A 
BRANCH   8  18
ATOM     17  C   UNL     1       3.548   1.315  18.373  0.00  0.00    +0.000 C 
ATOM     18  O   UNL     1       4.252   2.296  19.127  0.00  0.00    +0.000 OA
ENDBRANCH   8  18
BRANCH  10  19
ATOM     19  O   UNL     1       4.706   6.182  16.162  0.00  0.00    +0.000 OA
ATOM     20  C   UNL     1       5.545   5.459  15.269  0.00  0.00    +0.000 C 
ENDBRANCH  10  19
ENDBRANCH   1  13
BRANCH   4  21
ATOM     21  N   UNL     1      -0.734  12.095  22.096  0.00  0.00    +0.000 N 
ATOM     22  H   UNL     1      -1.216  11.940  22.986  0.00  0.00    +0.000 HD
BRANCH  21  23
ATOM     23  C   UNL     1      -1.023  13.308  21.526  0.00  0.00    +0.000 C 
ATOM     24  C   UNL     1      -2.162  13.713  20.936  0.00  0.00    +0.000 C 
BRANCH  24  25
ATOM     25  C   UNL     1      -3.362  12.842  20.763  0.00  0.00    +0.000 C 
ATOM     26  O   UNL     1      -4.072  12.523  21.711  0.00  0.00    +0.000 OA
BRANCH  25  27
ATOM     27  C   UNL     1      -3.656  12.323  19.393  0.00  0.00    +0.000 A 
ATOM     28  C   UNL     1      -2.596  11.911  18.576  0.00  0.00    +0.000 A 
ATOM     29  C   UNL     1      -2.850  11.379  17.302  0.00  0.00    +0.000 A 
ATOM     30  C   UNL     1      -4.158  11.233  16.831  0.00  0.00    +0.000 A 
ATOM     31  C   UNL     1      -5.207  11.636  17.660  0.00  0.00    +0.000 A 
ATOM     32  F   UNL     1      -6.487  11.512  17.279  0.00  0.00    +0.000 F 
ATOM     33  C   UNL     1      -4.967  12.177  18.927  0.00  0.00    +0.000 A 
BRANCH  30  34
ATOM     34  O   UNL     1      -4.251  10.691  15.577  0.00  0.00    +0.000 OA
ATOM     35  C   UNL     1      -3.041  10.266  14.957  0.00  0.00    +0.000 C 
ENDBRANCH  30  34
ENDBRANCH  25  27
ENDBRANCH  24  25
ENDBRANCH  21  23
ENDBRANCH   4  21
TORSDOF 8
ENDMDL
MODEL 8
REMARK VINA RESULT:      -7.7      3.388      5.406
REMARK  Name = 
REMARK  12 active torsions:
REMARK  status: ('A' for Active; 'I' for Inactive)
REMARK    1  A    between atoms: C_1  and  O_2
REMARK    2  A    between atoms: O_2  and  C_3
REMARK    3  A    between atoms: C_5  and  O_6
REMARK    4  A    between atoms: O_6  and  C_7
REMARK    5  A    between atoms: C_10  and  C_11
REMARK    6  A    between atoms: C_14  and  N_15
REMARK    7  A    between atoms: N_15  and  C_16
REMARK    8  A    between atoms: C_17  and  C_18
REMARK    9  A    between atoms: C_18  and  C_20
REMARK   10  A    between atoms: C_23  and  O_24
REMARK   11  A    between atoms: O_24  and  C_25
REMARK   12  A    between atoms: C_29  and  C_30
REMARK                            x       y       z     vdW  Elec       q    Type
REMARK                         _______ _______ _______ _____ _____    ______ ____
ROOT
ATOM      1  C   UNL     1       1.685   8.551  18.992  0.00  0.00    +0.000 A 
ATOM      2  C   UNL     1       1.079   9.520  18.191  0.00  0.00    +0.000 A 
ATOM      3  C   UNL     1       0.172  10.442  18.742  0.00  0.00    +0.000 A 
ATOM      4  C   UNL     1      -0.182  10.440  20.106  0.00  0.00    +0.000 A 
ATOM      5  C   UNL     1       0.415   9.457  20.921  0.00  0.00    +0.000 A 
ATOM      6  C   UNL     1       0.134   9.257  22.385  0.00  0.00    +0.000 C 
ATOM      7  C   UNL     1       1.337   8.540  20.351  0.00  0.00    +0.000 A 
ENDROOT
BRANCH   1  13
ATOM      8  C   UNL     1       5.862   5.294  16.003  0.00  0.00    +0.000 A 
ATOM      9  C   UNL     1       5.573   4.200  16.818  0.00  0.00    +0.000 A 
ATOM     10  C   UNL     1       4.604   4.279  17.832  0.00  0.00    +0.000 A 
ATOM     11  C   UNL     1       3.935   5.512  18.002  0.00  0.00    +0.000 A 
ATOM     12  S   UNL     1       2.708   5.954  19.135  0.00  0.00    +0.000 S 
ATOM     13  C   UNL     1       2.638   7.542  18.483  0.00  0.00    +0.000 A 
ATOM     14  N   UNL     1       3.466   7.756  17.474  0.00  0.00    +0.000 NA
ATOM     15  C   UNL     1       4.213   6.621  17.202  0.00  0.00    +0.000 A 
ATOM     16  C   UNL     1       5.198   6.506  16.201  0.00  0.00    +0.000 A 
BRANCH   8  18
ATOM     17  C   UNL     1       6.589   4.385  13.941  0.00  0.00    +0.000 C 
ATOM     18  O   UNL     1       6.800   5.309  15.004  0.00  0.00    +0.000 OA
ENDBRANCH   8  18
BRANCH  10  19
ATOM     19  O   UNL     1       4.264   3.246  18.665  0.00  0.00    +0.000 OA
ATOM     20  C   UNL     1       3.341   2.278  18.179  0.00  0.00    +0.000 C 
ENDBRANCH  10  19
ENDBRANCH   1  13
BRANCH   4  21
ATOM     21  N   UNL     1      -1.063  11.460  20.523  0.00  0.00    +0.000 N 
ATOM     22  H   UNL     1      -1.772  11.171  21.205  0.00  0.00    +0.000 HD
BRANCH  21  23
ATOM     23  C   UNL     1      -1.283  12.713  20.011  0.00  0.00    +0.000 C 
ATOM     24  C   UNL     1      -0.547  13.828  20.165  0.00  0.00    +0.000 C 
BRANCH  24  25
ATOM     25  C   UNL     1       0.689  13.899  20.999  0.00  0.00    +0.000 C 
ATOM     26  O   UNL     1       0.677  13.635  22.197  0.00  0.00    +0.000 OA
BRANCH  25  27
ATOM     27  C   UNL     1       1.952  14.349  20.340  0.00  0.00    +0.000 A 
ATOM     28  C   UNL     1       3.139  14.374  21.082  0.00  0.00    +0.000 A 
ATOM     29  C   UNL     1       4.347  14.752  20.475  0.00  0.00    +0.000 A 
ATOM     30  C   UNL     1       4.394  15.092  19.119  0.00  0.00    +0.000 A 
ATOM     31  C   UNL     1       3.206  15.051  18.387  0.00  0.00    +0.000 A 
ATOM     32  F   UNL     1       3.180  15.350  17.079  0.00  0.00    +0.000 F 
ATOM     33  C   UNL     1       1.994  14.686  18.983  0.00  0.00    +0.000 A 
BRANCH  30  34
ATOM     34  O   UNL     1       5.640  15.428  18.664  0.00  0.00    +0.000 OA
ATOM     35  C   UNL     1       6.307  14.489  17.826  0.00  0.00    +0.000 C 
ENDBRANCH  30  34
ENDBRANCH  25  27
ENDBRANCH  24  25
ENDBRANCH  21  23
ENDBRANCH   4  21
TORSDOF 8
ENDMDL
MODEL 9
REMARK VINA RESULT:      -7.7      3.744     10.038
REMARK  Name = 
REMARK  12 active torsions:
REMARK  status: ('A' for Active; 'I' for Inactive)
REMARK    1  A    between atoms: C_1  and  O_2
REMARK    2  A    between atoms: O_2  and  C_3
REMARK    3  A    between atoms: C_5  and  O_6
REMARK    4  A    between atoms: O_6  and  C_7
REMARK    5  A    between atoms: C_10  and  C_11
REMARK    6  A    between atoms: C_14  and  N_15
REMARK    7  A    between atoms: N_15  and  C_16
REMARK    8  A    between atoms: C_17  and  C_18
REMARK    9  A    between atoms: C_18  and  C_20
REMARK   10  A    between atoms: C_23  and  O_24
REMARK   11  A    between atoms: O_24  and  C_25
REMARK   12  A    between atoms: C_29  and  C_30
REMARK                            x       y       z     vdW  Elec       q    Type
REMARK                         _______ _______ _______ _____ _____    ______ ____
ROOT
ATOM      1  C   UNL     1       0.946   9.755  20.099  0.00  0.00    +0.000 A 
ATOM      2  C   UNL     1       0.677   8.925  21.188  0.00  0.00    +0.000 A 
ATOM      3  C   UNL     1       1.147   7.601  21.216  0.00  0.00    +0.000 A 
ATOM      4  C   UNL     1       1.896   7.037  20.163  0.00  0.00    +0.000 A 
ATOM      5  C   UNL     1       2.161   7.863  19.052  0.00  0.00    +0.000 A 
ATOM      6  C   UNL     1       2.898   7.437  17.812  0.00  0.00    +0.000 C 
ATOM      7  C   UNL     1       1.688   9.202  19.045  0.00  0.00    +0.000 A 
ENDROOT
BRANCH   1  13
ATOM      8  C   UNL     1       0.093  15.674  18.988  0.00  0.00    +0.000 A 
ATOM      9  C   UNL     1      -1.028  15.654  19.818  0.00  0.00    +0.000 A 
ATOM     10  C   UNL     1      -1.441  14.476  20.461  0.00  0.00    +0.000 A 
ATOM     11  C   UNL     1      -0.683  13.306  20.231  0.00  0.00    +0.000 A 
ATOM     12  S   UNL     1      -0.907  11.708  20.851  0.00  0.00    +0.000 S 
ATOM     13  C   UNL     1       0.474  11.153  19.993  0.00  0.00    +0.000 A 
ATOM     14  N   UNL     1       1.090  12.084  19.285  0.00  0.00    +0.000 NA
ATOM     15  C   UNL     1       0.437  13.301  19.400  0.00  0.00    +0.000 A 
ATOM     16  C   UNL     1       0.816  14.500  18.765  0.00  0.00    +0.000 A 
BRANCH   8  18
ATOM     17  C   UNL     1      -0.434  17.566  17.667  0.00  0.00    +0.000 C 
ATOM     18  O   UNL     1       0.556  16.772  18.311  0.00  0.00    +0.000 OA
ENDBRANCH   8  18
BRANCH  10  19
ATOM     19  O   UNL     1      -2.526  14.384  21.293  0.00  0.00    +0.000 OA
ATOM     20  C   UNL     1      -2.736  15.436  22.227  0.00  0.00    +0.000 C 
ENDBRANCH  10  19
ENDBRANCH   1  13
BRANCH   4  21
ATOM     21  N   UNL     1       2.346   5.714  20.357  0.00  0.00    +0.000 N 
ATOM     22  H   UNL     1       3.340   5.621  20.585  0.00  0.00    +0.000 HD
BRANCH  21  23
ATOM     23  C   UNL     1       1.740   4.516  20.073  0.00  0.00    +0.000 C 
ATOM     24  C   UNL     1       2.308   3.327  19.803  0.00  0.00    +0.000 C 
BRANCH  24  25
ATOM     25  C   UNL     1       3.782   3.109  19.730  0.00  0.00    +0.000 C 
ATOM     26  O   UNL     1       4.375   2.410  20.545  0.00  0.00    +0.000 OA
BRANCH  25  27
ATOM     27  C   UNL     1       4.540   3.810  18.649  0.00  0.00    +0.000 A 
ATOM     28  C   UNL     1       4.203   3.568  17.311  0.00  0.00    +0.000 A 
ATOM     29  C   UNL     1       4.870   4.246  16.279  0.00  0.00    +0.000 A 
ATOM     30  C   UNL     1       5.867   5.186  16.563  0.00  0.00    +0.000 A 
ATOM     31  C   UNL     1       6.184   5.427  17.901  0.00  0.00    +0.000 A 
ATOM     32  F   UNL     1       7.119   6.325  18.247  0.00  0.00    +0.000 F 
ATOM     33  C   UNL     1       5.534   4.750  18.938  0.00  0.00    +0.000 A 
BRANCH  30  34
ATOM     34  O   UNL     1       6.420   5.774  15.458  0.00  0.00    +0.000 OA
ATOM     35  C   UNL     1       6.889   4.914  14.424  0.00  0.00    +0.000 C 
ENDBRANCH  30  34
ENDBRANCH  25  27
ENDBRANCH  24  25
ENDBRANCH  21  23
ENDBRANCH   4  21
TORSDOF 8
ENDMDL
