MODEL 1
REMARK VINA RESULT:      -8.4      0.000      0.000
REMARK  Name = 
REMARK  11 active torsions:
REMARK  status: ('A' for Active; 'I' for Inactive)
REMARK    1  A    between atoms: C_1  and  O_2
REMARK    2  A    between atoms: O_2  and  C_3
REMARK    3  A    between atoms: C_6  and  C_7
REMARK    4  A    between atoms: N_9  and  C_10
REMARK    5  A    between atoms: C_10  and  C_11
REMARK    6  A    between atoms: C_11  and  N_12
REMARK    7  A    between atoms: N_12  and  C_13
REMARK    8  A    between atoms: C_16  and  C_17
REMARK    9  A    between atoms: C_23  and  C_24
REMARK   10  A    between atoms: C_27  and  O_28
REMARK   11  A    between atoms: O_28  and  C_29
REMARK                            x       y       z     vdW  Elec       q    Type
REMARK                         _______ _______ _______ _____ _____    ______ ____
ROOT
ATOM      1  C   UNL     1       8.030   5.765  19.148  0.00  0.00    +0.000 C 
ENDROOT
BRANCH   1   2
ATOM      2  N   UNL     1       7.627   4.618  18.326  0.00  0.00    +0.000 N 
ATOM      3  H   UNL     1       7.939   3.748  18.746  0.00  0.00    +0.000 HD
BRANCH   2   4
ATOM      4  C   UNL     1       6.260   4.520  18.027  0.00  0.00    +0.000 A 
ATOM      5  N   UNL     1       5.418   3.789  18.763  0.00  0.00    +0.000 NA
ATOM      6  C   UNL     1       4.100   3.897  18.497  0.00  0.00    +0.000 A 
ATOM      7  C   UNL     1       3.231   2.807  18.565  0.00  0.00    +0.000 A 
ATOM      8  C   UNL     1       3.825   1.422  18.537  0.00  0.00    +0.000 C 
ATOM      9  C   UNL     1       1.858   2.976  18.316  0.00  0.00    +0.000 A 
ATOM     10  C   UNL     1       1.342   4.241  18.037  0.00  0.00    +0.000 A 
ATOM     11  C   UNL     1       2.218   5.293  17.812  0.00  0.00    +0.000 A 
ATOM     12  C   UNL     1       3.594   5.051  17.889  0.00  0.00    +0.000 A 
ATOM     13  C   UNL     1       4.504   5.773  17.116  0.00  0.00    +0.000 A 
ATOM     14  C   UNL     1       5.762   5.198  16.930  0.00  0.00    +0.000 A 
BRANCH  14  15
ATOM     15  C   UNL     1       5.911   4.447  15.684  0.00  0.00    +0.000 C 
ATOM     16  N   UNL     1       5.997   3.739  14.773  0.00  0.00    +0.000 NA
ENDBRANCH  14  15
ENDBRANCH   2   4
ENDBRANCH   1   2
BRANCH   1  17
ATOM     17  C   UNL     1       7.988   7.088  18.358  0.00  0.00    +0.000 C 
BRANCH  17  20
ATOM     18  C   UNL     1       8.614   9.521  18.466  0.00  0.00    +0.000 C 
ATOM     19  O   UNL     1       7.826   9.859  17.579  0.00  0.00    +0.000 OA
ATOM     20  N   UNL     1       8.749   8.223  18.903  0.00  0.00    +0.000 N 
ATOM     21  H   UNL     1       9.397   7.999  19.640  0.00  0.00    +0.000 HD
BRANCH  18  25
ATOM     22  C   UNL     1      10.880  12.815  20.024  0.00  0.00    +0.000 A 
ATOM     23  C   UNL     1      11.205  12.203  18.808  0.00  0.00    +0.000 A 
ATOM     24  C   UNL     1      10.469  11.119  18.348  0.00  0.00    +0.000 A 
ATOM     25  C   UNL     1       9.420  10.592  19.111  0.00  0.00    +0.000 A 
ATOM     26  C   UNL     1       9.167  11.126  20.373  0.00  0.00    +0.000 A 
ATOM     27  C   UNL     1       9.896  12.234  20.843  0.00  0.00    +0.000 A 
BRANCH  22  29
ATOM     28  C   UNL     1      10.909  15.175  19.968  0.00  0.00    +0.000 C 
ATOM     29  O   UNL     1      11.519  13.961  20.414  0.00  0.00    +0.000 OA
ENDBRANCH  22  29
BRANCH  27  30
ATOM     30  O   UNL     1       9.480  12.620  22.091  0.00  0.00    +0.000 OA
ATOM     31  C   UNL     1       8.473  11.864  22.744  0.00  0.00    +0.000 C 
ENDBRANCH  27  30
ENDBRANCH  18  25
ENDBRANCH  17  20
ENDBRANCH   1  17
TORSDOF 8
ENDMDL
MODEL 2
REMARK VINA RESULT:      -8.1      1.923      3.397
REMARK  Name = 
REMARK  11 active torsions:
REMARK  status: ('A' for Active; 'I' for Inactive)
REMARK    1  A    between atoms: C_1  and  O_2
REMARK    2  A    between atoms: O_2  and  C_3
REMARK    3  A    between atoms: C_6  and  C_7
REMARK    4  A    between atoms: N_9  and  C_10
REMARK    5  A    between atoms: C_10  and  C_11
REMARK    6  A    between atoms: C_11  and  N_12
REMARK    7  A    between atoms: N_12  and  C_13
REMARK    8  A    between atoms: C_16  and  C_17
REMARK    9  A    between atoms: C_23  and  C_24
REMARK   10  A    between atoms: C_27  and  O_28
REMARK   11  A    between atoms: O_28  and  C_29
REMARK                            x       y       z     vdW  Elec       q    Type
REMARK                         _______ _______ _______ _____ _____    ______ ____
ROOT
ATOM      1  C   UNL     1       7.492   9.002  17.766  0.00  0.00    +0.000 C 
ENDROOT
BRANCH   1   2
ATOM      2  N   UNL     1       7.648   7.799  16.943  0.00  0.00    +0.000 N 
ATOM      3  H   UNL     1       8.596   7.440  17.005  0.00  0.00    +0.000 HD
BRANCH   2   4
ATOM      4  C   UNL     1       6.746   6.755  17.195  0.00  0.00    +0.000 A 
ATOM      5  N   UNL     1       5.424   6.908  17.073  0.00  0.00    +0.000 NA
ATOM      6  C   UNL     1       4.655   5.803  17.170  0.00  0.00    +0.000 A 
ATOM      7  C   UNL     1       3.405   5.813  17.789  0.00  0.00    +0.000 A 
ATOM      8  C   UNL     1       3.079   6.958  18.715  0.00  0.00    +0.000 C 
ATOM      9  C   UNL     1       2.623   4.646  17.831  0.00  0.00    +0.000 A 
ATOM     10  C   UNL     1       3.070   3.475  17.221  0.00  0.00    +0.000 A 
ATOM     11  C   UNL     1       4.373   3.416  16.746  0.00  0.00    +0.000 A 
ATOM     12  C   UNL     1       5.191   4.543  16.882  0.00  0.00    +0.000 A 
ATOM     13  C   UNL     1       6.571   4.425  17.041  0.00  0.00    +0.000 A 
ATOM     14  C   UNL     1       7.235   5.523  17.589  0.00  0.00    +0.000 A 
BRANCH  14  15
ATOM     15  C   UNL     1       7.466   5.440  19.030  0.00  0.00    +0.000 C 
ATOM     16  N   UNL     1       7.523   5.433  20.186  0.00  0.00    +0.000 NA
ENDBRANCH  14  15
ENDBRANCH   2   4
ENDBRANCH   1   2
BRANCH   1  17
ATOM     17  C   UNL     1       8.763   9.318  18.580  0.00  0.00    +0.000 C 
BRANCH  17  20
ATOM     18  C   UNL     1       9.981  11.428  19.203  0.00  0.00    +0.000 C 
ATOM     19  O   UNL     1       9.890  11.233  20.418  0.00  0.00    +0.000 OA
ATOM     20  N   UNL     1       9.478  10.563  18.258  0.00  0.00    +0.000 N 
ATOM     21  H   UNL     1       9.589  10.760  17.278  0.00  0.00    +0.000 HD
BRANCH  18  25
ATOM     22  C   UNL     1      11.784  15.030  17.725  0.00  0.00    +0.000 A 
ATOM     23  C   UNL     1      11.304  14.036  16.865  0.00  0.00    +0.000 A 
ATOM     24  C   UNL     1      10.754  12.869  17.377  0.00  0.00    +0.000 A 
ATOM     25  C   UNL     1      10.710  12.646  18.758  0.00  0.00    +0.000 A 
ATOM     26  C   UNL     1      11.290  13.581  19.614  0.00  0.00    +0.000 A 
ATOM     27  C   UNL     1      11.837  14.774  19.107  0.00  0.00    +0.000 A 
BRANCH  22  29
ATOM     28  C   UNL     1      11.214  17.264  17.217  0.00  0.00    +0.000 C 
ATOM     29  O   UNL     1      12.205  16.233  17.227  0.00  0.00    +0.000 OA
ENDBRANCH  22  29
BRANCH  27  30
ATOM     30  O   UNL     1      12.333  15.567  20.109  0.00  0.00    +0.000 OA
ATOM     31  C   UNL     1      11.432  16.351  20.875  0.00  0.00    +0.000 C 
ENDBRANCH  27  30
ENDBRANCH  18  25
ENDBRANCH  17  20
ENDBRANCH   1  17
TORSDOF 8
ENDMDL
MODEL 3
REMARK VINA RESULT:      -7.9      6.529      9.715
REMARK  Name = 
REMARK  11 active torsions:
REMARK  status: ('A' for Active; 'I' for Inactive)
REMARK    1  A    between atoms: C_1  and  O_2
REMARK    2  A    between atoms: O_2  and  C_3
REMARK    3  A    between atoms: C_6  and  C_7
REMARK    4  A    between atoms: N_9  and  C_10
REMARK    5  A    between atoms: C_10  and  C_11
REMARK    6  A    between atoms: C_11  and  N_12
REMARK    7  A    between atoms: N_12  and  C_13
REMARK    8  A    between atoms: C_16  and  C_17
REMARK    9  A    between atoms: C_23  and  C_24
REMARK   10  A    between atoms: C_27  and  O_28
REMARK   11  A    between atoms: O_28  and  C_29
REMARK                            x       y       z     vdW  Elec       q    Type
REMARK                         _______ _______ _______ _____ _____    ______ ____
ROOT
ATOM      1  C   UNL     1       2.220   8.475  17.659  0.00  0.00    +0.000 C 
ENDROOT
BRANCH   1   2
ATOM      2  N   UNL     1       3.175   7.817  18.557  0.00  0.00    +0.000 N 
ATOM      3  H   UNL     1       3.058   8.146  19.510  0.00  0.00    +0.000 HD
BRANCH   2   4
ATOM      4  C   UNL     1       3.167   6.414  18.550  0.00  0.00    +0.000 A 
ATOM      5  N   UNL     1       2.191   5.703  19.123  0.00  0.00    +0.000 NA
ATOM      6  C   UNL     1       2.184   4.370  18.915  0.00  0.00    +0.000 A 
ATOM      7  C   UNL     1       1.811   3.460  19.903  0.00  0.00    +0.000 A 
ATOM      8  C   UNL     1       1.805   3.929  21.336  0.00  0.00    +0.000 C 
ATOM      9  C   UNL     1       1.782   2.081  19.627  0.00  0.00    +0.000 A 
ATOM     10  C   UNL     1       2.089   1.612  18.351  0.00  0.00    +0.000 A 
ATOM     11  C   UNL     1       2.612   2.493  17.414  0.00  0.00    +0.000 A 
ATOM     12  C   UNL     1       2.799   3.830  17.779  0.00  0.00    +0.000 A 
ATOM     13  C   UNL     1       3.823   4.598  17.226  0.00  0.00    +0.000 A 
ATOM     14  C   UNL     1       4.204   5.739  17.935  0.00  0.00    +0.000 A 
BRANCH  14  15
ATOM     15  C   UNL     1       5.359   5.555  18.812  0.00  0.00    +0.000 C 
ATOM     16  N   UNL     1       6.237   5.274  19.511  0.00  0.00    +0.000 NA
ENDBRANCH  14  15
ENDBRANCH   2   4
ENDBRANCH   1   2
BRANCH   1  17
ATOM     17  C   UNL     1       1.513   9.665  18.335  0.00  0.00    +0.000 C 
BRANCH  17  20
ATOM     18  C   UNL     1      -0.648  10.943  18.476  0.00  0.00    +0.000 C 
ATOM     19  O   UNL     1      -0.205  11.790  19.257  0.00  0.00    +0.000 OA
ATOM     20  N   UNL     1       0.104   9.903  17.982  0.00  0.00    +0.000 N 
ATOM     21  H   UNL     1      -0.299   9.244  17.337  0.00  0.00    +0.000 HD
BRANCH  18  25
ATOM     22  C   UNL     1      -4.698  11.738  17.300  0.00  0.00    +0.000 A 
ATOM     23  C   UNL     1      -4.264  11.905  18.620  0.00  0.00    +0.000 A 
ATOM     24  C   UNL     1      -2.955  11.609  18.973  0.00  0.00    +0.000 A 
ATOM     25  C   UNL     1      -2.058  11.098  18.027  0.00  0.00    +0.000 A 
ATOM     26  C   UNL     1      -2.516  10.823  16.739  0.00  0.00    +0.000 A 
ATOM     27  C   UNL     1      -3.837  11.132  16.367  0.00  0.00    +0.000 A 
BRANCH  22  29
ATOM     28  C   UNL     1      -6.925  12.146  17.967  0.00  0.00    +0.000 C 
ATOM     29  O   UNL     1      -5.947  12.151  16.924  0.00  0.00    +0.000 OA
ENDBRANCH  22  29
BRANCH  27  30
ATOM     30  O   UNL     1      -4.082  10.809  15.058  0.00  0.00    +0.000 OA
ATOM     31  C   UNL     1      -3.145  10.001  14.363  0.00  0.00    +0.000 C 
ENDBRANCH  27  30
ENDBRANCH  18  25
ENDBRANCH  17  20
ENDBRANCH   1  17
TORSDOF 8
ENDMDL
MODEL 4
REMARK VINA RESULT:      -7.9      1.811      3.073
REMARK  Name = 
REMARK  11 active torsions:
REMARK  status: ('A' for Active; 'I' for Inactive)
REMARK    1  A    between atoms: C_1  and  O_2
REMARK    2  A    between atoms: O_2  and  C_3
REMARK    3  A    between atoms: C_6  and  C_7
REMARK    4  A    between atoms: N_9  and  C_10
REMARK    5  A    between atoms: C_10  and  C_11
REMARK    6  A    between atoms: C_11  and  N_12
REMARK    7  A    between atoms: N_12  and  C_13
REMARK    8  A    between atoms: C_16  and  C_17
REMARK    9  A    between atoms: C_23  and  C_24
REMARK   10  A    between atoms: C_27  and  O_28
REMARK   11  A    between atoms: O_28  and  C_29
REMARK                            x       y       z     vdW  Elec       q    Type
REMARK                         _______ _______ _______ _____ _____    ______ ____
ROOT
ATOM      1  C   UNL     1       5.233   7.538  16.982  0.00  0.00    +0.000 C 
ENDROOT
BRANCH   1   2
ATOM      2  N   UNL     1       4.701   6.294  16.417  0.00  0.00    +0.000 N 
ATOM      3  H   UNL     1       5.414   5.808  15.882  0.00  0.00    +0.000 HD
BRANCH   2   4
ATOM      4  C   UNL     1       4.119   5.399  17.327  0.00  0.00    +0.000 A 
ATOM      5  N   UNL     1       2.931   5.627  17.893  0.00  0.00    +0.000 NA
ATOM      6  C   UNL     1       2.382   4.630  18.618  0.00  0.00    +0.000 A 
ATOM      7  C   UNL     1       1.655   4.866  19.785  0.00  0.00    +0.000 A 
ATOM      8  C   UNL     1       1.822   6.199  20.469  0.00  0.00    +0.000 C 
ATOM      9  C   UNL     1       1.069   3.797  20.486  0.00  0.00    +0.000 A 
ATOM     10  C   UNL     1       1.175   2.494  20.003  0.00  0.00    +0.000 A 
ATOM     11  C   UNL     1       2.025   2.236  18.937  0.00  0.00    +0.000 A 
ATOM     12  C   UNL     1       2.738   3.299  18.372  0.00  0.00    +0.000 A 
ATOM     13  C   UNL     1       3.995   3.109  17.798  0.00  0.00    +0.000 A 
ATOM     14  C   UNL     1       4.798   4.241  17.658  0.00  0.00    +0.000 A 
BRANCH  14  15
ATOM     15  C   UNL     1       5.765   4.440  18.737  0.00  0.00    +0.000 C 
ATOM     16  N   UNL     1       6.604   4.673  19.499  0.00  0.00    +0.000 NA
ENDBRANCH  14  15
ENDBRANCH   2   4
ENDBRANCH   1   2
BRANCH   1  17
ATOM     17  C   UNL     1       6.773   7.540  17.035  0.00  0.00    +0.000 C 
BRANCH  17  20
ATOM     18  C   UNL     1       8.397   8.843  18.445  0.00  0.00    +0.000 C 
ATOM     19  O   UNL     1       8.813   7.852  19.050  0.00  0.00    +0.000 OA
ATOM     20  N   UNL     1       7.432   8.783  17.465  0.00  0.00    +0.000 N 
ATOM     21  H   UNL     1       7.135   9.620  16.992  0.00  0.00    +0.000 HD
BRANCH  18  25
ATOM     22  C   UNL     1      10.442  12.442  19.575  0.00  0.00    +0.000 A 
ATOM     23  C   UNL     1      10.028  11.498  20.522  0.00  0.00    +0.000 A 
ATOM     24  C   UNL     1       9.341  10.359  20.124  0.00  0.00    +0.000 A 
ATOM     25  C   UNL     1       9.012  10.156  18.779  0.00  0.00    +0.000 A 
ATOM     26  C   UNL     1       9.322  11.148  17.849  0.00  0.00    +0.000 A 
ATOM     27  C   UNL     1      10.031  12.299  18.238  0.00  0.00    +0.000 A 
BRANCH  22  29
ATOM     28  C   UNL     1      10.521  14.645  20.421  0.00  0.00    +0.000 C 
ATOM     29  O   UNL     1      11.230  13.497  19.949  0.00  0.00    +0.000 OA
ENDBRANCH  22  29
BRANCH  27  30
ATOM     30  O   UNL     1      10.256  13.136  17.176  0.00  0.00    +0.000 OA
ATOM     31  C   UNL     1      11.572  13.249  16.658  0.00  0.00    +0.000 C 
ENDBRANCH  27  30
ENDBRANCH  18  25
ENDBRANCH  17  20
ENDBRANCH   1  17
TORSDOF 8
ENDMDL
MODEL 5
REMARK VINA RESULT:      -7.9      2.530      3.724
REMARK  Name = 
REMARK  11 active torsions:
REMARK  status: ('A' for Active; 'I' for Inactive)
REMARK    1  A    between atoms: C_1  and  O_2
REMARK    2  A    between atoms: O_2  and  C_3
REMARK    3  A    between atoms: C_6  and  C_7
REMARK    4  A    between atoms: N_9  and  C_10
REMARK    5  A    between atoms: C_10  and  C_11
REMARK    6  A    between atoms: C_11  and  N_12
REMARK    7  A    between atoms: N_12  and  C_13
REMARK    8  A    between atoms: C_16  and  C_17
REMARK    9  A    between atoms: C_23  and  C_24
REMARK   10  A    between atoms: C_27  and  O_28
REMARK   11  A    between atoms: O_28  and  C_29
REMARK                            x       y       z     vdW  Elec       q    Type
REMARK                         _______ _______ _______ _____ _____    ______ ____
ROOT
ATOM      1  C   UNL     1       7.506   9.091  17.744  0.00  0.00    +0.000 C 
ENDROOT
BRANCH   1   2
ATOM      2  N   UNL     1       7.775   7.819  17.066  0.00  0.00    +0.000 N 
ATOM      3  H   UNL     1       8.705   7.480  17.292  0.00  0.00    +0.000 HD
BRANCH   2   4
ATOM      4  C   UNL     1       6.846   6.791  17.285  0.00  0.00    +0.000 A 
ATOM      5  N   UNL     1       5.532   6.971  17.130  0.00  0.00    +0.000 NA
ATOM      6  C   UNL     1       4.739   5.881  17.196  0.00  0.00    +0.000 A 
ATOM      7  C   UNL     1       3.474   5.910  17.783  0.00  0.00    +0.000 A 
ATOM      8  C   UNL     1       3.146   7.053  18.710  0.00  0.00    +0.000 C 
ATOM      9  C   UNL     1       2.668   4.757  17.794  0.00  0.00    +0.000 A 
ATOM     10  C   UNL     1       3.109   3.583  17.186  0.00  0.00    +0.000 A 
ATOM     11  C   UNL     1       4.422   3.503  16.744  0.00  0.00    +0.000 A 
ATOM     12  C   UNL     1       5.257   4.613  16.911  0.00  0.00    +0.000 A 
ATOM     13  C   UNL     1       6.631   4.466  17.105  0.00  0.00    +0.000 A 
ATOM     14  C   UNL     1       7.301   5.547  17.680  0.00  0.00    +0.000 A 
BRANCH  14  15
ATOM     15  C   UNL     1       7.493   5.447  19.126  0.00  0.00    +0.000 C 
ATOM     16  N   UNL     1       7.734   5.474  20.257  0.00  0.00    +0.000 NA
ENDBRANCH  14  15
ENDBRANCH   2   4
ENDBRANCH   1   2
BRANCH   1  17
ATOM     17  C   UNL     1       8.791   9.740  18.292  0.00  0.00    +0.000 C 
BRANCH  17  20
ATOM     18  C   UNL     1       9.996  11.922  17.958  0.00  0.00    +0.000 C 
ATOM     19  O   UNL     1      11.062  11.391  17.634  0.00  0.00    +0.000 OA
ATOM     20  N   UNL     1       8.864  11.210  18.280  0.00  0.00    +0.000 N 
ATOM     21  H   UNL     1       8.014  11.689  18.525  0.00  0.00    +0.000 HD
BRANCH  18  25
ATOM     22  C   UNL     1      10.020  16.199  17.623  0.00  0.00    +0.000 A 
ATOM     23  C   UNL     1      11.201  15.449  17.597  0.00  0.00    +0.000 A 
ATOM     24  C   UNL     1      11.159  14.069  17.739  0.00  0.00    +0.000 A 
ATOM     25  C   UNL     1       9.944  13.408  17.954  0.00  0.00    +0.000 A 
ATOM     26  C   UNL     1       8.779  14.162  18.094  0.00  0.00    +0.000 A 
ATOM     27  C   UNL     1       8.807  15.560  17.937  0.00  0.00    +0.000 A 
BRANCH  22  29
ATOM     28  C   UNL     1      11.344  18.139  17.386  0.00  0.00    +0.000 C 
ATOM     29  O   UNL     1      10.046  17.541  17.353  0.00  0.00    +0.000 OA
ENDBRANCH  22  29
BRANCH  27  30
ATOM     30  O   UNL     1       7.561  16.110  18.089  0.00  0.00    +0.000 OA
ATOM     31  C   UNL     1       7.079  16.372  19.397  0.00  0.00    +0.000 C 
ENDBRANCH  27  30
ENDBRANCH  18  25
ENDBRANCH  17  20
ENDBRANCH   1  17
TORSDOF 8
ENDMDL
MODEL 6
REMARK VINA RESULT:      -7.8      6.477      9.707
REMARK  Name = 
REMARK  11 active torsions:
REMARK  status: ('A' for Active; 'I' for Inactive)
REMARK    1  A    between atoms: C_1  and  O_2
REMARK    2  A    between atoms: O_2  and  C_3
REMARK    3  A    between atoms: C_6  and  C_7
REMARK    4  A    between atoms: N_9  and  C_10
REMARK    5  A    between atoms: C_10  and  C_11
REMARK    6  A    between atoms: C_11  and  N_12
REMARK    7  A    between atoms: N_12  and  C_13
REMARK    8  A    between atoms: C_16  and  C_17
REMARK    9  A    between atoms: C_23  and  C_24
REMARK   10  A    between atoms: C_27  and  O_28
REMARK   11  A    between atoms: O_28  and  C_29
REMARK                            x       y       z     vdW  Elec       q    Type
REMARK                         _______ _______ _______ _____ _____    ______ ____
ROOT
ATOM      1  C   UNL     1       0.921   9.621  20.581  0.00  0.00    +0.000 C 
ENDROOT
BRANCH   1   2
ATOM      2  N   UNL     1       0.529   9.660  19.168  0.00  0.00    +0.000 N 
ATOM      3  H   UNL     1       0.426   8.721  18.797  0.00  0.00    +0.000 HD
BRANCH   2   4
ATOM      4  C   UNL     1      -0.623  10.401  18.866  0.00  0.00    +0.000 A 
ATOM      5  N   UNL     1      -1.585   9.933  18.066  0.00  0.00    +0.000 NA
ATOM      6  C   UNL     1      -2.726  10.647  17.975  0.00  0.00    +0.000 A 
ATOM      7  C   UNL     1      -3.436  10.775  16.781  0.00  0.00    +0.000 A 
ATOM      8  C   UNL     1      -2.722  10.460  15.492  0.00  0.00    +0.000 C 
ATOM      9  C   UNL     1      -4.642  11.498  16.745  0.00  0.00    +0.000 A 
ATOM     10  C   UNL     1      -5.162  12.061  17.909  0.00  0.00    +0.000 A 
ATOM     11  C   UNL     1      -4.385  12.073  19.060  0.00  0.00    +0.000 A 
ATOM     12  C   UNL     1      -3.108  11.502  19.015  0.00  0.00    +0.000 A 
ATOM     13  C   UNL     1      -2.070  11.981  19.813  0.00  0.00    +0.000 A 
ATOM     14  C   UNL     1      -0.772  11.664  19.409  0.00  0.00    +0.000 A 
BRANCH  14  15
ATOM     15  C   UNL     1      -0.108  12.701  18.621  0.00  0.00    +0.000 C 
ATOM     16  N   UNL     1       0.489  13.554  18.114  0.00  0.00    +0.000 NA
ENDBRANCH  14  15
ENDBRANCH   2   4
ENDBRANCH   1   2
BRANCH   1  17
ATOM     17  C   UNL     1       1.229   8.188  21.058  0.00  0.00    +0.000 C 
BRANCH  17  20
ATOM     18  C   UNL     1       2.104   6.008  20.158  0.00  0.00    +0.000 C 
ATOM     19  O   UNL     1       1.289   5.318  20.776  0.00  0.00    +0.000 OA
ATOM     20  N   UNL     1       2.141   7.382  20.230  0.00  0.00    +0.000 N 
ATOM     21  H   UNL     1       2.818   7.901  19.696  0.00  0.00    +0.000 HD
BRANCH  18  25
ATOM     22  C   UNL     1       4.726   4.167  17.304  0.00  0.00    +0.000 A 
ATOM     23  C   UNL     1       3.334   4.123  17.166  0.00  0.00    +0.000 A 
ATOM     24  C   UNL     1       2.514   4.703  18.124  0.00  0.00    +0.000 A 
ATOM     25  C   UNL     1       3.061   5.302  19.265  0.00  0.00    +0.000 A 
ATOM     26  C   UNL     1       4.440   5.248  19.462  0.00  0.00    +0.000 A 
ATOM     27  C   UNL     1       5.282   4.676  18.491  0.00  0.00    +0.000 A 
BRANCH  22  29
ATOM     28  C   UNL     1       5.736   4.632  15.221  0.00  0.00    +0.000 C 
ATOM     29  O   UNL     1       5.535   3.713  16.298  0.00  0.00    +0.000 OA
ENDBRANCH  22  29
BRANCH  27  30
ATOM     30  O   UNL     1       6.599   4.743  18.862  0.00  0.00    +0.000 OA
ATOM     31  C   UNL     1       7.380   5.846  18.428  0.00  0.00    +0.000 C 
ENDBRANCH  27  30
ENDBRANCH  18  25
ENDBRANCH  17  20
ENDBRANCH   1  17
TORSDOF 8
ENDMDL
MODEL 7
REMARK VINA RESULT:      -7.7      6.754     10.061
REMARK  Name = 
REMARK  11 active torsions:
REMARK  status: ('A' for Active; 'I' for Inactive)
REMARK    1  A    between atoms: C_1  and  O_2
REMARK    2  A    between atoms: O_2  and  C_3
REMARK    3  A    between atoms: C_6  and  C_7
REMARK    4  A    between atoms: N_9  and  C_10
REMARK    5  A    between atoms: C_10  and  C_11
REMARK    6  A    between atoms: C_11  and  N_12
REMARK    7  A    between atoms: N_12  and  C_13
REMARK    8  A    between atoms: C_16  and  C_17
REMARK    9  A    between atoms: C_23  and  C_24
REMARK   10  A    between atoms: C_27  and  O_28
REMARK   11  A    between atoms: O_28  and  C_29
REMARK                            x       y       z     vdW  Elec       q    Type
REMARK                         _______ _______ _______ _____ _____    ______ ____
ROOT
ATOM      1  C   UNL     1       2.227   9.101  17.775  0.00  0.00    +0.000 C 
ENDROOT
BRANCH   1   2
ATOM      2  N   UNL     1       2.062   7.793  18.418  0.00  0.00    +0.000 N 
ATOM      3  H   UNL     1       1.193   7.356  18.127  0.00  0.00    +0.000 HD
BRANCH   2   4
ATOM      4  C   UNL     1       3.114   6.881  18.246  0.00  0.00    +0.000 A 
ATOM      5  N   UNL     1       4.156   7.135  17.451  0.00  0.00    +0.000 NA
ATOM      6  C   UNL     1       5.194   6.273  17.486  0.00  0.00    +0.000 A 
ATOM      7  C   UNL     1       5.921   5.929  16.346  0.00  0.00    +0.000 A 
ATOM      8  C   UNL     1       5.300   6.199  14.998  0.00  0.00    +0.000 C 
ATOM      9  C   UNL     1       7.020   5.057  16.439  0.00  0.00    +0.000 A 
ATOM     10  C   UNL     1       7.419   4.555  17.676  0.00  0.00    +0.000 A 
ATOM     11  C   UNL     1       6.609   4.765  18.783  0.00  0.00    +0.000 A 
ATOM     12  C   UNL     1       5.423   5.489  18.622  0.00  0.00    +0.000 A 
ATOM     13  C   UNL     1       4.302   5.235  19.413  0.00  0.00    +0.000 A 
ATOM     14  C   UNL     1       3.073   5.673  18.918  0.00  0.00    +0.000 A 
BRANCH  14  15
ATOM     15  C   UNL     1       2.304   4.655  18.206  0.00  0.00    +0.000 C 
ATOM     16  N   UNL     1       1.639   3.953  17.569  0.00  0.00    +0.000 NA
ENDBRANCH  14  15
ENDBRANCH   2   4
ENDBRANCH   1   2
BRANCH   1  17
ATOM     17  C   UNL     1       1.422  10.204  18.489  0.00  0.00    +0.000 C 
BRANCH  17  20
ATOM     18  C   UNL     1      -0.845  11.274  18.685  0.00  0.00    +0.000 C 
ATOM     19  O   UNL     1      -0.475  12.131  19.493  0.00  0.00    +0.000 OA
ATOM     20  N   UNL     1      -0.005  10.324  18.151  0.00  0.00    +0.000 N 
ATOM     21  H   UNL     1      -0.353   9.654  17.485  0.00  0.00    +0.000 HD
BRANCH  18  25
ATOM     22  C   UNL     1      -4.948  11.748  17.521  0.00  0.00    +0.000 A 
ATOM     23  C   UNL     1      -4.511  12.028  18.821  0.00  0.00    +0.000 A 
ATOM     24  C   UNL     1      -3.182  11.834  19.172  0.00  0.00    +0.000 A 
ATOM     25  C   UNL     1      -2.267  11.315  18.248  0.00  0.00    +0.000 A 
ATOM     26  C   UNL     1      -2.722  10.928  16.989  0.00  0.00    +0.000 A 
ATOM     27  C   UNL     1      -4.064  11.134  16.617  0.00  0.00    +0.000 A 
BRANCH  22  29
ATOM     28  C   UNL     1      -6.471  13.456  16.940  0.00  0.00    +0.000 C 
ATOM     29  O   UNL     1      -6.224  12.061  17.138  0.00  0.00    +0.000 OA
ENDBRANCH  22  29
BRANCH  27  30
ATOM     30  O   UNL     1      -4.303  10.710  15.336  0.00  0.00    +0.000 OA
ATOM     31  C   UNL     1      -3.228  10.182  14.575  0.00  0.00    +0.000 C 
ENDBRANCH  27  30
ENDBRANCH  18  25
ENDBRANCH  17  20
ENDBRANCH   1  17
TORSDOF 8
ENDMDL
MODEL 8
REMARK VINA RESULT:      -7.7      6.582      9.315
REMARK  Name = 
REMARK  11 active torsions:
REMARK  status: ('A' for Active; 'I' for Inactive)
REMARK    1  A    between atoms: C_1  and  O_2
REMARK    2  A    between atoms: O_2  and  C_3
REMARK    3  A    between atoms: C_6  and  C_7
REMARK    4  A    between atoms: N_9  and  C_10
REMARK    5  A    between atoms: C_10  and  C_11
REMARK    6  A    between atoms: C_11  and  N_12
REMARK    7  A    between atoms: N_12  and  C_13
REMARK    8  A    between atoms: C_16  and  C_17
REMARK    9  A    between atoms: C_23  and  C_24
REMARK   10  A    between atoms: C_27  and  O_28
REMARK   11  A    between atoms: O_28  and  C_29
REMARK                            x       y       z     vdW  Elec       q    Type
REMARK                         _______ _______ _______ _____ _____    ______ ____
ROOT
ATOM      1  C   UNL     1       2.190   8.434  18.651  0.00  0.00    +0.000 C 
ENDROOT
BRANCH   1   2
ATOM      2  N   UNL     1       3.247   7.682  17.967  0.00  0.00    +0.000 N 
ATOM      3  H   UNL     1       4.164   8.031  18.229  0.00  0.00    +0.000 HD
BRANCH   2   4
ATOM      4  C   UNL     1       3.221   6.289  18.131  0.00  0.00    +0.000 A 
ATOM      5  N   UNL     1       2.195   5.657  18.706  0.00  0.00    +0.000 NA
ATOM      6  C   UNL     1       2.188   4.308  18.663  0.00  0.00    +0.000 A 
ATOM      7  C   UNL     1       1.726   3.527  19.722  0.00  0.00    +0.000 A 
ATOM      8  C   UNL     1       1.611   4.169  21.082  0.00  0.00    +0.000 C 
ATOM      9  C   UNL     1       1.702   2.125  19.615  0.00  0.00    +0.000 A 
ATOM     10  C   UNL     1       2.104   1.501  18.435  0.00  0.00    +0.000 A 
ATOM     11  C   UNL     1       2.711   2.259  17.443  0.00  0.00    +0.000 A 
ATOM     12  C   UNL     1       2.884   3.631  17.656  0.00  0.00    +0.000 A 
ATOM     13  C   UNL     1       3.959   4.322  17.097  0.00  0.00    +0.000 A 
ATOM     14  C   UNL     1       4.296   5.540  17.690  0.00  0.00    +0.000 A 
BRANCH  14  15
ATOM     15  C   UNL     1       5.375   5.463  18.673  0.00  0.00    +0.000 C 
ATOM     16  N   UNL     1       6.138   5.336  19.534  0.00  0.00    +0.000 NA
ENDBRANCH  14  15
ENDBRANCH   2   4
ENDBRANCH   1   2
BRANCH   1  17
ATOM     17  C   UNL     1       1.781   9.700  17.871  0.00  0.00    +0.000 C 
BRANCH  17  20
ATOM     18  C   UNL     1      -0.212  11.152  18.367  0.00  0.00    +0.000 C 
ATOM     19  O   UNL     1       0.445  12.014  18.956  0.00  0.00    +0.000 OA
ATOM     20  N   UNL     1       0.346  10.022  17.813  0.00  0.00    +0.000 N 
ATOM     21  H   UNL     1      -0.231   9.354  17.330  0.00  0.00    +0.000 HD
BRANCH  18  25
ATOM     22  C   UNL     1      -4.461  11.468  17.865  0.00  0.00    +0.000 A 
ATOM     23  C   UNL     1      -3.627  11.015  16.837  0.00  0.00    +0.000 A 
ATOM     24  C   UNL     1      -2.252  10.954  17.023  0.00  0.00    +0.000 A 
ATOM     25  C   UNL     1      -1.674  11.385  18.223  0.00  0.00    +0.000 A 
ATOM     26  C   UNL     1      -2.490  11.943  19.205  0.00  0.00    +0.000 A 
ATOM     27  C   UNL     1      -3.885  11.996  19.034  0.00  0.00    +0.000 A 
BRANCH  22  29
ATOM     28  C   UNL     1      -6.437  12.597  17.234  0.00  0.00    +0.000 C 
ATOM     29  O   UNL     1      -5.822  11.405  17.730  0.00  0.00    +0.000 OA
ENDBRANCH  22  29
BRANCH  27  30
ATOM     30  O   UNL     1      -4.506  12.556  20.120  0.00  0.00    +0.000 OA
ATOM     31  C   UNL     1      -3.742  12.831  21.283  0.00  0.00    +0.000 C 
ENDBRANCH  27  30
ENDBRANCH  18  25
ENDBRANCH  17  20
ENDBRANCH   1  17
TORSDOF 8
ENDMDL
MODEL 9
REMARK VINA RESULT:      -7.7      6.840     10.173
REMARK  Name = 
REMARK  11 active torsions:
REMARK  status: ('A' for Active; 'I' for Inactive)
REMARK    1  A    between atoms: C_1  and  O_2
REMARK    2  A    between atoms: O_2  and  C_3
REMARK    3  A    between atoms: C_6  and  C_7
REMARK    4  A    between atoms: N_9  and  C_10
REMARK    5  A    between atoms: C_10  and  C_11
REMARK    6  A    between atoms: C_11  and  N_12
REMARK    7  A    between atoms: N_12  and  C_13
REMARK    8  A    between atoms: C_16  and  C_17
REMARK    9  A    between atoms: C_23  and  C_24
REMARK   10  A    between atoms: C_27  and  O_28
REMARK   11  A    between atoms: O_28  and  C_29
REMARK                            x       y       z     vdW  Elec       q    Type
REMARK                         _______ _______ _______ _____ _____    ______ ____
ROOT
ATOM      1  C   UNL     1      -0.007   9.245  20.744  0.00  0.00    +0.000 C 
ENDROOT
BRANCH   1   2
ATOM      2  N   UNL     1       0.171  10.460  19.942  0.00  0.00    +0.000 N 
ATOM      3  H   UNL     1       0.832  10.299  19.188  0.00  0.00    +0.000 HD
BRANCH   2   4
ATOM      4  C   UNL     1      -0.996  11.032  19.416  0.00  0.00    +0.000 A 
ATOM      5  N   UNL     1      -1.780  10.386  18.548  0.00  0.00    +0.000 NA
ATOM      6  C   UNL     1      -2.964  10.951  18.234  0.00  0.00    +0.000 A 
ATOM      7  C   UNL     1      -3.506  10.891  16.950  0.00  0.00    +0.000 A 
ATOM      8  C   UNL     1      -2.586  10.550  15.806  0.00  0.00    +0.000 C 
ATOM      9  C   UNL     1      -4.763  11.461  16.681  0.00  0.00    +0.000 A 
ATOM     10  C   UNL     1      -5.499  12.059  17.702  0.00  0.00    +0.000 A 
ATOM     11  C   UNL     1      -4.900  12.262  18.938  0.00  0.00    +0.000 A 
ATOM     12  C   UNL     1      -3.578  11.842  19.121  0.00  0.00    +0.000 A 
ATOM     13  C   UNL     1      -2.719  12.508  19.996  0.00  0.00    +0.000 A 
ATOM     14  C   UNL     1      -1.351  12.311  19.802  0.00  0.00    +0.000 A 
BRANCH  14  15
ATOM     15  C   UNL     1      -0.693  13.346  19.007  0.00  0.00    +0.000 C 
ATOM     16  N   UNL     1      -0.158  14.237  18.497  0.00  0.00    +0.000 NA
ENDBRANCH  14  15
ENDBRANCH   2   4
ENDBRANCH   1   2
BRANCH   1  17
ATOM     17  C   UNL     1       1.339   8.629  21.172  0.00  0.00    +0.000 C 
BRANCH  17  20
ATOM     18  C   UNL     1       2.290   7.760  19.012  0.00  0.00    +0.000 C 
ATOM     19  O   UNL     1       2.220   8.849  18.435  0.00  0.00    +0.000 OA
ATOM     20  N   UNL     1       1.899   7.570  20.318  0.00  0.00    +0.000 N 
ATOM     21  H   UNL     1       1.988   6.665  20.748  0.00  0.00    +0.000 HD
BRANCH  18  25
ATOM     22  C   UNL     1       4.279   4.550  16.975  0.00  0.00    +0.000 A 
ATOM     23  C   UNL     1       4.692   5.881  16.841  0.00  0.00    +0.000 A 
ATOM     24  C   UNL     1       4.007   6.898  17.490  0.00  0.00    +0.000 A 
ATOM     25  C   UNL     1       2.867   6.619  18.253  0.00  0.00    +0.000 A 
ATOM     26  C   UNL     1       2.385   5.312  18.296  0.00  0.00    +0.000 A 
ATOM     27  C   UNL     1       3.080   4.270  17.654  0.00  0.00    +0.000 A 
BRANCH  22  29
ATOM     28  C   UNL     1       6.044   3.950  15.526  0.00  0.00    +0.000 C 
ATOM     29  O   UNL     1       5.028   3.536  16.444  0.00  0.00    +0.000 OA
ENDBRANCH  22  29
BRANCH  27  30
ATOM     30  O   UNL     1       2.458   3.062  17.836  0.00  0.00    +0.000 OA
ATOM     31  C   UNL     1       1.216   3.024  18.521  0.00  0.00    +0.000 C 
ENDBRANCH  27  30
ENDBRANCH  18  25
ENDBRANCH  17  20
ENDBRANCH   1  17
TORSDOF 8
ENDMDL
