MODEL 1
REMARK VINA RESULT:      -7.8      0.000      0.000
REMARK  Name = 
REMARK  6 active torsions:
REMARK  status: ('A' for Active; 'I' for Inactive)
REMARK    1  A    between atoms: C_1  and  C_2
REMARK    2  A    between atoms: C_2  and  N_3
REMARK    3  A    between atoms: C_2  and  C_20
REMARK    4  A    between atoms: C_4  and  C_6
REMARK    5  A    between atoms: C_6  and  N_7
REMARK    6  A    between atoms: C_8  and  C_10
REMARK                            x       y       z     vdW  Elec       q    Type
REMARK                         _______ _______ _______ _____ _____    ______ ____
ROOT
ATOM      1  N   UNL     1       1.946   7.786  20.299  0.00  0.00    +0.000 N 
ATOM      2  C   UNL     1       2.075   6.425  20.117  0.00  0.00    +0.000 C 
ATOM      3  O   UNL     1       1.481   5.658  20.872  0.00  0.00    +0.000 OA
ATOM      4  H   UNL     1       2.285   8.421  19.587  0.00  0.00    +0.000 HD
ENDROOT
BRANCH   2   5
ATOM      5  C   UNL     1       2.911   5.999  19.002  0.00  0.00    +0.000 A 
ATOM      6  S   UNL     1       3.495   7.217  17.943  0.00  0.00    +0.000 S 
ATOM      7  C   UNL     1       4.367   6.102  16.977  0.00  0.00    +0.000 A 
ATOM      8  C   UNL     1       5.165   6.405  15.855  0.00  0.00    +0.000 A 
ATOM      9  C   UNL     1       5.811   5.368  15.183  0.00  0.00    +0.000 A 
ATOM     10  C   UNL     1       5.666   4.056  15.608  0.00  0.00    +0.000 A 
ATOM     11  C   UNL     1       4.871   3.762  16.719  0.00  0.00    +0.000 A 
ATOM     12  C   UNL     1       4.203   4.794  17.432  0.00  0.00    +0.000 A 
ATOM     13  C   UNL     1       3.353   4.752  18.596  0.00  0.00    +0.000 A 
ATOM     14 CL   UNL     1       2.988   3.249  19.358  0.00  0.00    +0.000 Cl
ENDBRANCH   2   5
BRANCH   1  15
ATOM     15  C   UNL     1       1.115   8.330  21.350  0.00  0.00    +0.000 C 
BRANCH  15  17
ATOM     16  N   UNL     1      -0.410   9.838  20.184  0.00  0.00    +0.000 N 
ATOM     17  C   UNL     1       0.688   9.758  21.015  0.00  0.00    +0.000 C 
ATOM     18  O   UNL     1       1.309  10.738  21.421  0.00  0.00    +0.000 OA
ATOM     19  H   UNL     1      -0.635   9.004  19.646  0.00  0.00    +0.000 HD
BRANCH  16  21
ATOM     20  C   UNL     1      -1.642  11.829  20.895  0.00  0.00    +0.000 C 
ATOM     21  C   UNL     1      -0.941  11.118  19.734  0.00  0.00    +0.000 C 
BRANCH  21  22
ATOM     22  C   UNL     1      -1.872  10.938  18.557  0.00  0.00    +0.000 A 
ATOM     23  C   UNL     1      -1.568  10.077  17.496  0.00  0.00    +0.000 A 
ATOM     24  C   UNL     1      -2.440   9.964  16.418  0.00  0.00    +0.000 A 
ATOM     25  C   UNL     1      -3.602  10.714  16.435  0.00  0.00    +0.000 A 
ATOM     26  N   UNL     1      -3.946  11.540  17.445  0.00  0.00    +0.000 NA
ATOM     27  C   UNL     1      -3.074  11.637  18.477  0.00  0.00    +0.000 A 
ENDBRANCH  21  22
ENDBRANCH  16  21
ENDBRANCH  15  17
ENDBRANCH   1  15
TORSDOF 5
ENDMDL
MODEL 2
REMARK VINA RESULT:      -7.7      3.425      8.692
REMARK  Name = 
REMARK  6 active torsions:
REMARK  status: ('A' for Active; 'I' for Inactive)
REMARK    1  A    between atoms: C_1  and  C_2
REMARK    2  A    between atoms: C_2  and  N_3
REMARK    3  A    between atoms: C_2  and  C_20
REMARK    4  A    between atoms: C_4  and  C_6
REMARK    5  A    between atoms: C_6  and  N_7
REMARK    6  A    between atoms: C_8  and  C_10
REMARK                            x       y       z     vdW  Elec       q    Type
REMARK                         _______ _______ _______ _____ _____    ______ ____
ROOT
ATOM      1  N   UNL     1       0.607   9.493  17.949  0.00  0.00    +0.000 N 
ATOM      2  C   UNL     1       0.309  10.714  18.516  0.00  0.00    +0.000 C 
ATOM      3  O   UNL     1       1.219  11.407  18.970  0.00  0.00    +0.000 OA
ATOM      4  H   UNL     1      -0.101   8.999  17.423  0.00  0.00    +0.000 HD
ENDROOT
BRANCH   2   5
ATOM      5  C   UNL     1      -1.096  11.102  18.514  0.00  0.00    +0.000 A 
ATOM      6  S   UNL     1      -2.038  10.641  17.156  0.00  0.00    +0.000 S 
ATOM      7  C   UNL     1      -3.475  11.327  17.791  0.00  0.00    +0.000 A 
ATOM      8  C   UNL     1      -4.751  11.314  17.192  0.00  0.00    +0.000 A 
ATOM      9  C   UNL     1      -5.817  11.922  17.855  0.00  0.00    +0.000 A 
ATOM     10  C   UNL     1      -5.624  12.537  19.083  0.00  0.00    +0.000 A 
ATOM     11  C   UNL     1      -4.355  12.550  19.669  0.00  0.00    +0.000 A 
ATOM     12  C   UNL     1      -3.248  11.935  19.026  0.00  0.00    +0.000 A 
ATOM     13  C   UNL     1      -1.868  11.803  19.424  0.00  0.00    +0.000 A 
ATOM     14 CL   UNL     1      -1.321  12.469  20.917  0.00  0.00    +0.000 Cl
ENDBRANCH   2   5
BRANCH   1  15
ATOM     15  C   UNL     1       1.969   9.017  17.862  0.00  0.00    +0.000 C 
BRANCH  15  17
ATOM     16  N   UNL     1       3.035   6.925  18.529  0.00  0.00    +0.000 N 
ATOM     17  C   UNL     1       2.247   7.976  18.946  0.00  0.00    +0.000 C 
ATOM     18  O   UNL     1       1.761   8.061  20.072  0.00  0.00    +0.000 OA
ATOM     19  H   UNL     1       3.101   6.775  17.525  0.00  0.00    +0.000 HD
BRANCH  16  21
ATOM     20  C   UNL     1       4.840   5.417  19.208  0.00  0.00    +0.000 C 
ATOM     21  C   UNL     1       3.379   5.823  19.419  0.00  0.00    +0.000 C 
BRANCH  21  22
ATOM     22  C   UNL     1       2.448   4.650  19.218  0.00  0.00    +0.000 A 
ATOM     23  C   UNL     1       1.559   4.228  20.214  0.00  0.00    +0.000 A 
ATOM     24  C   UNL     1       0.741   3.125  19.997  0.00  0.00    +0.000 A 
ATOM     25  C   UNL     1       0.830   2.473  18.780  0.00  0.00    +0.000 A 
ATOM     26  N   UNL     1       1.656   2.856  17.784  0.00  0.00    +0.000 NA
ATOM     27  C   UNL     1       2.448   3.928  18.026  0.00  0.00    +0.000 A 
ENDBRANCH  21  22
ENDBRANCH  16  21
ENDBRANCH  15  17
ENDBRANCH   1  15
TORSDOF 5
ENDMDL
MODEL 3
REMARK VINA RESULT:      -7.6      3.293      8.728
REMARK  Name = 
REMARK  6 active torsions:
REMARK  status: ('A' for Active; 'I' for Inactive)
REMARK    1  A    between atoms: C_1  and  C_2
REMARK    2  A    between atoms: C_2  and  N_3
REMARK    3  A    between atoms: C_2  and  C_20
REMARK    4  A    between atoms: C_4  and  C_6
REMARK    5  A    between atoms: C_6  and  N_7
REMARK    6  A    between atoms: C_8  and  C_10
REMARK                            x       y       z     vdW  Elec       q    Type
REMARK                         _______ _______ _______ _____ _____    ______ ____
ROOT
ATOM      1  N   UNL     1       0.628   9.457  18.114  0.00  0.00    +0.000 N 
ATOM      2  C   UNL     1       0.429  10.750  18.549  0.00  0.00    +0.000 C 
ATOM      3  O   UNL     1       1.402  11.472  18.761  0.00  0.00    +0.000 OA
ATOM      4  H   UNL     1      -0.156   8.917  17.774  0.00  0.00    +0.000 HD
ENDROOT
BRANCH   2   5
ATOM      5  C   UNL     1      -0.958  11.172  18.708  0.00  0.00    +0.000 A 
ATOM      6  S   UNL     1      -1.345  12.098  20.100  0.00  0.00    +0.000 S 
ATOM      7  C   UNL     1      -2.991  12.267  19.655  0.00  0.00    +0.000 A 
ATOM      8  C   UNL     1      -3.986  12.974  20.361  0.00  0.00    +0.000 A 
ATOM      9  C   UNL     1      -5.283  13.011  19.849  0.00  0.00    +0.000 A 
ATOM     10  C   UNL     1      -5.592  12.357  18.666  0.00  0.00    +0.000 A 
ATOM     11  C   UNL     1      -4.601  11.655  17.973  0.00  0.00    +0.000 A 
ATOM     12  C   UNL     1      -3.268  11.601  18.461  0.00  0.00    +0.000 A 
ATOM     13  C   UNL     1      -2.085  10.967  17.934  0.00  0.00    +0.000 A 
ATOM     14 CL   UNL     1      -2.155  10.075  16.460  0.00  0.00    +0.000 Cl
ENDBRANCH   2   5
BRANCH   1  15
ATOM     15  C   UNL     1       1.958   8.937  17.886  0.00  0.00    +0.000 C 
BRANCH  15  17
ATOM     16  N   UNL     1       3.109   6.859  18.448  0.00  0.00    +0.000 N 
ATOM     17  C   UNL     1       2.305   7.872  18.926  0.00  0.00    +0.000 C 
ATOM     18  O   UNL     1       1.858   7.907  20.071  0.00  0.00    +0.000 OA
ATOM     19  H   UNL     1       3.142   6.742  17.438  0.00  0.00    +0.000 HD
BRANCH  16  21
ATOM     20  C   UNL     1       4.954   5.331  18.952  0.00  0.00    +0.000 C 
ATOM     21  C   UNL     1       3.518   5.741  19.289  0.00  0.00    +0.000 C 
BRANCH  21  22
ATOM     22  C   UNL     1       2.565   4.576  19.148  0.00  0.00    +0.000 A 
ATOM     23  C   UNL     1       1.671   4.221  20.164  0.00  0.00    +0.000 A 
ATOM     24  C   UNL     1       0.832   3.124  20.004  0.00  0.00    +0.000 A 
ATOM     25  C   UNL     1       0.907   2.410  18.821  0.00  0.00    +0.000 A 
ATOM     26  N   UNL     1       1.738   2.729  17.806  0.00  0.00    +0.000 NA
ATOM     27  C   UNL     1       2.550   3.797  17.993  0.00  0.00    +0.000 A 
ENDBRANCH  21  22
ENDBRANCH  16  21
ENDBRANCH  15  17
ENDBRANCH   1  15
TORSDOF 5
ENDMDL
MODEL 4
REMARK VINA RESULT:      -7.5      3.660      8.552
REMARK  Name = 
REMARK  6 active torsions:
REMARK  status: ('A' for Active; 'I' for Inactive)
REMARK    1  A    between atoms: C_1  and  C_2
REMARK    2  A    between atoms: C_2  and  N_3
REMARK    3  A    between atoms: C_2  and  C_20
REMARK    4  A    between atoms: C_4  and  C_6
REMARK    5  A    between atoms: C_6  and  N_7
REMARK    6  A    between atoms: C_8  and  C_10
REMARK                            x       y       z     vdW  Elec       q    Type
REMARK                         _______ _______ _______ _____ _____    ______ ____
ROOT
ATOM      1  N   UNL     1       2.513   7.962  18.527  0.00  0.00    +0.000 N 
ATOM      2  C   UNL     1       1.942   9.200  18.321  0.00  0.00    +0.000 C 
ATOM      3  O   UNL     1       2.157   9.795  17.266  0.00  0.00    +0.000 OA
ATOM      4  H   UNL     1       2.208   7.394  19.306  0.00  0.00    +0.000 HD
ENDROOT
BRANCH   2   5
ATOM      5  C   UNL     1       1.092   9.707  19.393  0.00  0.00    +0.000 A 
ATOM      6  S   UNL     1       1.023   8.791  20.842  0.00  0.00    +0.000 S 
ATOM      7  C   UNL     1      -0.035   9.898  21.611  0.00  0.00    +0.000 A 
ATOM      8  C   UNL     1      -0.542   9.805  22.923  0.00  0.00    +0.000 A 
ATOM      9  C   UNL     1      -1.395  10.804  23.392  0.00  0.00    +0.000 A 
ATOM     10  C   UNL     1      -1.746  11.870  22.577  0.00  0.00    +0.000 A 
ATOM     11  C   UNL     1      -1.243  11.953  21.275  0.00  0.00    +0.000 A 
ATOM     12  C   UNL     1      -0.367  10.958  20.767  0.00  0.00    +0.000 A 
ATOM     13  C   UNL     1       0.286  10.826  19.488  0.00  0.00    +0.000 A 
ATOM     14 CL   UNL     1       0.044  12.010  18.257  0.00  0.00    +0.000 Cl
ENDBRANCH   2   5
BRANCH   1  15
ATOM     15  C   UNL     1       3.347   7.342  17.522  0.00  0.00    +0.000 C 
BRANCH  15  17
ATOM     16  N   UNL     1       3.083   4.921  17.698  0.00  0.00    +0.000 N 
ATOM     17  C   UNL     1       3.881   5.999  18.019  0.00  0.00    +0.000 C 
ATOM     18  O   UNL     1       4.910   5.912  18.687  0.00  0.00    +0.000 OA
ATOM     19  H   UNL     1       2.118   5.127  17.451  0.00  0.00    +0.000 HD
BRANCH  16  21
ATOM     20  C   UNL     1       3.033   2.571  17.017  0.00  0.00    +0.000 C 
ATOM     21  C   UNL     1       3.419   3.566  18.115  0.00  0.00    +0.000 C 
BRANCH  21  22
ATOM     22  C   UNL     1       2.756   3.220  19.428  0.00  0.00    +0.000 A 
ATOM     23  C   UNL     1       1.377   3.366  19.625  0.00  0.00    +0.000 A 
ATOM     24  C   UNL     1       0.813   3.064  20.859  0.00  0.00    +0.000 A 
ATOM     25  C   UNL     1       1.647   2.614  21.868  0.00  0.00    +0.000 A 
ATOM     26  N   UNL     1       2.976   2.438  21.717  0.00  0.00    +0.000 NA
ATOM     27  C   UNL     1       3.500   2.749  20.507  0.00  0.00    +0.000 A 
ENDBRANCH  21  22
ENDBRANCH  16  21
ENDBRANCH  15  17
ENDBRANCH   1  15
TORSDOF 5
ENDMDL
MODEL 5
REMARK VINA RESULT:      -7.5      6.000      8.810
REMARK  Name = 
REMARK  6 active torsions:
REMARK  status: ('A' for Active; 'I' for Inactive)
REMARK    1  A    between atoms: C_1  and  C_2
REMARK    2  A    between atoms: C_2  and  N_3
REMARK    3  A    between atoms: C_2  and  C_20
REMARK    4  A    between atoms: C_4  and  C_6
REMARK    5  A    between atoms: C_6  and  N_7
REMARK    6  A    between atoms: C_8  and  C_10
REMARK                            x       y       z     vdW  Elec       q    Type
REMARK                         _______ _______ _______ _____ _____    ______ ____
ROOT
ATOM      1  N   UNL     1       6.221   7.512  17.849  0.00  0.00    +0.000 N 
ATOM      2  C   UNL     1       5.529   6.544  17.151  0.00  0.00    +0.000 C 
ATOM      3  O   UNL     1       5.758   6.385  15.953  0.00  0.00    +0.000 OA
ATOM      4  H   UNL     1       6.168   7.535  18.858  0.00  0.00    +0.000 HD
ENDROOT
BRANCH   2   5
ATOM      5  C   UNL     1       4.571   5.756  17.917  0.00  0.00    +0.000 A 
ATOM      6  S   UNL     1       4.955   4.108  18.200  0.00  0.00    +0.000 S 
ATOM      7  C   UNL     1       3.535   3.828  19.118  0.00  0.00    +0.000 A 
ATOM      8  C   UNL     1       3.157   2.620  19.738  0.00  0.00    +0.000 A 
ATOM      9  C   UNL     1       1.960   2.571  20.453  0.00  0.00    +0.000 A 
ATOM     10  C   UNL     1       1.150   3.692  20.547  0.00  0.00    +0.000 A 
ATOM     11  C   UNL     1       1.528   4.886  19.926  0.00  0.00    +0.000 A 
ATOM     12  C   UNL     1       2.744   4.974  19.195  0.00  0.00    +0.000 A 
ATOM     13  C   UNL     1       3.352   6.075  18.489  0.00  0.00    +0.000 A 
ATOM     14 CL   UNL     1       2.576   7.613  18.431  0.00  0.00    +0.000 Cl
ENDBRANCH   2   5
BRANCH   1  15
ATOM     15  C   UNL     1       7.221   8.333  17.205  0.00  0.00    +0.000 C 
BRANCH  15  17
ATOM     16  N   UNL     1       8.696  10.067  18.085  0.00  0.00    +0.000 N 
ATOM     17  C   UNL     1       8.299   8.752  18.203  0.00  0.00    +0.000 C 
ATOM     18  O   UNL     1       8.792   7.959  19.003  0.00  0.00    +0.000 OA
ATOM     19  H   UNL     1       8.485  10.529  17.204  0.00  0.00    +0.000 HD
BRANCH  16  21
ATOM     20  C   UNL     1       9.202  10.827  20.356  0.00  0.00    +0.000 C 
ATOM     21  C   UNL     1       9.736  10.635  18.934  0.00  0.00    +0.000 C 
BRANCH  21  22
ATOM     22  C   UNL     1      10.256  11.934  18.362  0.00  0.00    +0.000 A 
ATOM     23  C   UNL     1      11.332  11.972  17.468  0.00  0.00    +0.000 A 
ATOM     24  C   UNL     1      11.798  13.192  16.989  0.00  0.00    +0.000 A 
ATOM     25  C   UNL     1      11.167  14.347  17.416  0.00  0.00    +0.000 A 
ATOM     26  N   UNL     1      10.113  14.356  18.259  0.00  0.00    +0.000 NA
ATOM     27  C   UNL     1       9.687  13.155  18.717  0.00  0.00    +0.000 A 
ENDBRANCH  21  22
ENDBRANCH  16  21
ENDBRANCH  15  17
ENDBRANCH   1  15
TORSDOF 5
ENDMDL
MODEL 6
REMARK VINA RESULT:      -7.5      3.301      9.154
REMARK  Name = 
REMARK  6 active torsions:
REMARK  status: ('A' for Active; 'I' for Inactive)
REMARK    1  A    between atoms: C_1  and  C_2
REMARK    2  A    between atoms: C_2  and  N_3
REMARK    3  A    between atoms: C_2  and  C_20
REMARK    4  A    between atoms: C_4  and  C_6
REMARK    5  A    between atoms: C_6  and  N_7
REMARK    6  A    between atoms: C_8  and  C_10
REMARK                            x       y       z     vdW  Elec       q    Type
REMARK                         _______ _______ _______ _____ _____    ______ ____
ROOT
ATOM      1  N   UNL     1       0.100   9.753  19.489  0.00  0.00    +0.000 N 
ATOM      2  C   UNL     1      -0.245  11.058  19.207  0.00  0.00    +0.000 C 
ATOM      3  O   UNL     1       0.636  11.914  19.139  0.00  0.00    +0.000 OA
ATOM      4  H   UNL     1      -0.586   9.018  19.378  0.00  0.00    +0.000 HD
ENDROOT
BRANCH   2   5
ATOM      5  C   UNL     1      -1.663  11.318  18.989  0.00  0.00    +0.000 A 
ATOM      6  S   UNL     1      -2.458  12.341  20.115  0.00  0.00    +0.000 S 
ATOM      7  C   UNL     1      -3.958  12.251  19.290  0.00  0.00    +0.000 A 
ATOM      8  C   UNL     1      -5.156  12.903  19.648  0.00  0.00    +0.000 A 
ATOM      9  C   UNL     1      -6.290  12.721  18.856  0.00  0.00    +0.000 A 
ATOM     10  C   UNL     1      -6.242  11.903  17.737  0.00  0.00    +0.000 A 
ATOM     11  C   UNL     1      -5.052  11.256  17.390  0.00  0.00    +0.000 A 
ATOM     12  C   UNL     1      -3.877  11.425  18.169  0.00  0.00    +0.000 A 
ATOM     13  C   UNL     1      -2.547  10.888  18.016  0.00  0.00    +0.000 A 
ATOM     14 CL   UNL     1      -2.176   9.833  16.703  0.00  0.00    +0.000 Cl
ENDBRANCH   2   5
BRANCH   1  15
ATOM     15  C   UNL     1       1.479   9.367  19.691  0.00  0.00    +0.000 C 
BRANCH  15  17
ATOM     16  N   UNL     1       2.486   7.283  18.915  0.00  0.00    +0.000 N 
ATOM     17  C   UNL     1       1.972   8.503  18.530  0.00  0.00    +0.000 C 
ATOM     18  O   UNL     1       1.948   8.898  17.367  0.00  0.00    +0.000 OA
ATOM     19  H   UNL     1       2.766   7.193  19.889  0.00  0.00    +0.000 HD
BRANCH  16  21
ATOM     20  C   UNL     1       2.250   5.022  18.006  0.00  0.00    +0.000 C 
ATOM     21  C   UNL     1       3.030   6.339  17.947  0.00  0.00    +0.000 C 
BRANCH  21  22
ATOM     22  C   UNL     1       4.507   6.114  18.177  0.00  0.00    +0.000 A 
ATOM     23  C   UNL     1       5.479   6.626  17.310  0.00  0.00    +0.000 A 
ATOM     24  C   UNL     1       6.826   6.370  17.543  0.00  0.00    +0.000 A 
ATOM     25  C   UNL     1       7.166   5.609  18.648  0.00  0.00    +0.000 A 
ATOM     26  N   UNL     1       6.265   5.114  19.522  0.00  0.00    +0.000 NA
ATOM     27  C   UNL     1       4.960   5.371  19.265  0.00  0.00    +0.000 A 
ENDBRANCH  21  22
ENDBRANCH  16  21
ENDBRANCH  15  17
ENDBRANCH   1  15
TORSDOF 5
ENDMDL
MODEL 7
REMARK VINA RESULT:      -7.4      5.845      8.661
REMARK  Name = 
REMARK  6 active torsions:
REMARK  status: ('A' for Active; 'I' for Inactive)
REMARK    1  A    between atoms: C_1  and  C_2
REMARK    2  A    between atoms: C_2  and  N_3
REMARK    3  A    between atoms: C_2  and  C_20
REMARK    4  A    between atoms: C_4  and  C_6
REMARK    5  A    between atoms: C_6  and  N_7
REMARK    6  A    between atoms: C_8  and  C_10
REMARK                            x       y       z     vdW  Elec       q    Type
REMARK                         _______ _______ _______ _____ _____    ______ ____
ROOT
ATOM      1  N   UNL     1       6.126   7.339  17.661  0.00  0.00    +0.000 N 
ATOM      2  C   UNL     1       5.204   6.705  16.855  0.00  0.00    +0.000 C 
ATOM      3  O   UNL     1       5.201   6.936  15.646  0.00  0.00    +0.000 OA
ATOM      4  H   UNL     1       6.251   7.031  18.616  0.00  0.00    +0.000 HD
ENDROOT
BRANCH   2   5
ATOM      5  C   UNL     1       4.299   5.774  17.517  0.00  0.00    +0.000 A 
ATOM      6  S   UNL     1       3.249   6.413  18.715  0.00  0.00    +0.000 S 
ATOM      7  C   UNL     1       2.503   4.899  19.014  0.00  0.00    +0.000 A 
ATOM      8  C   UNL     1       1.458   4.641  19.924  0.00  0.00    +0.000 A 
ATOM      9  C   UNL     1       0.964   3.341  20.038  0.00  0.00    +0.000 A 
ATOM     10  C   UNL     1       1.499   2.316  19.273  0.00  0.00    +0.000 A 
ATOM     11  C   UNL     1       2.538   2.578  18.375  0.00  0.00    +0.000 A 
ATOM     12  C   UNL     1       3.060   3.891  18.228  0.00  0.00    +0.000 A 
ATOM     13  C   UNL     1       4.101   4.412  17.376  0.00  0.00    +0.000 A 
ATOM     14 CL   UNL     1       4.954   3.369  16.300  0.00  0.00    +0.000 Cl
ENDBRANCH   2   5
BRANCH   1  15
ATOM     15  C   UNL     1       7.098   8.258  17.114  0.00  0.00    +0.000 C 
BRANCH  15  17
ATOM     16  N   UNL     1       8.536   9.918  18.180  0.00  0.00    +0.000 N 
ATOM     17  C   UNL     1       8.171   8.589  18.151  0.00  0.00    +0.000 C 
ATOM     18  O   UNL     1       8.687   7.723  18.855  0.00  0.00    +0.000 OA
ATOM     19  H   UNL     1       8.309  10.470  17.356  0.00  0.00    +0.000 HD
BRANCH  16  21
ATOM     20  C   UNL     1       8.991  10.570  20.495  0.00  0.00    +0.000 C 
ATOM     21  C   UNL     1       9.566  10.412  19.085  0.00  0.00    +0.000 C 
BRANCH  21  22
ATOM     22  C   UNL     1      10.155  11.710  18.583  0.00  0.00    +0.000 A 
ATOM     23  C   UNL     1      11.132  11.743  17.581  0.00  0.00    +0.000 A 
ATOM     24  C   UNL     1      11.668  12.958  17.169  0.00  0.00    +0.000 A 
ATOM     25  C   UNL     1      11.205  14.115  17.770  0.00  0.00    +0.000 A 
ATOM     26  N   UNL     1      10.250  14.132  18.723  0.00  0.00    +0.000 NA
ATOM     27  C   UNL     1       9.752  12.934  19.111  0.00  0.00    +0.000 A 
ENDBRANCH  21  22
ENDBRANCH  16  21
ENDBRANCH  15  17
ENDBRANCH   1  15
TORSDOF 5
ENDMDL
MODEL 8
REMARK VINA RESULT:      -7.4      3.509      9.012
REMARK  Name = 
REMARK  6 active torsions:
REMARK  status: ('A' for Active; 'I' for Inactive)
REMARK    1  A    between atoms: C_1  and  C_2
REMARK    2  A    between atoms: C_2  and  N_3
REMARK    3  A    between atoms: C_2  and  C_20
REMARK    4  A    between atoms: C_4  and  C_6
REMARK    5  A    between atoms: C_6  and  N_7
REMARK    6  A    between atoms: C_8  and  C_10
REMARK                            x       y       z     vdW  Elec       q    Type
REMARK                         _______ _______ _______ _____ _____    ______ ____
ROOT
ATOM      1  N   UNL     1       0.202   9.982  19.532  0.00  0.00    +0.000 N 
ATOM      2  C   UNL     1       0.365  11.261  20.022  0.00  0.00    +0.000 C 
ATOM      3  O   UNL     1       1.381  11.892  19.734  0.00  0.00    +0.000 OA
ATOM      4  H   UNL     1      -0.695   9.524  19.617  0.00  0.00    +0.000 HD
ENDROOT
BRANCH   2   5
ATOM      5  C   UNL     1      -0.720  11.780  20.846  0.00  0.00    +0.000 A 
ATOM      6  S   UNL     1      -1.632  13.089  20.215  0.00  0.00    +0.000 S 
ATOM      7  C   UNL     1      -2.675  13.150  21.574  0.00  0.00    +0.000 A 
ATOM      8  C   UNL     1      -3.762  14.028  21.762  0.00  0.00    +0.000 A 
ATOM      9  C   UNL     1      -4.512  13.937  22.935  0.00  0.00    +0.000 A 
ATOM     10  C   UNL     1      -4.188  13.002  23.906  0.00  0.00    +0.000 A 
ATOM     11  C   UNL     1      -3.106  12.138  23.715  0.00  0.00    +0.000 A 
ATOM     12  C   UNL     1      -2.325  12.197  22.530  0.00  0.00    +0.000 A 
ATOM     13  C   UNL     1      -1.189  11.421  22.097  0.00  0.00    +0.000 A 
ATOM     14 CL   UNL     1      -0.552  10.170  23.099  0.00  0.00    +0.000 Cl
ENDBRANCH   2   5
BRANCH   1  15
ATOM     15  C   UNL     1       1.194   9.373  18.675  0.00  0.00    +0.000 C 
BRANCH  15  17
ATOM     16  N   UNL     1       2.577   7.365  18.550  0.00  0.00    +0.000 N 
ATOM     17  C   UNL     1       1.884   8.211  19.390  0.00  0.00    +0.000 C 
ATOM     18  O   UNL     1       1.778   8.035  20.602  0.00  0.00    +0.000 OA
ATOM     19  H   UNL     1       2.329   7.399  17.564  0.00  0.00    +0.000 HD
BRANCH  16  21
ATOM     20  C   UNL     1       4.511   5.907  18.196  0.00  0.00    +0.000 C 
ATOM     21  C   UNL     1       3.271   6.186  19.051  0.00  0.00    +0.000 C 
BRANCH  21  22
ATOM     22  C   UNL     1       2.351   4.988  19.091  0.00  0.00    +0.000 A 
ATOM     23  C   UNL     1       1.794   4.519  20.287  0.00  0.00    +0.000 A 
ATOM     24  C   UNL     1       0.976   3.395  20.282  0.00  0.00    +0.000 A 
ATOM     25  C   UNL     1       0.729   2.770  19.072  0.00  0.00    +0.000 A 
ATOM     26  N   UNL     1       1.227   3.198  17.894  0.00  0.00    +0.000 NA
ATOM     27  C   UNL     1       2.028   4.290  17.929  0.00  0.00    +0.000 A 
ENDBRANCH  21  22
ENDBRANCH  16  21
ENDBRANCH  15  17
ENDBRANCH   1  15
TORSDOF 5
ENDMDL
MODEL 9
REMARK VINA RESULT:      -7.4      3.277      8.441
REMARK  Name = 
REMARK  6 active torsions:
REMARK  status: ('A' for Active; 'I' for Inactive)
REMARK    1  A    between atoms: C_1  and  C_2
REMARK    2  A    between atoms: C_2  and  N_3
REMARK    3  A    between atoms: C_2  and  C_20
REMARK    4  A    between atoms: C_4  and  C_6
REMARK    5  A    between atoms: C_6  and  N_7
REMARK    6  A    between atoms: C_8  and  C_10
REMARK                            x       y       z     vdW  Elec       q    Type
REMARK                         _______ _______ _______ _____ _____    ______ ____
ROOT
ATOM      1  N   UNL     1       1.595   6.142  21.024  0.00  0.00    +0.000 N 
ATOM      2  C   UNL     1       2.099   7.160  20.242  0.00  0.00    +0.000 C 
ATOM      3  O   UNL     1       3.095   6.953  19.551  0.00  0.00    +0.000 OA
ATOM      4  H   UNL     1       0.687   6.246  21.457  0.00  0.00    +0.000 HD
ENDROOT
BRANCH   2   5
ATOM      5  C   UNL     1       1.377   8.426  20.285  0.00  0.00    +0.000 A 
ATOM      6  S   UNL     1       0.715   8.904  21.795  0.00  0.00    +0.000 S 
ATOM      7  C   UNL     1       0.099  10.377  21.173  0.00  0.00    +0.000 A 
ATOM      8  C   UNL     1      -0.598  11.369  21.894  0.00  0.00    +0.000 A 
ATOM      9  C   UNL     1      -1.028  12.516  21.226  0.00  0.00    +0.000 A 
ATOM     10  C   UNL     1      -0.780  12.675  19.871  0.00  0.00    +0.000 A 
ATOM     11  C   UNL     1      -0.093  11.686  19.161  0.00  0.00    +0.000 A 
ATOM     12  C   UNL     1       0.366  10.508  19.811  0.00  0.00    +0.000 A 
ATOM     13  C   UNL     1       1.097   9.369  19.313  0.00  0.00    +0.000 A 
ATOM     14 CL   UNL     1       1.555   9.282  17.653  0.00  0.00    +0.000 Cl
ENDBRANCH   2   5
BRANCH   1  15
ATOM     15  C   UNL     1       2.205   4.832  21.037  0.00  0.00    +0.000 C 
BRANCH  15  17
ATOM     16  N   UNL     1       3.408   3.998  19.084  0.00  0.00    +0.000 N 
ATOM     17  C   UNL     1       2.166   4.204  19.644  0.00  0.00    +0.000 C 
ATOM     18  O   UNL     1       1.108   3.957  19.069  0.00  0.00    +0.000 OA
ATOM     19  H   UNL     1       4.180   4.531  19.479  0.00  0.00    +0.000 HD
BRANCH  16  21
ATOM     20  C   UNL     1       3.553   1.908  17.819  0.00  0.00    +0.000 C 
ATOM     21  C   UNL     1       3.565   3.437  17.748  0.00  0.00    +0.000 C 
BRANCH  21  22
ATOM     22  C   UNL     1       4.825   3.946  17.088  0.00  0.00    +0.000 A 
ATOM     23  C   UNL     1       4.943   4.056  15.697  0.00  0.00    +0.000 A 
ATOM     24  C   UNL     1       6.131   4.502  15.130  0.00  0.00    +0.000 A 
ATOM     25  C   UNL     1       7.175   4.835  15.975  0.00  0.00    +0.000 A 
ATOM     26  N   UNL     1       7.100   4.766  17.320  0.00  0.00    +0.000 NA
ATOM     27  C   UNL     1       5.934   4.319  17.845  0.00  0.00    +0.000 A 
ENDBRANCH  21  22
ENDBRANCH  16  21
ENDBRANCH  15  17
ENDBRANCH   1  15
TORSDOF 5
ENDMDL
