MODEL 1
REMARK VINA RESULT:      -9.0      0.000      0.000
REMARK  Name = 
REMARK  4 active torsions:
REMARK  status: ('A' for Active; 'I' for Inactive)
REMARK    1  A    between atoms: N_1  and  C_2
REMARK    2  A    between atoms: C_5  and  C_6
REMARK    3  A    between atoms: C_16  and  C_17
REMARK    4  A    between atoms: C_20  and  C_21
REMARK                            x       y       z     vdW  Elec       q    Type
REMARK                         _______ _______ _______ _____ _____    ______ ____
ROOT
ATOM      1  C   UNL     1       4.594   4.540  18.554  0.00  0.00    +0.000 A 
ATOM      2  N   UNL     1       3.858   4.658  19.674  0.00  0.00    +0.000 NA
ATOM      3  C   UNL     1       3.060   5.747  19.789  0.00  0.00    +0.000 A 
ATOM      4  C   UNL     1       2.944   6.762  18.841  0.00  0.00    +0.000 A 
ATOM      5  C   UNL     1       3.719   6.597  17.687  0.00  0.00    +0.000 A 
ATOM      6  C   UNL     1       4.550   5.478  17.519  0.00  0.00    +0.000 A 
ENDROOT
BRANCH   4   7
ATOM      7  C   UNL     1       2.068   7.936  19.040  0.00  0.00    +0.000 A 
ATOM      8  C   UNL     1       1.699   8.765  17.965  0.00  0.00    +0.000 A 
ATOM      9  C   UNL     1       0.873   9.885  18.125  0.00  0.00    +0.000 A 
ATOM     10  C   UNL     1       0.405  10.157  19.410  0.00  0.00    +0.000 A 
ATOM     11  N   UNL     1      -0.416  11.162  19.865  0.00  0.00    +0.000 N 
ATOM     12  C   UNL     1      -0.618  11.036  21.214  0.00  0.00    +0.000 A 
ATOM     13  C   UNL     1       0.085   9.934  21.643  0.00  0.00    +0.000 A 
ATOM     14  C   UNL     1       0.735   9.372  20.511  0.00  0.00    +0.000 A 
ATOM     15  C   UNL     1       1.579   8.261  20.322  0.00  0.00    +0.000 A 
ATOM     16  H   UNL     1      -0.814  11.885  19.282  0.00  0.00    +0.000 HD
ENDBRANCH   4   7
BRANCH   6  17
ATOM     17  C   UNL     1       5.356   5.331  16.323  0.00  0.00    +0.000 A 
ATOM     18  N   UNL     1       6.288   6.116  15.820  0.00  0.00    +0.000 NA
ATOM     19  N   UNL     1       6.743   5.499  14.675  0.00  0.00    +0.000 NA
ATOM     20  C   UNL     1       6.054   4.384  14.550  0.00  0.00    +0.000 A 
ATOM     21  O   UNL     1       5.139   4.215  15.556  0.00  0.00    +0.000 OA
BRANCH  20  22
ATOM     22  C   UNL     1       6.261   3.409  13.407  0.00  0.00    +0.000 C 
ATOM     23  C   UNL     1       5.344   3.483  12.203  0.00  0.00    +0.000 C 
ATOM     24  C   UNL     1       6.754   3.951  12.081  0.00  0.00    +0.000 C 
ENDBRANCH  20  22
ENDBRANCH   6  17
BRANCH   1  25
ATOM     25  N   UNL     1       5.330   3.363  18.476  0.00  0.00    +0.000 N 
ATOM     26  H   UNL     1       5.331   3.054  17.509  0.00  0.00    +0.000 HD
ATOM     27  H   UNL     1       5.003   2.653  19.126  0.00  0.00    +0.000 HD
ENDBRANCH   1  25
TORSDOF 4
ENDMDL
MODEL 2
REMARK VINA RESULT:      -8.5      3.352      8.986
REMARK  Name = 
REMARK  4 active torsions:
REMARK  status: ('A' for Active; 'I' for Inactive)
REMARK    1  A    between atoms: N_1  and  C_2
REMARK    2  A    between atoms: C_5  and  C_6
REMARK    3  A    between atoms: C_16  and  C_17
REMARK    4  A    between atoms: C_20  and  C_21
REMARK                            x       y       z     vdW  Elec       q    Type
REMARK                         _______ _______ _______ _____ _____    ______ ____
ROOT
ATOM      1  C   UNL     1       1.379  10.110  18.928  0.00  0.00    +0.000 A 
ATOM      2  N   UNL     1       1.877   9.778  17.723  0.00  0.00    +0.000 NA
ATOM      3  C   UNL     1       2.338   8.514  17.561  0.00  0.00    +0.000 A 
ATOM      4  C   UNL     1       2.345   7.528  18.546  0.00  0.00    +0.000 A 
ATOM      5  C   UNL     1       1.811   7.912  19.782  0.00  0.00    +0.000 A 
ATOM      6  C   UNL     1       1.309   9.206  19.991  0.00  0.00    +0.000 A 
ENDROOT
BRANCH   4   7
ATOM      7  C   UNL     1       2.884   6.174  18.307  0.00  0.00    +0.000 A 
ATOM      8  C   UNL     1       4.043   5.972  17.534  0.00  0.00    +0.000 A 
ATOM      9  C   UNL     1       4.574   4.699  17.289  0.00  0.00    +0.000 A 
ATOM     10  C   UNL     1       3.914   3.609  17.857  0.00  0.00    +0.000 A 
ATOM     11  N   UNL     1       4.202   2.266  17.803  0.00  0.00    +0.000 N 
ATOM     12  C   UNL     1       3.278   1.552  18.518  0.00  0.00    +0.000 A 
ATOM     13  C   UNL     1       2.373   2.446  19.045  0.00  0.00    +0.000 A 
ATOM     14  C   UNL     1       2.767   3.748  18.632  0.00  0.00    +0.000 A 
ATOM     15  C   UNL     1       2.247   5.039  18.848  0.00  0.00    +0.000 A 
ATOM     16  H   UNL     1       4.987   1.867  17.306  0.00  0.00    +0.000 HD
ENDBRANCH   4   7
BRANCH   6  17
ATOM     17  C   UNL     1       0.772   9.589  21.283  0.00  0.00    +0.000 A 
ATOM     18  N   UNL     1       1.196   9.311  22.499  0.00  0.00    +0.000 NA
ATOM     19  N   UNL     1       0.325   9.932  23.368  0.00  0.00    +0.000 NA
ATOM     20  C   UNL     1      -0.575  10.542  22.625  0.00  0.00    +0.000 A 
ATOM     21  O   UNL     1      -0.364  10.356  21.284  0.00  0.00    +0.000 OA
BRANCH  20  22
ATOM     22  C   UNL     1      -1.716  11.352  23.210  0.00  0.00    +0.000 C 
ATOM     23  C   UNL     1      -1.582  12.859  23.291  0.00  0.00    +0.000 C 
ATOM     24  C   UNL     1      -2.501  12.258  22.284  0.00  0.00    +0.000 C 
ENDBRANCH  20  22
ENDBRANCH   6  17
BRANCH   1  25
ATOM     25  N   UNL     1       0.859  11.398  18.995  0.00  0.00    +0.000 N 
ATOM     26  H   UNL     1       0.838  11.680  19.970  0.00  0.00    +0.000 HD
ATOM     27  H   UNL     1      -0.041  11.481  18.531  0.00  0.00    +0.000 HD
ENDBRANCH   1  25
TORSDOF 4
ENDMDL
MODEL 3
REMARK VINA RESULT:      -8.5      0.791      1.443
REMARK  Name = 
REMARK  4 active torsions:
REMARK  status: ('A' for Active; 'I' for Inactive)
REMARK    1  A    between atoms: N_1  and  C_2
REMARK    2  A    between atoms: C_5  and  C_6
REMARK    3  A    between atoms: C_16  and  C_17
REMARK    4  A    between atoms: C_20  and  C_21
REMARK                            x       y       z     vdW  Elec       q    Type
REMARK                         _______ _______ _______ _____ _____    ______ ____
ROOT
ATOM      1  C   UNL     1       4.021   3.999  18.239  0.00  0.00    +0.000 A 
ATOM      2  N   UNL     1       3.226   3.969  19.324  0.00  0.00    +0.000 NA
ATOM      3  C   UNL     1       2.613   5.123  19.684  0.00  0.00    +0.000 A 
ATOM      4  C   UNL     1       2.744   6.343  19.025  0.00  0.00    +0.000 A 
ATOM      5  C   UNL     1       3.574   6.329  17.897  0.00  0.00    +0.000 A 
ATOM      6  C   UNL     1       4.219   5.155  17.479  0.00  0.00    +0.000 A 
ENDROOT
BRANCH   4   7
ATOM      7  C   UNL     1       2.062   7.570  19.486  0.00  0.00    +0.000 A 
ATOM      8  C   UNL     1       1.586   7.692  20.805  0.00  0.00    +0.000 A 
ATOM      9  C   UNL     1       0.933   8.842  21.267  0.00  0.00    +0.000 A 
ATOM     10  C   UNL     1       0.774   9.895  20.367  0.00  0.00    +0.000 A 
ATOM     11  N   UNL     1       0.195  11.131  20.533  0.00  0.00    +0.000 N 
ATOM     12  C   UNL     1       0.268  11.851  19.371  0.00  0.00    +0.000 A 
ATOM     13  C   UNL     1       0.903  11.070  18.432  0.00  0.00    +0.000 A 
ATOM     14  C   UNL     1       1.226   9.832  19.052  0.00  0.00    +0.000 A 
ATOM     15  C   UNL     1       1.865   8.657  18.611  0.00  0.00    +0.000 A 
ATOM     16  H   UNL     1      -0.221  11.458  21.395  0.00  0.00    +0.000 HD
ENDBRANCH   4   7
BRANCH   6  17
ATOM     17  C   UNL     1       5.085   5.163  16.316  0.00  0.00    +0.000 A 
ATOM     18  N   UNL     1       5.922   6.084  15.882  0.00  0.00    +0.000 NA
ATOM     19  N   UNL     1       6.502   5.579  14.739  0.00  0.00    +0.000 NA
ATOM     20  C   UNL     1       5.976   4.387  14.547  0.00  0.00    +0.000 A 
ATOM     21  O   UNL     1       5.052   4.059  15.505  0.00  0.00    +0.000 OA
BRANCH  20  22
ATOM     22  C   UNL     1       6.359   3.493  13.383  0.00  0.00    +0.000 C 
ATOM     23  C   UNL     1       5.475   3.472  12.151  0.00  0.00    +0.000 C 
ATOM     24  C   UNL     1       6.802   4.148  12.091  0.00  0.00    +0.000 C 
ENDBRANCH  20  22
ENDBRANCH   6  17
BRANCH   1  25
ATOM     25  N   UNL     1       4.557   2.764  17.890  0.00  0.00    +0.000 N 
ATOM     26  H   UNL     1       5.157   2.897  17.083  0.00  0.00    +0.000 HD
ATOM     27  H   UNL     1       3.843   2.054  17.750  0.00  0.00    +0.000 HD
ENDBRANCH   1  25
TORSDOF 4
ENDMDL
MODEL 4
REMARK VINA RESULT:      -8.4      4.186      4.942
REMARK  Name = 
REMARK  4 active torsions:
REMARK  status: ('A' for Active; 'I' for Inactive)
REMARK    1  A    between atoms: N_1  and  C_2
REMARK    2  A    between atoms: C_5  and  C_6
REMARK    3  A    between atoms: C_16  and  C_17
REMARK    4  A    between atoms: C_20  and  C_21
REMARK                            x       y       z     vdW  Elec       q    Type
REMARK                         _______ _______ _______ _____ _____    ______ ____
ROOT
ATOM      1  C   UNL     1       6.837   5.248  15.604  0.00  0.00    +0.000 A 
ATOM      2  N   UNL     1       6.793   5.675  16.879  0.00  0.00    +0.000 NA
ATOM      3  C   UNL     1       5.747   5.273  17.640  0.00  0.00    +0.000 A 
ATOM      4  C   UNL     1       4.704   4.456  17.207  0.00  0.00    +0.000 A 
ATOM      5  C   UNL     1       4.791   4.027  15.876  0.00  0.00    +0.000 A 
ATOM      6  C   UNL     1       5.864   4.408  15.055  0.00  0.00    +0.000 A 
ENDROOT
BRANCH   4   7
ATOM      7  C   UNL     1       3.580   4.072  18.086  0.00  0.00    +0.000 A 
ATOM      8  C   UNL     1       2.248   4.122  17.634  0.00  0.00    +0.000 A 
ATOM      9  C   UNL     1       1.163   3.767  18.447  0.00  0.00    +0.000 A 
ATOM     10  C   UNL     1       1.446   3.341  19.744  0.00  0.00    +0.000 A 
ATOM     11  N   UNL     1       0.605   2.925  20.749  0.00  0.00    +0.000 N 
ATOM     12  C   UNL     1       1.325   2.590  21.864  0.00  0.00    +0.000 A 
ATOM     13  C   UNL     1       2.657   2.794  21.581  0.00  0.00    +0.000 A 
ATOM     14  C   UNL     1       2.743   3.269  20.244  0.00  0.00    +0.000 A 
ATOM     15  C   UNL     1       3.812   3.647  19.409  0.00  0.00    +0.000 A 
ATOM     16  H   UNL     1      -0.402   2.872  20.669  0.00  0.00    +0.000 HD
ENDBRANCH   4   7
BRANCH   6  17
ATOM     17  C   UNL     1       5.931   3.965  13.676  0.00  0.00    +0.000 A 
ATOM     18  N   UNL     1       6.973   3.766  12.894  0.00  0.00    +0.000 NA
ATOM     19  N   UNL     1       6.475   3.336  11.683  0.00  0.00    +0.000 NA
ATOM     20  C   UNL     1       5.165   3.307  11.804  0.00  0.00    +0.000 A 
ATOM     21  O   UNL     1       4.742   3.711  13.043  0.00  0.00    +0.000 OA
BRANCH  20  22
ATOM     22  C   UNL     1       4.241   2.879  10.680  0.00  0.00    +0.000 C 
ATOM     23  C   UNL     1       2.742   2.925  10.903  0.00  0.00    +0.000 C 
ATOM     24  C   UNL     1       3.383   3.936  10.015  0.00  0.00    +0.000 C 
ENDBRANCH  20  22
ENDBRANCH   6  17
BRANCH   1  25
ATOM     25  N   UNL     1       7.975   5.641  14.909  0.00  0.00    +0.000 N 
ATOM     26  H   UNL     1       8.711   5.823  15.584  0.00  0.00    +0.000 HD
ATOM     27  H   UNL     1       7.800   6.422  14.282  0.00  0.00    +0.000 HD
ENDBRANCH   1  25
TORSDOF 4
ENDMDL
MODEL 5
REMARK VINA RESULT:      -8.3      3.271      5.087
REMARK  Name = 
REMARK  4 active torsions:
REMARK  status: ('A' for Active; 'I' for Inactive)
REMARK    1  A    between atoms: N_1  and  C_2
REMARK    2  A    between atoms: C_5  and  C_6
REMARK    3  A    between atoms: C_16  and  C_17
REMARK    4  A    between atoms: C_20  and  C_21
REMARK                            x       y       z     vdW  Elec       q    Type
REMARK                         _______ _______ _______ _____ _____    ______ ____
ROOT
ATOM      1  C   UNL     1       7.121   5.218  14.626  0.00  0.00    +0.000 A 
ATOM      2  N   UNL     1       7.440   5.846  15.773  0.00  0.00    +0.000 NA
ATOM      3  C   UNL     1       6.594   5.709  16.821  0.00  0.00    +0.000 A 
ATOM      4  C   UNL     1       5.410   4.974  16.808  0.00  0.00    +0.000 A 
ATOM      5  C   UNL     1       5.117   4.330  15.599  0.00  0.00    +0.000 A 
ATOM      6  C   UNL     1       5.973   4.433  14.491  0.00  0.00    +0.000 A 
ENDROOT
BRANCH   4   7
ATOM      7  C   UNL     1       4.520   4.884  17.984  0.00  0.00    +0.000 A 
ATOM      8  C   UNL     1       3.805   6.004  18.449  0.00  0.00    +0.000 A 
ATOM      9  C   UNL     1       2.957   5.948  19.562  0.00  0.00    +0.000 A 
ATOM     10  C   UNL     1       2.826   4.718  20.207  0.00  0.00    +0.000 A 
ATOM     11  N   UNL     1       2.071   4.360  21.299  0.00  0.00    +0.000 N 
ATOM     12  C   UNL     1       2.248   3.033  21.585  0.00  0.00    +0.000 A 
ATOM     13  C   UNL     1       3.134   2.519  20.665  0.00  0.00    +0.000 A 
ATOM     14  C   UNL     1       3.506   3.577  19.791  0.00  0.00    +0.000 A 
ATOM     15  C   UNL     1       4.363   3.667  18.678  0.00  0.00    +0.000 A 
ATOM     16  H   UNL     1       1.470   4.990  21.812  0.00  0.00    +0.000 HD
ENDBRANCH   4   7
BRANCH   6  17
ATOM     17  C   UNL     1       5.646   3.770  13.243  0.00  0.00    +0.000 A 
ATOM     18  N   UNL     1       6.357   2.937  12.509  0.00  0.00    +0.000 NA
ATOM     19  N   UNL     1       5.569   2.597  11.431  0.00  0.00    +0.000 NA
ATOM     20  C   UNL     1       4.434   3.249  11.574  0.00  0.00    +0.000 A 
ATOM     21  O   UNL     1       4.416   4.031  12.700  0.00  0.00    +0.000 OA
BRANCH  20  22
ATOM     22  C   UNL     1       3.289   3.140  10.587  0.00  0.00    +0.000 C 
ATOM     23  C   UNL     1       2.797   4.393   9.890  0.00  0.00    +0.000 C 
ATOM     24  C   UNL     1       3.579   3.384   9.121  0.00  0.00    +0.000 C 
ENDBRANCH  20  22
ENDBRANCH   6  17
BRANCH   1  25
ATOM     25  N   UNL     1       8.072   5.346  13.621  0.00  0.00    +0.000 N 
ATOM     26  H   UNL     1       8.540   6.239  13.739  0.00  0.00    +0.000 HD
ATOM     27  H   UNL     1       7.679   5.215  12.692  0.00  0.00    +0.000 HD
ENDBRANCH   1  25
TORSDOF 4
ENDMDL
MODEL 6
REMARK VINA RESULT:      -8.2      1.634      2.085
REMARK  Name = 
REMARK  4 active torsions:
REMARK  status: ('A' for Active; 'I' for Inactive)
REMARK    1  A    between atoms: N_1  and  C_2
REMARK    2  A    between atoms: C_5  and  C_6
REMARK    3  A    between atoms: C_16  and  C_17
REMARK    4  A    between atoms: C_20  and  C_21
REMARK                            x       y       z     vdW  Elec       q    Type
REMARK                         _______ _______ _______ _____ _____    ______ ____
ROOT
ATOM      1  C   UNL     1       3.240   3.932  20.012  0.00  0.00    +0.000 A 
ATOM      2  N   UNL     1       2.088   4.091  20.689  0.00  0.00    +0.000 NA
ATOM      3  C   UNL     1       1.572   5.341  20.767  0.00  0.00    +0.000 A 
ATOM      4  C   UNL     1       2.142   6.483  20.207  0.00  0.00    +0.000 A 
ATOM      5  C   UNL     1       3.336   6.274  19.504  0.00  0.00    +0.000 A 
ATOM      6  C   UNL     1       3.900   4.994  19.386  0.00  0.00    +0.000 A 
ENDROOT
BRANCH   4   7
ATOM      7  C   UNL     1       1.536   7.822  20.349  0.00  0.00    +0.000 A 
ATOM      8  C   UNL     1       1.534   8.742  19.283  0.00  0.00    +0.000 A 
ATOM      9  C   UNL     1       0.970  10.019  19.391  0.00  0.00    +0.000 A 
ATOM     10  C   UNL     1       0.383  10.360  20.609  0.00  0.00    +0.000 A 
ATOM     11  N   UNL     1      -0.249  11.516  21.001  0.00  0.00    +0.000 N 
ATOM     12  C   UNL     1      -0.680  11.407  22.297  0.00  0.00    +0.000 A 
ATOM     13  C   UNL     1      -0.320  10.160  22.755  0.00  0.00    +0.000 A 
ATOM     14  C   UNL     1       0.352   9.492  21.696  0.00  0.00    +0.000 A 
ATOM     15  C   UNL     1       0.942   8.220  21.564  0.00  0.00    +0.000 A 
ATOM     16  H   UNL     1      -0.378  12.328  20.412  0.00  0.00    +0.000 HD
ENDBRANCH   4   7
BRANCH   6  17
ATOM     17  C   UNL     1       5.143   4.799  18.666  0.00  0.00    +0.000 A 
ATOM     18  N   UNL     1       6.349   4.505  19.110  0.00  0.00    +0.000 NA
ATOM     19  N   UNL     1       7.165   4.425  18.002  0.00  0.00    +0.000 NA
ATOM     20  C   UNL     1       6.405   4.682  16.957  0.00  0.00    +0.000 A 
ATOM     21  O   UNL     1       5.106   4.946  17.304  0.00  0.00    +0.000 OA
BRANCH  20  22
ATOM     22  C   UNL     1       6.932   4.688  15.535  0.00  0.00    +0.000 C 
ATOM     23  C   UNL     1       6.308   3.754  14.517  0.00  0.00    +0.000 C 
ATOM     24  C   UNL     1       6.030   5.216  14.438  0.00  0.00    +0.000 C 
ENDBRANCH  20  22
ENDBRANCH   6  17
BRANCH   1  25
ATOM     25  N   UNL     1       3.669   2.613  19.913  0.00  0.00    +0.000 N 
ATOM     26  H   UNL     1       3.447   2.277  18.981  0.00  0.00    +0.000 HD
ATOM     27  H   UNL     1       3.296   2.025  20.654  0.00  0.00    +0.000 HD
ENDBRANCH   1  25
TORSDOF 4
ENDMDL
MODEL 7
REMARK VINA RESULT:      -8.1      1.463      2.086
REMARK  Name = 
REMARK  4 active torsions:
REMARK  status: ('A' for Active; 'I' for Inactive)
REMARK    1  A    between atoms: N_1  and  C_2
REMARK    2  A    between atoms: C_5  and  C_6
REMARK    3  A    between atoms: C_16  and  C_17
REMARK    4  A    between atoms: C_20  and  C_21
REMARK                            x       y       z     vdW  Elec       q    Type
REMARK                         _______ _______ _______ _____ _____    ______ ____
ROOT
ATOM      1  C   UNL     1       4.210   3.535  19.679  0.00  0.00    +0.000 A 
ATOM      2  N   UNL     1       3.138   3.576  20.491  0.00  0.00    +0.000 NA
ATOM      3  C   UNL     1       2.456   4.744  20.573  0.00  0.00    +0.000 A 
ATOM      4  C   UNL     1       2.780   5.914  19.888  0.00  0.00    +0.000 A 
ATOM      5  C   UNL     1       3.897   5.827  19.048  0.00  0.00    +0.000 A 
ATOM      6  C   UNL     1       4.625   4.634  18.922  0.00  0.00    +0.000 A 
ENDROOT
BRANCH   4   7
ATOM      7  C   UNL     1       2.004   7.162  20.040  0.00  0.00    +0.000 A 
ATOM      8  C   UNL     1       1.228   7.406  21.189  0.00  0.00    +0.000 A 
ATOM      9  C   UNL     1       0.481   8.579  21.358  0.00  0.00    +0.000 A 
ATOM     10  C   UNL     1       0.537   9.528  20.338  0.00  0.00    +0.000 A 
ATOM     11  N   UNL     1      -0.069  10.757  20.230  0.00  0.00    +0.000 N 
ATOM     12  C   UNL     1       0.275  11.354  19.047  0.00  0.00    +0.000 A 
ATOM     13  C   UNL     1       1.117  10.499  18.374  0.00  0.00    +0.000 A 
ATOM     14  C   UNL     1       1.288   9.342  19.181  0.00  0.00    +0.000 A 
ATOM     15  C   UNL     1       2.017   8.146  19.032  0.00  0.00    +0.000 A 
ATOM     16  H   UNL     1      -0.679  11.159  20.929  0.00  0.00    +0.000 HD
ENDBRANCH   4   7
BRANCH   6  17
ATOM     17  C   UNL     1       5.788   4.567  18.057  0.00  0.00    +0.000 A 
ATOM     18  N   UNL     1       7.071   4.516  18.355  0.00  0.00    +0.000 NA
ATOM     19  N   UNL     1       7.748   4.453  17.157  0.00  0.00    +0.000 NA
ATOM     20  C   UNL     1       6.836   4.478  16.208  0.00  0.00    +0.000 A 
ATOM     21  O   UNL     1       5.562   4.566  16.706  0.00  0.00    +0.000 OA
BRANCH  20  22
ATOM     22  C   UNL     1       7.178   4.422  14.732  0.00  0.00    +0.000 C 
ATOM     23  C   UNL     1       6.185   3.800  13.770  0.00  0.00    +0.000 C 
ATOM     24  C   UNL     1       6.374   5.279  13.776  0.00  0.00    +0.000 C 
ENDBRANCH  20  22
ENDBRANCH   6  17
BRANCH   1  25
ATOM     25  N   UNL     1       4.813   2.285  19.592  0.00  0.00    +0.000 N 
ATOM     26  H   UNL     1       4.317   1.743  18.892  0.00  0.00    +0.000 HD
ATOM     27  H   UNL     1       4.879   1.819  20.493  0.00  0.00    +0.000 HD
ENDBRANCH   1  25
TORSDOF 4
ENDMDL
MODEL 8
REMARK VINA RESULT:      -8.0      3.558      9.108
REMARK  Name = 
REMARK  4 active torsions:
REMARK  status: ('A' for Active; 'I' for Inactive)
REMARK    1  A    between atoms: N_1  and  C_2
REMARK    2  A    between atoms: C_5  and  C_6
REMARK    3  A    between atoms: C_16  and  C_17
REMARK    4  A    between atoms: C_20  and  C_21
REMARK                            x       y       z     vdW  Elec       q    Type
REMARK                         _______ _______ _______ _____ _____    ______ ____
ROOT
ATOM      1  C   UNL     1       1.039  10.208  18.754  0.00  0.00    +0.000 A 
ATOM      2  N   UNL     1       1.605   9.708  17.640  0.00  0.00    +0.000 NA
ATOM      3  C   UNL     1       2.226   8.508  17.735  0.00  0.00    +0.000 A 
ATOM      4  C   UNL     1       2.333   7.748  18.898  0.00  0.00    +0.000 A 
ATOM      5  C   UNL     1       1.724   8.299  20.033  0.00  0.00    +0.000 A 
ATOM      6  C   UNL     1       1.059   9.533  19.978  0.00  0.00    +0.000 A 
ENDROOT
BRANCH   4   7
ATOM      7  C   UNL     1       3.045   6.453  18.936  0.00  0.00    +0.000 A 
ATOM      8  C   UNL     1       4.157   6.205  18.110  0.00  0.00    +0.000 A 
ATOM      9  C   UNL     1       4.848   4.986  18.123  0.00  0.00    +0.000 A 
ATOM     10  C   UNL     1       4.401   4.005  19.008  0.00  0.00    +0.000 A 
ATOM     11  N   UNL     1       4.878   2.738  19.249  0.00  0.00    +0.000 N 
ATOM     12  C   UNL     1       4.127   2.124  20.215  0.00  0.00    +0.000 A 
ATOM     13  C   UNL     1       3.144   3.004  20.607  0.00  0.00    +0.000 A 
ATOM     14  C   UNL     1       3.309   4.196  19.850  0.00  0.00    +0.000 A 
ATOM     15  C   UNL     1       2.625   5.425  19.804  0.00  0.00    +0.000 A 
ATOM     16  H   UNL     1       5.672   2.325  18.780  0.00  0.00    +0.000 HD
ENDBRANCH   4   7
BRANCH   6  17
ATOM     17  C   UNL     1       0.446  10.094  21.166  0.00  0.00    +0.000 A 
ATOM     18  N   UNL     1       0.588   9.766  22.435  0.00  0.00    +0.000 NA
ATOM     19  N   UNL     1      -0.214  10.625  23.153  0.00  0.00    +0.000 NA
ATOM     20  C   UNL     1      -0.798  11.415  22.276  0.00  0.00    +0.000 A 
ATOM     21  O   UNL     1      -0.438  11.126  20.986  0.00  0.00    +0.000 OA
BRANCH  20  22
ATOM     22  C   UNL     1      -1.766  12.514  22.671  0.00  0.00    +0.000 C 
ATOM     23  C   UNL     1      -3.159  12.516  22.072  0.00  0.00    +0.000 C 
ATOM     24  C   UNL     1      -2.976  12.141  23.502  0.00  0.00    +0.000 C 
ENDBRANCH  20  22
ENDBRANCH   6  17
BRANCH   1  25
ATOM     25  N   UNL     1       0.360  11.405  18.562  0.00  0.00    +0.000 N 
ATOM     26  H   UNL     1       0.977  12.044  18.070  0.00  0.00    +0.000 HD
ATOM     27  H   UNL     1      -0.010  11.788  19.428  0.00  0.00    +0.000 HD
ENDBRANCH   1  25
TORSDOF 4
ENDMDL
MODEL 9
REMARK VINA RESULT:      -7.9      2.972      9.293
REMARK  Name = 
REMARK  4 active torsions:
REMARK  status: ('A' for Active; 'I' for Inactive)
REMARK    1  A    between atoms: N_1  and  C_2
REMARK    2  A    between atoms: C_5  and  C_6
REMARK    3  A    between atoms: C_16  and  C_17
REMARK    4  A    between atoms: C_20  and  C_21
REMARK                            x       y       z     vdW  Elec       q    Type
REMARK                         _______ _______ _______ _____ _____    ______ ____
ROOT
ATOM      1  C   UNL     1       1.094  10.742  19.159  0.00  0.00    +0.000 A 
ATOM      2  N   UNL     1       1.656  10.516  17.957  0.00  0.00    +0.000 NA
ATOM      3  C   UNL     1       2.170   9.284  17.726  0.00  0.00    +0.000 A 
ATOM      4  C   UNL     1       2.173   8.230  18.638  0.00  0.00    +0.000 A 
ATOM      5  C   UNL     1       1.572   8.503  19.873  0.00  0.00    +0.000 A 
ATOM      6  C   UNL     1       1.014   9.761  20.151  0.00  0.00    +0.000 A 
ENDROOT
BRANCH   4   7
ATOM      7  C   UNL     1       2.772   6.916  18.327  0.00  0.00    +0.000 A 
ATOM      8  C   UNL     1       2.329   5.740  18.962  0.00  0.00    +0.000 A 
ATOM      9  C   UNL     1       2.881   4.482  18.690  0.00  0.00    +0.000 A 
ATOM     10  C   UNL     1       3.900   4.421  17.739  0.00  0.00    +0.000 A 
ATOM     11  N   UNL     1       4.612   3.346  17.263  0.00  0.00    +0.000 N 
ATOM     12  C   UNL     1       5.520   3.755  16.324  0.00  0.00    +0.000 A 
ATOM     13  C   UNL     1       5.397   5.119  16.187  0.00  0.00    +0.000 A 
ATOM     14  C   UNL     1       4.377   5.549  17.078  0.00  0.00    +0.000 A 
ATOM     15  C   UNL     1       3.813   6.803  17.383  0.00  0.00    +0.000 A 
ATOM     16  H   UNL     1       4.478   2.390  17.566  0.00  0.00    +0.000 HD
ENDBRANCH   4   7
BRANCH   6  17
ATOM     17  C   UNL     1       0.408  10.030  21.441  0.00  0.00    +0.000 A 
ATOM     18  N   UNL     1       0.764   9.640  22.648  0.00  0.00    +0.000 NA
ATOM     19  N   UNL     1      -0.151  10.187  23.521  0.00  0.00    +0.000 NA
ATOM     20  C   UNL     1      -1.009  10.866  22.789  0.00  0.00    +0.000 A 
ATOM     21  O   UNL     1      -0.726  10.799  21.450  0.00  0.00    +0.000 OA
BRANCH  20  22
ATOM     22  C   UNL     1      -2.180  11.627  23.382  0.00  0.00    +0.000 C 
ATOM     23  C   UNL     1      -2.129  13.141  23.418  0.00  0.00    +0.000 C 
ATOM     24  C   UNL     1      -3.038  12.460  22.453  0.00  0.00    +0.000 C 
ENDBRANCH  20  22
ENDBRANCH   6  17
BRANCH   1  25
ATOM     25  N   UNL     1       0.524  12.003  19.295  0.00  0.00    +0.000 N 
ATOM     26  H   UNL     1       1.272  12.689  19.304  0.00  0.00    +0.000 HD
ATOM     27  H   UNL     1      -0.093  12.068  20.100  0.00  0.00    +0.000 HD
ENDBRANCH   1  25
TORSDOF 4
ENDMDL
