MODEL 1
REMARK VINA RESULT:      -8.3      0.000      0.000
REMARK  Name = 
REMARK  9 active torsions:
REMARK  status: ('A' for Active; 'I' for Inactive)
REMARK    1  A    between atoms: C_1  and  O_2
REMARK    2  A    between atoms: O_2  and  C_3
REMARK    3  A    between atoms: C_12  and  O_13
REMARK    4  A    between atoms: O_13  and  C_14
REMARK    5  A    between atoms: C_14  and  C_15
REMARK    6  A    between atoms: C_15  and  C_16
REMARK    7  A    between atoms: C_16  and  N_17
REMARK    8  A    between atoms: N_17  and  C_18
REMARK    9  A    between atoms: N_17  and  C_19
REMARK                            x       y       z     vdW  Elec       q    Type
REMARK                         _______ _______ _______ _____ _____    ______ ____
ROOT
ATOM      1  C   UNL     1       3.419   3.740  19.187  0.00  0.00    +0.000 A 
ATOM      2  C   UNL     1       2.834   3.744  20.455  0.00  0.00    +0.000 A 
ATOM      3  C   UNL     1       2.223   4.885  20.955  0.00  0.00    +0.000 A 
ATOM      4  C   UNL     1       2.156   6.044  20.185  0.00  0.00    +0.000 A 
ATOM      5  C   UNL     1       1.524   7.166  20.704  0.00  0.00    +0.000 A 
ATOM      6  C   UNL     1       1.391   8.332  19.944  0.00  0.00    +0.000 A 
ATOM      7  N   UNL     1       1.915   8.359  18.687  0.00  0.00    +0.000 N 
ATOM      8  C   UNL     1       2.552   7.269  18.170  0.00  0.00    +0.000 A 
ATOM      9  C   UNL     1       2.701   6.071  18.891  0.00  0.00    +0.000 A 
ATOM     10  C   UNL     1       3.344   4.901  18.381  0.00  0.00    +0.000 A 
ATOM     11  C   UNL     1       1.711   9.538  17.798  0.00  0.00    +0.000 C 
ATOM     12  C   UNL     1       1.786  10.843  18.572  0.00  0.00    +0.000 C 
ATOM     13  C   UNL     1       0.891  10.793  19.777  0.00  0.00    +0.000 A 
ATOM     14  C   UNL     1       0.311  11.979  20.272  0.00  0.00    +0.000 A 
ATOM     15  C   UNL     1      -0.424  11.907  21.432  0.00  0.00    +0.000 A 
ATOM     16  C   UNL     1      -0.608  10.718  22.084  0.00  0.00    +0.000 A 
ATOM     17  C   UNL     1      -0.070   9.539  21.614  0.00  0.00    +0.000 A 
ATOM     18  C   UNL     1       0.720   9.553  20.443  0.00  0.00    +0.000 A 
ATOM     19  O   UNL     1      -1.337  10.852  23.224  0.00  0.00    +0.000 OA
ATOM     20  C   UNL     1      -1.530  12.283  23.255  0.00  0.00    +0.000 C 
ATOM     21  O   UNL     1      -1.021  12.944  22.073  0.00  0.00    +0.000 OA
ENDROOT
BRANCH   1  23
ATOM     22  C   UNL     1       3.045   1.529  18.415  0.00  0.00    +0.000 C 
ATOM     23  O   UNL     1       3.967   2.583  18.697  0.00  0.00    +0.000 OA
ENDBRANCH   1  23
BRANCH  10  24
ATOM     24  O   UNL     1       3.845   5.051  17.102  0.00  0.00    +0.000 OA
BRANCH  24  25
ATOM     25  C   UNL     1       5.221   4.729  16.870  0.00  0.00    +0.000 C 
BRANCH  25  26
ATOM     26  C   UNL     1       5.922   5.910  16.200  0.00  0.00    +0.000 C 
BRANCH  26  27
ATOM     27  C   UNL     1       6.194   7.016  17.231  0.00  0.00    +0.000 C 
BRANCH  27  28
ATOM     28  N   UNL     1       7.616   7.176  17.576  0.00  0.00    +0.000 NA
ATOM     29  C   UNL     1       7.980   8.574  17.808  0.00  0.00    +0.000 C 
ATOM     30  C   UNL     1       7.924   6.392  18.780  0.00  0.00    +0.000 C 
ENDBRANCH  27  28
ENDBRANCH  26  27
ENDBRANCH  25  26
ENDBRANCH  24  25
ENDBRANCH  10  24
TORSDOF 6
ENDMDL
MODEL 2
REMARK VINA RESULT:      -8.1      1.443      2.089
REMARK  Name = 
REMARK  9 active torsions:
REMARK  status: ('A' for Active; 'I' for Inactive)
REMARK    1  A    between atoms: C_1  and  O_2
REMARK    2  A    between atoms: O_2  and  C_3
REMARK    3  A    between atoms: C_12  and  O_13
REMARK    4  A    between atoms: O_13  and  C_14
REMARK    5  A    between atoms: C_14  and  C_15
REMARK    6  A    between atoms: C_15  and  C_16
REMARK    7  A    between atoms: C_16  and  N_17
REMARK    8  A    between atoms: N_17  and  C_18
REMARK    9  A    between atoms: N_17  and  C_19
REMARK                            x       y       z     vdW  Elec       q    Type
REMARK                         _______ _______ _______ _____ _____    ______ ____
ROOT
ATOM      1  C   UNL     1       3.504   3.937  19.102  0.00  0.00    +0.000 A 
ATOM      2  C   UNL     1       2.907   3.897  20.364  0.00  0.00    +0.000 A 
ATOM      3  C   UNL     1       2.266   5.011  20.886  0.00  0.00    +0.000 A 
ATOM      4  C   UNL     1       2.181   6.188  20.144  0.00  0.00    +0.000 A 
ATOM      5  C   UNL     1       1.520   7.282  20.684  0.00  0.00    +0.000 A 
ATOM      6  C   UNL     1       1.369   8.464  19.952  0.00  0.00    +0.000 A 
ATOM      7  N   UNL     1       1.904   8.534  18.701  0.00  0.00    +0.000 N 
ATOM      8  C   UNL     1       2.570   7.471  18.164  0.00  0.00    +0.000 A 
ATOM      9  C   UNL     1       2.737   6.259  18.857  0.00  0.00    +0.000 A 
ATOM     10  C   UNL     1       3.411   5.116  18.324  0.00  0.00    +0.000 A 
ATOM     11  C   UNL     1       1.683   9.729  17.839  0.00  0.00    +0.000 C 
ATOM     12  C   UNL     1       1.722  11.016  18.646  0.00  0.00    +0.000 C 
ATOM     13  C   UNL     1       0.816  10.917  19.840  0.00  0.00    +0.000 A 
ATOM     14  C   UNL     1       0.206  12.078  20.359  0.00  0.00    +0.000 A 
ATOM     15  C   UNL     1      -0.539  11.961  21.509  0.00  0.00    +0.000 A 
ATOM     16  C   UNL     1      -0.702  10.752  22.130  0.00  0.00    +0.000 A 
ATOM     17  C   UNL     1      -0.134   9.597  21.636  0.00  0.00    +0.000 A 
ATOM     18  C   UNL     1       0.666   9.657  20.474  0.00  0.00    +0.000 A 
ATOM     19  O   UNL     1      -1.445  10.842  23.265  0.00  0.00    +0.000 OA
ATOM     20  C   UNL     1      -1.669  12.268  23.330  0.00  0.00    +0.000 C 
ATOM     21  O   UNL     1      -1.164  12.968  22.170  0.00  0.00    +0.000 OA
ENDROOT
BRANCH   1  23
ATOM     22  C   UNL     1       3.186   1.739  18.271  0.00  0.00    +0.000 C 
ATOM     23  O   UNL     1       4.081   2.805  18.590  0.00  0.00    +0.000 OA
ENDBRANCH   1  23
BRANCH  10  24
ATOM     24  O   UNL     1       3.920   5.309  17.054  0.00  0.00    +0.000 OA
BRANCH  24  25
ATOM     25  C   UNL     1       5.321   5.575  16.919  0.00  0.00    +0.000 C 
BRANCH  25  26
ATOM     26  C   UNL     1       5.723   5.493  15.447  0.00  0.00    +0.000 C 
BRANCH  26  27
ATOM     27  C   UNL     1       5.766   4.027  14.993  0.00  0.00    +0.000 C 
BRANCH  27  28
ATOM     28  N   UNL     1       6.573   3.798  13.783  0.00  0.00    +0.000 NA
ATOM     29  C   UNL     1       5.750   3.516  12.606  0.00  0.00    +0.000 C 
ATOM     30  C   UNL     1       7.408   4.978  13.515  0.00  0.00    +0.000 C 
ENDBRANCH  27  28
ENDBRANCH  26  27
ENDBRANCH  25  26
ENDBRANCH  24  25
ENDBRANCH  10  24
TORSDOF 6
ENDMDL
MODEL 3
REMARK VINA RESULT:      -7.9      2.237      8.318
REMARK  Name = 
REMARK  9 active torsions:
REMARK  status: ('A' for Active; 'I' for Inactive)
REMARK    1  A    between atoms: C_1  and  O_2
REMARK    2  A    between atoms: O_2  and  C_3
REMARK    3  A    between atoms: C_12  and  O_13
REMARK    4  A    between atoms: O_13  and  C_14
REMARK    5  A    between atoms: C_14  and  C_15
REMARK    6  A    between atoms: C_15  and  C_16
REMARK    7  A    between atoms: C_16  and  N_17
REMARK    8  A    between atoms: N_17  and  C_18
REMARK    9  A    between atoms: N_17  and  C_19
REMARK                            x       y       z     vdW  Elec       q    Type
REMARK                         _______ _______ _______ _____ _____    ______ ____
ROOT
ATOM      1  C   UNL     1      -1.001  11.483  22.465  0.00  0.00    +0.000 A 
ATOM      2  C   UNL     1      -0.980  10.353  23.285  0.00  0.00    +0.000 A 
ATOM      3  C   UNL     1      -0.360   9.183  22.871  0.00  0.00    +0.000 A 
ATOM      4  C   UNL     1       0.282   9.124  21.636  0.00  0.00    +0.000 A 
ATOM      5  C   UNL     1       0.909   7.946  21.254  0.00  0.00    +0.000 A 
ATOM      6  C   UNL     1       1.607   7.862  20.045  0.00  0.00    +0.000 A 
ATOM      7  N   UNL     1       1.644   8.954  19.231  0.00  0.00    +0.000 N 
ATOM      8  C   UNL     1       1.019  10.113  19.588  0.00  0.00    +0.000 A 
ATOM      9  C   UNL     1       0.315  10.249  20.796  0.00  0.00    +0.000 A 
ATOM     10  C   UNL     1      -0.337  11.451  21.215  0.00  0.00    +0.000 A 
ATOM     11  C   UNL     1       2.458   8.951  17.984  0.00  0.00    +0.000 C 
ATOM     12  C   UNL     1       2.402   7.606  17.280  0.00  0.00    +0.000 C 
ATOM     13  C   UNL     1       2.711   6.495  18.243  0.00  0.00    +0.000 A 
ATOM     14  C   UNL     1       3.316   5.309  17.778  0.00  0.00    +0.000 A 
ATOM     15  C   UNL     1       3.494   4.278  18.672  0.00  0.00    +0.000 A 
ATOM     16  C   UNL     1       3.114   4.398  19.981  0.00  0.00    +0.000 A 
ATOM     17  C   UNL     1       2.537   5.552  20.469  0.00  0.00    +0.000 A 
ATOM     18  C   UNL     1       2.301   6.635  19.594  0.00  0.00    +0.000 A 
ATOM     19  O   UNL     1       3.344   3.268  20.699  0.00  0.00    +0.000 OA
ATOM     20  C   UNL     1       3.848   2.390  19.669  0.00  0.00    +0.000 C 
ATOM     21  O   UNL     1       4.021   3.058  18.398  0.00  0.00    +0.000 OA
ENDROOT
BRANCH   1  23
ATOM     22  C   UNL     1      -2.987  12.601  23.125  0.00  0.00    +0.000 C 
ATOM     23  O   UNL     1      -1.573  12.641  22.922  0.00  0.00    +0.000 OA
ENDBRANCH   1  23
BRANCH  10  24
ATOM     24  O   UNL     1      -0.242  12.485  20.304  0.00  0.00    +0.000 OA
BRANCH  24  25
ATOM     25  C   UNL     1      -1.444  12.960  19.689  0.00  0.00    +0.000 C 
BRANCH  25  26
ATOM     26  C   UNL     1      -2.193  11.793  19.048  0.00  0.00    +0.000 C 
BRANCH  26  27
ATOM     27  C   UNL     1      -1.886  11.730  17.545  0.00  0.00    +0.000 C 
BRANCH  27  28
ATOM     28  N   UNL     1      -2.573  10.636  16.838  0.00  0.00    +0.000 NA
ATOM     29  C   UNL     1      -3.109   9.628  17.755  0.00  0.00    +0.000 C 
ATOM     30  C   UNL     1      -3.671  11.182  16.028  0.00  0.00    +0.000 C 
ENDBRANCH  27  28
ENDBRANCH  26  27
ENDBRANCH  25  26
ENDBRANCH  24  25
ENDBRANCH  10  24
TORSDOF 6
ENDMDL
MODEL 4
REMARK VINA RESULT:      -7.9      2.280      4.524
REMARK  Name = 
REMARK  9 active torsions:
REMARK  status: ('A' for Active; 'I' for Inactive)
REMARK    1  A    between atoms: C_1  and  O_2
REMARK    2  A    between atoms: O_2  and  C_3
REMARK    3  A    between atoms: C_12  and  O_13
REMARK    4  A    between atoms: O_13  and  C_14
REMARK    5  A    between atoms: C_14  and  C_15
REMARK    6  A    between atoms: C_15  and  C_16
REMARK    7  A    between atoms: C_16  and  N_17
REMARK    8  A    between atoms: N_17  and  C_18
REMARK    9  A    between atoms: N_17  and  C_19
REMARK                            x       y       z     vdW  Elec       q    Type
REMARK                         _______ _______ _______ _____ _____    ______ ____
ROOT
ATOM      1  C   UNL     1       2.825   6.688  18.294  0.00  0.00    +0.000 A 
ATOM      2  C   UNL     1       2.790   7.812  17.467  0.00  0.00    +0.000 A 
ATOM      3  C   UNL     1       2.194   8.991  17.890  0.00  0.00    +0.000 A 
ATOM      4  C   UNL     1       1.642   9.083  19.167  0.00  0.00    +0.000 A 
ATOM      5  C   UNL     1       1.067  10.280  19.570  0.00  0.00    +0.000 A 
ATOM      6  C   UNL     1       0.548  10.430  20.861  0.00  0.00    +0.000 A 
ATOM      7  N   UNL     1       0.595   9.368  21.713  0.00  0.00    +0.000 N 
ATOM      8  C   UNL     1       1.144   8.182  21.324  0.00  0.00    +0.000 A 
ATOM      9  C   UNL     1       1.688   7.987  20.042  0.00  0.00    +0.000 A 
ATOM     10  C   UNL     1       2.289   6.767  19.601  0.00  0.00    +0.000 A 
ATOM     11  C   UNL     1       0.152   9.504  23.130  0.00  0.00    +0.000 C 
ATOM     12  C   UNL     1      -1.074  10.393  23.250  0.00  0.00    +0.000 C 
ATOM     13  C   UNL     1      -0.858  11.691  22.525  0.00  0.00    +0.000 A 
ATOM     14  C   UNL     1      -1.505  12.862  22.969  0.00  0.00    +0.000 A 
ATOM     15  C   UNL     1      -1.358  14.008  22.222  0.00  0.00    +0.000 A 
ATOM     16  C   UNL     1      -0.593  14.024  21.088  0.00  0.00    +0.000 A 
ATOM     17  C   UNL     1       0.067  12.900  20.639  0.00  0.00    +0.000 A 
ATOM     18  C   UNL     1      -0.068  11.684  21.346  0.00  0.00    +0.000 A 
ATOM     19  O   UNL     1      -0.592  15.236  20.473  0.00  0.00    +0.000 OA
ATOM     20  C   UNL     1      -1.511  15.967  21.315  0.00  0.00    +0.000 C 
ATOM     21  O   UNL     1      -1.933  15.211  22.473  0.00  0.00    +0.000 OA
ENDROOT
BRANCH   1  23
ATOM     22  C   UNL     1       4.881   5.524  18.083  0.00  0.00    +0.000 C 
ATOM     23  O   UNL     1       3.469   5.555  17.870  0.00  0.00    +0.000 OA
ENDBRANCH   1  23
BRANCH  10  24
ATOM     24  O   UNL     1       2.269   5.760  20.548  0.00  0.00    +0.000 OA
BRANCH  24  25
ATOM     25  C   UNL     1       1.255   4.754  20.446  0.00  0.00    +0.000 C 
BRANCH  25  26
ATOM     26  C   UNL     1       1.649   3.537  21.282  0.00  0.00    +0.000 C 
BRANCH  26  27
ATOM     27  C   UNL     1       2.031   2.367  20.363  0.00  0.00    +0.000 C 
BRANCH  27  28
ATOM     28  N   UNL     1       3.149   2.661  19.452  0.00  0.00    +0.000 NA
ATOM     29  C   UNL     1       4.438   2.225  19.989  0.00  0.00    +0.000 C 
ATOM     30  C   UNL     1       2.919   2.002  18.158  0.00  0.00    +0.000 C 
ENDBRANCH  27  28
ENDBRANCH  26  27
ENDBRANCH  25  26
ENDBRANCH  24  25
ENDBRANCH  10  24
TORSDOF 6
ENDMDL
MODEL 5
REMARK VINA RESULT:      -7.8      2.119      4.354
REMARK  Name = 
REMARK  9 active torsions:
REMARK  status: ('A' for Active; 'I' for Inactive)
REMARK    1  A    between atoms: C_1  and  O_2
REMARK    2  A    between atoms: O_2  and  C_3
REMARK    3  A    between atoms: C_12  and  O_13
REMARK    4  A    between atoms: O_13  and  C_14
REMARK    5  A    between atoms: C_14  and  C_15
REMARK    6  A    between atoms: C_15  and  C_16
REMARK    7  A    between atoms: C_16  and  N_17
REMARK    8  A    between atoms: N_17  and  C_18
REMARK    9  A    between atoms: N_17  and  C_19
REMARK                            x       y       z     vdW  Elec       q    Type
REMARK                         _______ _______ _______ _____ _____    ______ ____
ROOT
ATOM      1  C   UNL     1       5.174   5.084  16.826  0.00  0.00    +0.000 A 
ATOM      2  C   UNL     1       5.137   6.200  15.987  0.00  0.00    +0.000 A 
ATOM      3  C   UNL     1       4.346   7.298  16.293  0.00  0.00    +0.000 A 
ATOM      4  C   UNL     1       3.593   7.318  17.466  0.00  0.00    +0.000 A 
ATOM      5  C   UNL     1       2.823   8.436  17.756  0.00  0.00    +0.000 A 
ATOM      6  C   UNL     1       2.093   8.517  18.946  0.00  0.00    +0.000 A 
ATOM      7  N   UNL     1       2.130   7.465  19.811  0.00  0.00    +0.000 N 
ATOM      8  C   UNL     1       2.871   6.355  19.531  0.00  0.00    +0.000 A 
ATOM      9  C   UNL     1       3.629   6.232  18.354  0.00  0.00    +0.000 A 
ATOM     10  C   UNL     1       4.433   5.094  18.031  0.00  0.00    +0.000 A 
ATOM     11  C   UNL     1       1.456   7.541  21.138  0.00  0.00    +0.000 C 
ATOM     12  C   UNL     1       0.129   8.277  21.050  0.00  0.00    +0.000 C 
ATOM     13  C   UNL     1       0.302   9.594  20.349  0.00  0.00    +0.000 A 
ATOM     14  C   UNL     1      -0.541  10.678  20.669  0.00  0.00    +0.000 A 
ATOM     15  C   UNL     1      -0.415  11.836  19.938  0.00  0.00    +0.000 A 
ATOM     16  C   UNL     1       0.512  11.948  18.938  0.00  0.00    +0.000 A 
ATOM     17  C   UNL     1       1.364  10.913  18.615  0.00  0.00    +0.000 A 
ATOM     18  C   UNL     1       1.263   9.687  19.310  0.00  0.00    +0.000 A 
ATOM     19  O   UNL     1       0.466  13.154  18.313  0.00  0.00    +0.000 OA
ATOM     20  C   UNL     1      -0.654  13.767  18.988  0.00  0.00    +0.000 C 
ATOM     21  O   UNL     1      -1.161  12.961  20.077  0.00  0.00    +0.000 OA
ENDROOT
BRANCH   1  23
ATOM     22  C   UNL     1       6.235   3.802  15.135  0.00  0.00    +0.000 C 
ATOM     23  O   UNL     1       6.007   4.039  16.525  0.00  0.00    +0.000 OA
ENDBRANCH   1  23
BRANCH  10  24
ATOM     24  O   UNL     1       4.383   4.088  18.977  0.00  0.00    +0.000 OA
BRANCH  24  25
ATOM     25  C   UNL     1       3.910   2.798  18.572  0.00  0.00    +0.000 C 
BRANCH  25  26
ATOM     26  C   UNL     1       2.392   2.833  18.404  0.00  0.00    +0.000 C 
BRANCH  26  27
ATOM     27  C   UNL     1       1.726   1.910  19.435  0.00  0.00    +0.000 C 
BRANCH  27  28
ATOM     28  N   UNL     1       1.229   2.609  20.631  0.00  0.00    +0.000 NA
ATOM     29  C   UNL     1       2.253   2.739  21.669  0.00  0.00    +0.000 C 
ATOM     30  C   UNL     1       0.749   3.948  20.259  0.00  0.00    +0.000 C 
ENDBRANCH  27  28
ENDBRANCH  26  27
ENDBRANCH  25  26
ENDBRANCH  24  25
ENDBRANCH  10  24
TORSDOF 6
ENDMDL
MODEL 6
REMARK VINA RESULT:      -7.5      2.195      8.004
REMARK  Name = 
REMARK  9 active torsions:
REMARK  status: ('A' for Active; 'I' for Inactive)
REMARK    1  A    between atoms: C_1  and  O_2
REMARK    2  A    between atoms: O_2  and  C_3
REMARK    3  A    between atoms: C_12  and  O_13
REMARK    4  A    between atoms: O_13  and  C_14
REMARK    5  A    between atoms: C_14  and  C_15
REMARK    6  A    between atoms: C_15  and  C_16
REMARK    7  A    between atoms: C_16  and  N_17
REMARK    8  A    between atoms: N_17  and  C_18
REMARK    9  A    between atoms: N_17  and  C_19
REMARK                            x       y       z     vdW  Elec       q    Type
REMARK                         _______ _______ _______ _____ _____    ______ ____
ROOT
ATOM      1  C   UNL     1      -0.830  11.329  22.560  0.00  0.00    +0.000 A 
ATOM      2  C   UNL     1      -0.873  10.160  23.324  0.00  0.00    +0.000 A 
ATOM      3  C   UNL     1      -0.286   8.988  22.870  0.00  0.00    +0.000 A 
ATOM      4  C   UNL     1       0.387   8.964  21.649  0.00  0.00    +0.000 A 
ATOM      5  C   UNL     1       0.979   7.783  21.227  0.00  0.00    +0.000 A 
ATOM      6  C   UNL     1       1.706   7.729  20.033  0.00  0.00    +0.000 A 
ATOM      7  N   UNL     1       1.805   8.857  19.274  0.00  0.00    +0.000 N 
ATOM      8  C   UNL     1       1.214  10.020  19.671  0.00  0.00    +0.000 A 
ATOM      9  C   UNL     1       0.484  10.126  20.867  0.00  0.00    +0.000 A 
ATOM     10  C   UNL     1      -0.135  11.330  21.327  0.00  0.00    +0.000 A 
ATOM     11  C   UNL     1       2.652   8.883  18.049  0.00  0.00    +0.000 C 
ATOM     12  C   UNL     1       2.565   7.575  17.279  0.00  0.00    +0.000 C 
ATOM     13  C   UNL     1       2.806   6.408  18.194  0.00  0.00    +0.000 A 
ATOM     14  C   UNL     1       3.379   5.224  17.688  0.00  0.00    +0.000 A 
ATOM     15  C   UNL     1       3.495   4.145  18.534  0.00  0.00    +0.000 A 
ATOM     16  C   UNL     1       3.084   4.217  19.837  0.00  0.00    +0.000 A 
ATOM     17  C   UNL     1       2.538   5.367  20.366  0.00  0.00    +0.000 A 
ATOM     18  C   UNL     1       2.365   6.500  19.540  0.00  0.00    +0.000 A 
ATOM     19  O   UNL     1       3.253   3.046  20.505  0.00  0.00    +0.000 OA
ATOM     20  C   UNL     1       3.752   2.199  19.446  0.00  0.00    +0.000 C 
ATOM     21  O   UNL     1       3.984   2.920  18.214  0.00  0.00    +0.000 OA
ENDROOT
BRANCH   1  23
ATOM     22  C   UNL     1      -2.798  12.540  23.097  0.00  0.00    +0.000 C 
ATOM     23  O   UNL     1      -1.371  12.485  23.059  0.00  0.00    +0.000 OA
ENDBRANCH   1  23
BRANCH  10  24
ATOM     24  O   UNL     1       0.024  12.402  20.470  0.00  0.00    +0.000 OA
BRANCH  24  25
ATOM     25  C   UNL     1      -0.996  12.647  19.495  0.00  0.00    +0.000 C 
BRANCH  25  26
ATOM     26  C   UNL     1      -0.405  13.410  18.310  0.00  0.00    +0.000 C 
BRANCH  26  27
ATOM     27  C   UNL     1       0.178  14.750  18.783  0.00  0.00    +0.000 C 
BRANCH  27  28
ATOM     28  N   UNL     1       1.639  14.853  18.636  0.00  0.00    +0.000 NA
ATOM     29  C   UNL     1       2.312  15.116  19.909  0.00  0.00    +0.000 C 
ATOM     30  C   UNL     1       2.167  13.608  18.060  0.00  0.00    +0.000 C 
ENDBRANCH  27  28
ENDBRANCH  26  27
ENDBRANCH  25  26
ENDBRANCH  24  25
ENDBRANCH  10  24
TORSDOF 6
ENDMDL
MODEL 7
REMARK VINA RESULT:      -7.4      1.152      1.653
REMARK  Name = 
REMARK  9 active torsions:
REMARK  status: ('A' for Active; 'I' for Inactive)
REMARK    1  A    between atoms: C_1  and  O_2
REMARK    2  A    between atoms: O_2  and  C_3
REMARK    3  A    between atoms: C_12  and  O_13
REMARK    4  A    between atoms: O_13  and  C_14
REMARK    5  A    between atoms: C_14  and  C_15
REMARK    6  A    between atoms: C_15  and  C_16
REMARK    7  A    between atoms: C_16  and  N_17
REMARK    8  A    between atoms: N_17  and  C_18
REMARK    9  A    between atoms: N_17  and  C_19
REMARK                            x       y       z     vdW  Elec       q    Type
REMARK                         _______ _______ _______ _____ _____    ______ ____
ROOT
ATOM      1  C   UNL     1       3.505   4.289  19.036  0.00  0.00    +0.000 A 
ATOM      2  C   UNL     1       2.869   4.207  20.277  0.00  0.00    +0.000 A 
ATOM      3  C   UNL     1       2.205   5.302  20.813  0.00  0.00    +0.000 A 
ATOM      4  C   UNL     1       2.136   6.499  20.104  0.00  0.00    +0.000 A 
ATOM      5  C   UNL     1       1.452   7.574  20.656  0.00  0.00    +0.000 A 
ATOM      6  C   UNL     1       1.316   8.777  19.955  0.00  0.00    +0.000 A 
ATOM      7  N   UNL     1       1.889   8.887  18.724  0.00  0.00    +0.000 N 
ATOM      8  C   UNL     1       2.578   7.844  18.177  0.00  0.00    +0.000 A 
ATOM      9  C   UNL     1       2.731   6.613  18.838  0.00  0.00    +0.000 A 
ATOM     10  C   UNL     1       3.428   5.490  18.292  0.00  0.00    +0.000 A 
ATOM     11  C   UNL     1       1.688  10.107  17.893  0.00  0.00    +0.000 C 
ATOM     12  C   UNL     1       1.694  11.369  18.738  0.00  0.00    +0.000 C 
ATOM     13  C   UNL     1       0.752  11.229  19.900  0.00  0.00    +0.000 A 
ATOM     14  C   UNL     1       0.119  12.370  20.434  0.00  0.00    +0.000 A 
ATOM     15  C   UNL     1      -0.660  12.214  21.557  0.00  0.00    +0.000 A 
ATOM     16  C   UNL     1      -0.836  10.986  22.136  0.00  0.00    +0.000 A 
ATOM     17  C   UNL     1      -0.245   9.850  21.626  0.00  0.00    +0.000 A 
ATOM     18  C   UNL     1       0.590   9.949  20.491  0.00  0.00    +0.000 A 
ATOM     19  O   UNL     1      -1.613  11.038  23.250  0.00  0.00    +0.000 OA
ATOM     20  C   UNL     1      -1.848  12.460  23.350  0.00  0.00    +0.000 C 
ATOM     21  O   UNL     1      -1.312  13.197  22.228  0.00  0.00    +0.000 OA
ENDROOT
BRANCH   1  23
ATOM     22  C   UNL     1       3.870   1.951  19.206  0.00  0.00    +0.000 C 
ATOM     23  O   UNL     1       4.104   3.175  18.508  0.00  0.00    +0.000 OA
ENDBRANCH   1  23
BRANCH  10  24
ATOM     24  O   UNL     1       3.976   5.724  17.045  0.00  0.00    +0.000 OA
BRANCH  24  25
ATOM     25  C   UNL     1       5.157   6.529  16.963  0.00  0.00    +0.000 C 
BRANCH  25  26
ATOM     26  C   UNL     1       6.321   5.810  17.643  0.00  0.00    +0.000 C 
BRANCH  26  27
ATOM     27  C   UNL     1       6.945   4.789  16.682  0.00  0.00    +0.000 C 
BRANCH  27  28
ATOM     28  N   UNL     1       6.377   4.819  15.324  0.00  0.00    +0.000 NA
ATOM     29  C   UNL     1       7.372   5.169  14.309  0.00  0.00    +0.000 C 
ATOM     30  C   UNL     1       5.800   3.507  15.000  0.00  0.00    +0.000 C 
ENDBRANCH  27  28
ENDBRANCH  26  27
ENDBRANCH  25  26
ENDBRANCH  24  25
ENDBRANCH  10  24
TORSDOF 6
ENDMDL
MODEL 8
REMARK VINA RESULT:      -7.3      2.351      8.061
REMARK  Name = 
REMARK  9 active torsions:
REMARK  status: ('A' for Active; 'I' for Inactive)
REMARK    1  A    between atoms: C_1  and  O_2
REMARK    2  A    between atoms: O_2  and  C_3
REMARK    3  A    between atoms: C_12  and  O_13
REMARK    4  A    between atoms: O_13  and  C_14
REMARK    5  A    between atoms: C_14  and  C_15
REMARK    6  A    between atoms: C_15  and  C_16
REMARK    7  A    between atoms: C_16  and  N_17
REMARK    8  A    between atoms: N_17  and  C_18
REMARK    9  A    between atoms: N_17  and  C_19
REMARK                            x       y       z     vdW  Elec       q    Type
REMARK                         _______ _______ _______ _____ _____    ______ ____
ROOT
ATOM      1  C   UNL     1      -0.930  11.532  22.444  0.00  0.00    +0.000 A 
ATOM      2  C   UNL     1      -0.938  10.402  23.265  0.00  0.00    +0.000 A 
ATOM      3  C   UNL     1      -0.338   9.220  22.857  0.00  0.00    +0.000 A 
ATOM      4  C   UNL     1       0.311   9.146  21.626  0.00  0.00    +0.000 A 
ATOM      5  C   UNL     1       0.916   7.955  21.250  0.00  0.00    +0.000 A 
ATOM      6  C   UNL     1       1.621   7.855  20.046  0.00  0.00    +0.000 A 
ATOM      7  N   UNL     1       1.685   8.945  19.231  0.00  0.00    +0.000 N 
ATOM      8  C   UNL     1       1.081  10.117  19.582  0.00  0.00    +0.000 A 
ATOM      9  C   UNL     1       0.372  10.269  20.786  0.00  0.00    +0.000 A 
ATOM     10  C   UNL     1      -0.259  11.484  21.199  0.00  0.00    +0.000 A 
ATOM     11  C   UNL     1       2.508   8.925  17.989  0.00  0.00    +0.000 C 
ATOM     12  C   UNL     1       2.430   7.580  17.287  0.00  0.00    +0.000 C 
ATOM     13  C   UNL     1       2.709   6.464  18.253  0.00  0.00    +0.000 A 
ATOM     14  C   UNL     1       3.294   5.266  17.794  0.00  0.00    +0.000 A 
ATOM     15  C   UNL     1       3.445   4.233  18.690  0.00  0.00    +0.000 A 
ATOM     16  C   UNL     1       3.058   4.362  19.996  0.00  0.00    +0.000 A 
ATOM     17  C   UNL     1       2.501   5.527  20.479  0.00  0.00    +0.000 A 
ATOM     18  C   UNL     1       2.293   6.614  19.601  0.00  0.00    +0.000 A 
ATOM     19  O   UNL     1       3.261   3.228  20.717  0.00  0.00    +0.000 OA
ATOM     20  C   UNL     1       3.754   2.339  19.691  0.00  0.00    +0.000 C 
ATOM     21  O   UNL     1       3.949   3.002  18.421  0.00  0.00    +0.000 OA
ENDROOT
BRANCH   1  23
ATOM     22  C   UNL     1      -2.871  12.885  22.616  0.00  0.00    +0.000 C 
ATOM     23  O   UNL     1      -1.482  12.702  22.896  0.00  0.00    +0.000 OA
ENDBRANCH   1  23
BRANCH  10  24
ATOM     24  O   UNL     1      -0.136  12.515  20.287  0.00  0.00    +0.000 OA
BRANCH  24  25
ATOM     25  C   UNL     1       0.734  13.606  20.609  0.00  0.00    +0.000 C 
BRANCH  25  26
ATOM     26  C   UNL     1       1.929  13.612  19.659  0.00  0.00    +0.000 C 
BRANCH  26  27
ATOM     27  C   UNL     1       2.559  15.012  19.610  0.00  0.00    +0.000 C 
BRANCH  27  28
ATOM     28  N   UNL     1       2.412  15.690  18.311  0.00  0.00    +0.000 NA
ATOM     29  C   UNL     1       2.098  17.112  18.455  0.00  0.00    +0.000 C 
ATOM     30  C   UNL     1       3.653  15.547  17.536  0.00  0.00    +0.000 C 
ENDBRANCH  27  28
ENDBRANCH  26  27
ENDBRANCH  25  26
ENDBRANCH  24  25
ENDBRANCH  10  24
TORSDOF 6
ENDMDL
MODEL 9
REMARK VINA RESULT:      -7.1      2.491      8.322
REMARK  Name = 
REMARK  9 active torsions:
REMARK  status: ('A' for Active; 'I' for Inactive)
REMARK    1  A    between atoms: C_1  and  O_2
REMARK    2  A    between atoms: O_2  and  C_3
REMARK    3  A    between atoms: C_12  and  O_13
REMARK    4  A    between atoms: O_13  and  C_14
REMARK    5  A    between atoms: C_14  and  C_15
REMARK    6  A    between atoms: C_15  and  C_16
REMARK    7  A    between atoms: C_16  and  N_17
REMARK    8  A    between atoms: N_17  and  C_18
REMARK    9  A    between atoms: N_17  and  C_19
REMARK                            x       y       z     vdW  Elec       q    Type
REMARK                         _______ _______ _______ _____ _____    ______ ____
ROOT
ATOM      1  C   UNL     1      -0.595  12.426  21.665  0.00  0.00    +0.000 A 
ATOM      2  C   UNL     1      -0.823  11.505  22.690  0.00  0.00    +0.000 A 
ATOM      3  C   UNL     1      -0.402  10.189  22.574  0.00  0.00    +0.000 A 
ATOM      4  C   UNL     1       0.286   9.767  21.438  0.00  0.00    +0.000 A 
ATOM      5  C   UNL     1       0.711   8.448  21.354  0.00  0.00    +0.000 A 
ATOM      6  C   UNL     1       1.448   7.997  20.254  0.00  0.00    +0.000 A 
ATOM      7  N   UNL     1       1.725   8.873  19.248  0.00  0.00    +0.000 N 
ATOM      8  C   UNL     1       1.300  10.168  19.310  0.00  0.00    +0.000 A 
ATOM      9  C   UNL     1       0.567  10.669  20.399  0.00  0.00    +0.000 A 
ATOM     10  C   UNL     1       0.119  12.023  20.512  0.00  0.00    +0.000 A 
ATOM     11  C   UNL     1       2.593   8.474  18.104  0.00  0.00    +0.000 C 
ATOM     12  C   UNL     1       2.334   7.039  17.678  0.00  0.00    +0.000 C 
ATOM     13  C   UNL     1       2.384   6.120  18.864  0.00  0.00    +0.000 A 
ATOM     14  C   UNL     1       2.791   4.780  18.700  0.00  0.00    +0.000 A 
ATOM     15  C   UNL     1       2.732   3.945  19.791  0.00  0.00    +0.000 A 
ATOM     16  C   UNL     1       2.308   4.398  21.011  0.00  0.00    +0.000 A 
ATOM     17  C   UNL     1       1.922   5.707  21.207  0.00  0.00    +0.000 A 
ATOM     18  C   UNL     1       1.933   6.606  20.118  0.00  0.00    +0.000 A 
ATOM     19  O   UNL     1       2.291   3.421  21.956  0.00  0.00    +0.000 OA
ATOM     20  C   UNL     1       2.685   2.276  21.169  0.00  0.00    +0.000 C 
ATOM     21  O   UNL     1       3.045   2.624  19.812  0.00  0.00    +0.000 OA
ENDROOT
BRANCH   1  23
ATOM     22  C   UNL     1       0.039  14.618  22.311  0.00  0.00    +0.000 C 
ATOM     23  O   UNL     1      -0.974  13.732  21.832  0.00  0.00    +0.000 OA
ENDBRANCH   1  23
BRANCH  10  24
ATOM     24  O   UNL     1       0.449  12.812  19.427  0.00  0.00    +0.000 OA
BRANCH  24  25
ATOM     25  C   UNL     1      -0.587  13.164  18.504  0.00  0.00    +0.000 C 
BRANCH  25  26
ATOM     26  C   UNL     1      -1.770  12.211  18.668  0.00  0.00    +0.000 C 
BRANCH  26  27
ATOM     27  C   UNL     1      -2.036  11.467  17.351  0.00  0.00    +0.000 C 
BRANCH  27  28
ATOM     28  N   UNL     1      -3.399  10.925  17.233  0.00  0.00    +0.000 NA
ATOM     29  C   UNL     1      -3.939  11.058  15.880  0.00  0.00    +0.000 C 
ATOM     30  C   UNL     1      -3.402   9.506  17.615  0.00  0.00    +0.000 C 
ENDBRANCH  27  28
ENDBRANCH  26  27
ENDBRANCH  25  26
ENDBRANCH  24  25
ENDBRANCH  10  24
TORSDOF 6
ENDMDL
