MODEL 1
REMARK VINA RESULT:      -6.3      0.000      0.000
REMARK  Name = 
REMARK  14 active torsions:
REMARK  status: ('A' for Active; 'I' for Inactive)
REMARK    1  A    between atoms: C_1  and  C_2
REMARK    2  A    between atoms: C_2  and  C_3
REMARK    3  A    between atoms: C_6  and  C_7
REMARK    4  A    between atoms: C_7  and  N_8
REMARK    5  A    between atoms: N_8  and  C_9
REMARK    6  A    between atoms: N_8  and  C_10
REMARK    7  A    between atoms: C_10  and  C_11
REMARK    8  A    between atoms: C_14  and  S_15
REMARK    9  A    between atoms: S_15  and  C_18
REMARK   10  A    between atoms: C_18  and  C_19
REMARK   11  A    between atoms: N_20  and  C_21
REMARK   12  A    between atoms: C_21  and  C_22
REMARK   13  A    between atoms: C_22  and  O_23
REMARK   14  A    between atoms: O_23  and  C_24
REMARK                            x       y       z     vdW  Elec       q    Type
REMARK                         _______ _______ _______ _____ _____    ______ ____
ROOT
ATOM      1  C   UNL     1       4.650   3.988  18.626  0.00  0.00    +0.000 A 
ATOM      2  C   UNL     1       4.229   3.019  17.741  0.00  0.00    +0.000 A 
ATOM      3  N   UNL     1       4.608   3.313  16.465  0.00  0.00    +0.000 NA
ATOM      4  C   UNL     1       5.274   4.455  16.542  0.00  0.00    +0.000 A 
ATOM      5  N   UNL     1       5.328   4.908  17.847  0.00  0.00    +0.000 N 
ENDROOT
BRANCH   4   6
ATOM      6  S   UNL     1       5.977   5.271  15.131  0.00  0.00    +0.000 S 
ATOM      7  O   UNL     1       5.314   6.559  15.079  0.00  0.00    +0.000 OA
ATOM      8  O   UNL     1       7.414   5.158  15.296  0.00  0.00    +0.000 OA
BRANCH   6   9
ATOM      9  C   UNL     1       5.451   4.265  13.758  0.00  0.00    +0.000 C 
ATOM     10  C   UNL     1       6.625   3.843  12.898  0.00  0.00    +0.000 C 
ENDBRANCH   6   9
ENDBRANCH   4   6
BRANCH   1  11
ATOM     11  C   UNL     1       4.412   4.062  20.095  0.00  0.00    +0.000 C 
BRANCH  11  12
ATOM     12  N   UNL     1       3.025   4.371  20.475  0.00  0.00    +0.000 NA
ATOM     13  C   UNL     1       2.295   3.174  20.911  0.00  0.00    +0.000 C 
BRANCH  12  14
ATOM     14  C   UNL     1       2.364   4.982  19.305  0.00  0.00    +0.000 C 
BRANCH  14  18
ATOM     15  C   UNL     1       1.387   9.180  19.585  0.00  0.00    +0.000 A 
ATOM     16  C   UNL     1       1.949   8.665  18.409  0.00  0.00    +0.000 A 
ATOM     17  C   UNL     1       2.304   7.318  18.329  0.00  0.00    +0.000 A 
ATOM     18  C   UNL     1       2.101   6.467  19.421  0.00  0.00    +0.000 A 
ATOM     19  C   UNL     1       1.592   6.996  20.615  0.00  0.00    +0.000 A 
ATOM     20  C   UNL     1       1.239   8.342  20.695  0.00  0.00    +0.000 A 
BRANCH  15  22
ATOM     21  C   UNL     1      -0.280  10.725  18.590  0.00  0.00    +0.000 C 
ATOM     22  C   UNL     1       0.835  10.581  19.619  0.00  0.00    +0.000 C 
ENDBRANCH  15  22
ENDBRANCH  14  18
ENDBRANCH  12  14
ENDBRANCH  11  12
ENDBRANCH   1  11
BRANCH   5  23
ATOM     23  C   UNL     1       6.026   6.091  18.312  0.00  0.00    +0.000 C 
BRANCH  23  24
ATOM     24  C   UNL     1       7.409   5.807  18.888  0.00  0.00    +0.000 C 
BRANCH  24  25
ATOM     25  O   UNL     1       8.267   6.911  18.586  0.00  0.00    +0.000 OA
ATOM     26  C   UNL     1       7.667   7.811  17.664  0.00  0.00    +0.000 C 
ENDBRANCH  24  25
ENDBRANCH  23  24
ENDBRANCH   5  23
TORSDOF 10
ENDMDL
MODEL 2
REMARK VINA RESULT:      -6.1      0.947      1.460
REMARK  Name = 
REMARK  14 active torsions:
REMARK  status: ('A' for Active; 'I' for Inactive)
REMARK    1  A    between atoms: C_1  and  C_2
REMARK    2  A    between atoms: C_2  and  C_3
REMARK    3  A    between atoms: C_6  and  C_7
REMARK    4  A    between atoms: C_7  and  N_8
REMARK    5  A    between atoms: N_8  and  C_9
REMARK    6  A    between atoms: N_8  and  C_10
REMARK    7  A    between atoms: C_10  and  C_11
REMARK    8  A    between atoms: C_14  and  S_15
REMARK    9  A    between atoms: S_15  and  C_18
REMARK   10  A    between atoms: C_18  and  C_19
REMARK   11  A    between atoms: N_20  and  C_21
REMARK   12  A    between atoms: C_21  and  C_22
REMARK   13  A    between atoms: C_22  and  O_23
REMARK   14  A    between atoms: O_23  and  C_24
REMARK                            x       y       z     vdW  Elec       q    Type
REMARK                         _______ _______ _______ _____ _____    ______ ____
ROOT
ATOM      1  C   UNL     1       4.593   4.409  18.455  0.00  0.00    +0.000 A 
ATOM      2  C   UNL     1       3.935   3.524  17.627  0.00  0.00    +0.000 A 
ATOM      3  N   UNL     1       4.466   3.533  16.371  0.00  0.00    +0.000 NA
ATOM      4  C   UNL     1       5.458   4.409  16.406  0.00  0.00    +0.000 A 
ATOM      5  N   UNL     1       5.576   4.971  17.663  0.00  0.00    +0.000 N 
ENDROOT
BRANCH   4   6
ATOM      6  S   UNL     1       6.471   4.792  14.999  0.00  0.00    +0.000 S 
ATOM      7  O   UNL     1       5.976   6.067  14.522  0.00  0.00    +0.000 OA
ATOM      8  O   UNL     1       7.839   4.623  15.452  0.00  0.00    +0.000 OA
BRANCH   6   9
ATOM      9  C   UNL     1       6.067   3.510  13.828  0.00  0.00    +0.000 C 
ATOM     10  C   UNL     1       6.598   3.833  12.446  0.00  0.00    +0.000 C 
ENDBRANCH   6   9
ENDBRANCH   4   6
BRANCH   1  11
ATOM     11  C   UNL     1       4.303   4.725  19.882  0.00  0.00    +0.000 C 
BRANCH  11  12
ATOM     12  N   UNL     1       3.114   5.566  20.093  0.00  0.00    +0.000 NA
ATOM     13  C   UNL     1       1.948   4.777  20.507  0.00  0.00    +0.000 C 
BRANCH  12  14
ATOM     14  C   UNL     1       2.836   6.276  18.829  0.00  0.00    +0.000 C 
BRANCH  14  18
ATOM     15  C   UNL     1       1.045  10.177  19.301  0.00  0.00    +0.000 A 
ATOM     16  C   UNL     1       1.073   9.281  20.377  0.00  0.00    +0.000 A 
ATOM     17  C   UNL     1       1.614   8.005  20.218  0.00  0.00    +0.000 A 
ATOM     18  C   UNL     1       2.136   7.607  18.981  0.00  0.00    +0.000 A 
ATOM     19  C   UNL     1       2.054   8.484  17.892  0.00  0.00    +0.000 A 
ATOM     20  C   UNL     1       1.513   9.759  18.051  0.00  0.00    +0.000 A 
BRANCH  15  22
ATOM     21  C   UNL     1      -0.649  11.900  18.737  0.00  0.00    +0.000 C 
ATOM     22  C   UNL     1       0.633  11.610  19.510  0.00  0.00    +0.000 C 
ENDBRANCH  15  22
ENDBRANCH  14  18
ENDBRANCH  12  14
ENDBRANCH  11  12
ENDBRANCH   1  11
BRANCH   5  23
ATOM     23  C   UNL     1       6.589   5.921  18.081  0.00  0.00    +0.000 C 
BRANCH  23  24
ATOM     24  C   UNL     1       6.373   7.333  17.545  0.00  0.00    +0.000 C 
BRANCH  24  25
ATOM     25  O   UNL     1       7.625   7.842  17.077  0.00  0.00    +0.000 OA
ATOM     26  C   UNL     1       8.077   8.938  17.862  0.00  0.00    +0.000 C 
ENDBRANCH  24  25
ENDBRANCH  23  24
ENDBRANCH   5  23
TORSDOF 10
ENDMDL
MODEL 3
REMARK VINA RESULT:      -6.1      0.971      1.190
REMARK  Name = 
REMARK  14 active torsions:
REMARK  status: ('A' for Active; 'I' for Inactive)
REMARK    1  A    between atoms: C_1  and  C_2
REMARK    2  A    between atoms: C_2  and  C_3
REMARK    3  A    between atoms: C_6  and  C_7
REMARK    4  A    between atoms: C_7  and  N_8
REMARK    5  A    between atoms: N_8  and  C_9
REMARK    6  A    between atoms: N_8  and  C_10
REMARK    7  A    between atoms: C_10  and  C_11
REMARK    8  A    between atoms: C_14  and  S_15
REMARK    9  A    between atoms: S_15  and  C_18
REMARK   10  A    between atoms: C_18  and  C_19
REMARK   11  A    between atoms: N_20  and  C_21
REMARK   12  A    between atoms: C_21  and  C_22
REMARK   13  A    between atoms: C_22  and  O_23
REMARK   14  A    between atoms: O_23  and  C_24
REMARK                            x       y       z     vdW  Elec       q    Type
REMARK                         _______ _______ _______ _____ _____    ______ ____
ROOT
ATOM      1  C   UNL     1       4.384   4.351  18.428  0.00  0.00    +0.000 A 
ATOM      2  C   UNL     1       3.866   3.379  17.599  0.00  0.00    +0.000 A 
ATOM      3  N   UNL     1       4.494   3.373  16.389  0.00  0.00    +0.000 NA
ATOM      4  C   UNL     1       5.409   4.327  16.454  0.00  0.00    +0.000 A 
ATOM      5  N   UNL     1       5.382   4.955  17.685  0.00  0.00    +0.000 N 
ENDROOT
BRANCH   4   6
ATOM      6  S   UNL     1       6.499   4.726  15.111  0.00  0.00    +0.000 S 
ATOM      7  O   UNL     1       6.007   5.989  14.596  0.00  0.00    +0.000 OA
ATOM      8  O   UNL     1       7.840   4.591  15.649  0.00  0.00    +0.000 OA
BRANCH   6   9
ATOM      9  C   UNL     1       6.197   3.431  13.924  0.00  0.00    +0.000 C 
ATOM     10  C   UNL     1       6.431   3.911  12.507  0.00  0.00    +0.000 C 
ENDBRANCH   6   9
ENDBRANCH   4   6
BRANCH   1  11
ATOM     11  C   UNL     1       3.956   4.708  19.810  0.00  0.00    +0.000 C 
BRANCH  11  12
ATOM     12  N   UNL     1       2.698   5.467  19.884  0.00  0.00    +0.000 NA
ATOM     13  C   UNL     1       1.523   4.587  19.872  0.00  0.00    +0.000 C 
BRANCH  12  14
ATOM     14  C   UNL     1       2.664   6.393  18.735  0.00  0.00    +0.000 C 
BRANCH  14  18
ATOM     15  C   UNL     1       0.678  10.146  19.527  0.00  0.00    +0.000 A 
ATOM     16  C   UNL     1       1.116   9.841  18.231  0.00  0.00    +0.000 A 
ATOM     17  C   UNL     1       1.793   8.647  17.979  0.00  0.00    +0.000 A 
ATOM     18  C   UNL     1       2.042   7.742  19.017  0.00  0.00    +0.000 A 
ATOM     19  C   UNL     1       1.656   8.076  20.322  0.00  0.00    +0.000 A 
ATOM     20  C   UNL     1       0.980   9.268  20.574  0.00  0.00    +0.000 A 
BRANCH  15  22
ATOM     21  C   UNL     1      -1.203  11.491  18.629  0.00  0.00    +0.000 C 
ATOM     22  C   UNL     1      -0.208  11.338  19.774  0.00  0.00    +0.000 C 
ENDBRANCH  15  22
ENDBRANCH  14  18
ENDBRANCH  12  14
ENDBRANCH  11  12
ENDBRANCH   1  11
BRANCH   5  23
ATOM     23  C   UNL     1       6.280   6.003  18.130  0.00  0.00    +0.000 C 
BRANCH  23  24
ATOM     24  C   UNL     1       6.012   7.361  17.490  0.00  0.00    +0.000 C 
BRANCH  24  25
ATOM     25  O   UNL     1       7.263   7.950  17.122  0.00  0.00    +0.000 OA
ATOM     26  C   UNL     1       8.216   7.867  18.173  0.00  0.00    +0.000 C 
ENDBRANCH  24  25
ENDBRANCH  23  24
ENDBRANCH   5  23
TORSDOF 10
ENDMDL
MODEL 4
REMARK VINA RESULT:      -6.1      2.786      6.688
REMARK  Name = 
REMARK  14 active torsions:
REMARK  status: ('A' for Active; 'I' for Inactive)
REMARK    1  A    between atoms: C_1  and  C_2
REMARK    2  A    between atoms: C_2  and  C_3
REMARK    3  A    between atoms: C_6  and  C_7
REMARK    4  A    between atoms: C_7  and  N_8
REMARK    5  A    between atoms: N_8  and  C_9
REMARK    6  A    between atoms: N_8  and  C_10
REMARK    7  A    between atoms: C_10  and  C_11
REMARK    8  A    between atoms: C_14  and  S_15
REMARK    9  A    between atoms: S_15  and  C_18
REMARK   10  A    between atoms: C_18  and  C_19
REMARK   11  A    between atoms: N_20  and  C_21
REMARK   12  A    between atoms: C_21  and  C_22
REMARK   13  A    between atoms: C_22  and  O_23
REMARK   14  A    between atoms: O_23  and  C_24
REMARK                            x       y       z     vdW  Elec       q    Type
REMARK                         _______ _______ _______ _____ _____    ______ ____
ROOT
ATOM      1  C   UNL     1       5.081   4.898  18.933  0.00  0.00    +0.000 A 
ATOM      2  C   UNL     1       5.301   3.587  19.297  0.00  0.00    +0.000 A 
ATOM      3  N   UNL     1       4.157   2.850  19.210  0.00  0.00    +0.000 NA
ATOM      4  C   UNL     1       3.222   3.686  18.784  0.00  0.00    +0.000 A 
ATOM      5  N   UNL     1       3.741   4.953  18.598  0.00  0.00    +0.000 N 
ENDROOT
BRANCH   4   6
ATOM      6  S   UNL     1       1.535   3.206  18.513  0.00  0.00    +0.000 S 
ATOM      7  O   UNL     1       1.102   3.995  17.378  0.00  0.00    +0.000 OA
ATOM      8  O   UNL     1       1.548   1.755  18.476  0.00  0.00    +0.000 OA
BRANCH   6   9
ATOM      9  C   UNL     1       0.698   3.758  19.987  0.00  0.00    +0.000 C 
ATOM     10  C   UNL     1       1.400   3.270  21.239  0.00  0.00    +0.000 C 
ENDBRANCH   6   9
ENDBRANCH   4   6
BRANCH   1  11
ATOM     11  C   UNL     1       6.054   6.028  18.924  0.00  0.00    +0.000 C 
BRANCH  11  12
ATOM     12  N   UNL     1       6.677   6.288  17.616  0.00  0.00    +0.000 NA
ATOM     13  C   UNL     1       5.727   6.870  16.661  0.00  0.00    +0.000 C 
BRANCH  12  14
ATOM     14  C   UNL     1       7.203   5.006  17.107  0.00  0.00    +0.000 C 
BRANCH  14  18
ATOM     15  C   UNL     1       5.984   3.721  13.169  0.00  0.00    +0.000 A 
ATOM     16  C   UNL     1       7.100   4.554  13.323  0.00  0.00    +0.000 A 
ATOM     17  C   UNL     1       7.473   5.005  14.589  0.00  0.00    +0.000 A 
ATOM     18  C   UNL     1       6.738   4.628  15.719  0.00  0.00    +0.000 A 
ATOM     19  C   UNL     1       5.589   3.843  15.557  0.00  0.00    +0.000 A 
ATOM     20  C   UNL     1       5.215   3.393  14.291  0.00  0.00    +0.000 A 
BRANCH  15  22
ATOM     21  C   UNL     1       4.224   3.325  11.466  0.00  0.00    +0.000 C 
ATOM     22  C   UNL     1       5.682   3.085  11.837  0.00  0.00    +0.000 C 
ENDBRANCH  15  22
ENDBRANCH  14  18
ENDBRANCH  12  14
ENDBRANCH  11  12
ENDBRANCH   1  11
BRANCH   5  23
ATOM     23  C   UNL     1       3.022   6.103  18.082  0.00  0.00    +0.000 C 
BRANCH  23  24
ATOM     24  C   UNL     1       2.437   7.003  19.165  0.00  0.00    +0.000 C 
BRANCH  24  25
ATOM     25  O   UNL     1       2.618   8.368  18.775  0.00  0.00    +0.000 OA
ATOM     26  C   UNL     1       1.603   8.802  17.880  0.00  0.00    +0.000 C 
ENDBRANCH  24  25
ENDBRANCH  23  24
ENDBRANCH   5  23
TORSDOF 10
ENDMDL
MODEL 5
REMARK VINA RESULT:      -6.0      4.310      7.978
REMARK  Name = 
REMARK  14 active torsions:
REMARK  status: ('A' for Active; 'I' for Inactive)
REMARK    1  A    between atoms: C_1  and  C_2
REMARK    2  A    between atoms: C_2  and  C_3
REMARK    3  A    between atoms: C_6  and  C_7
REMARK    4  A    between atoms: C_7  and  N_8
REMARK    5  A    between atoms: N_8  and  C_9
REMARK    6  A    between atoms: N_8  and  C_10
REMARK    7  A    between atoms: C_10  and  C_11
REMARK    8  A    between atoms: C_14  and  S_15
REMARK    9  A    between atoms: S_15  and  C_18
REMARK   10  A    between atoms: C_18  and  C_19
REMARK   11  A    between atoms: N_20  and  C_21
REMARK   12  A    between atoms: C_21  and  C_22
REMARK   13  A    between atoms: C_22  and  O_23
REMARK   14  A    between atoms: O_23  and  C_24
REMARK                            x       y       z     vdW  Elec       q    Type
REMARK                         _______ _______ _______ _____ _____    ______ ____
ROOT
ATOM      1  C   UNL     1       2.020   8.039  19.026  0.00  0.00    +0.000 A 
ATOM      2  C   UNL     1       2.133   8.742  17.846  0.00  0.00    +0.000 A 
ATOM      3  N   UNL     1       1.630  10.003  17.969  0.00  0.00    +0.000 NA
ATOM      4  C   UNL     1       1.210  10.101  19.222  0.00  0.00    +0.000 A 
ATOM      5  N   UNL     1       1.430   8.923  19.910  0.00  0.00    +0.000 N 
ENDROOT
BRANCH   4   6
ATOM      6  S   UNL     1       0.458  11.565  19.886  0.00  0.00    +0.000 S 
ATOM      7  O   UNL     1      -0.958  11.265  19.937  0.00  0.00    +0.000 OA
ATOM      8  O   UNL     1       1.217  11.879  21.083  0.00  0.00    +0.000 OA
BRANCH   6   9
ATOM      9  C   UNL     1       0.770  12.801  18.640  0.00  0.00    +0.000 C 
ATOM     10  C   UNL     1       0.487  14.196  19.159  0.00  0.00    +0.000 C 
ENDBRANCH   6   9
ENDBRANCH   4   6
BRANCH   1  11
ATOM     11  C   UNL     1       2.414   6.627  19.300  0.00  0.00    +0.000 C 
BRANCH  11  12
ATOM     12  N   UNL     1       2.757   5.845  18.102  0.00  0.00    +0.000 NA
ATOM     13  C   UNL     1       1.810   4.747  17.872  0.00  0.00    +0.000 C 
BRANCH  12  14
ATOM     14  C   UNL     1       4.124   5.319  18.286  0.00  0.00    +0.000 C 
BRANCH  14  18
ATOM     15  C   UNL     1       6.054   4.431  14.526  0.00  0.00    +0.000 A 
ATOM     16  C   UNL     1       5.888   3.424  15.487  0.00  0.00    +0.000 A 
ATOM     17  C   UNL     1       5.301   3.716  16.718  0.00  0.00    +0.000 A 
ATOM     18  C   UNL     1       4.872   5.017  17.007  0.00  0.00    +0.000 A 
ATOM     19  C   UNL     1       5.092   6.033  16.068  0.00  0.00    +0.000 A 
ATOM     20  C   UNL     1       5.679   5.742  14.838  0.00  0.00    +0.000 A 
BRANCH  15  22
ATOM     21  C   UNL     1       7.604   5.062  12.695  0.00  0.00    +0.000 C 
ATOM     22  C   UNL     1       6.515   4.090  13.133  0.00  0.00    +0.000 C 
ENDBRANCH  15  22
ENDBRANCH  14  18
ENDBRANCH  12  14
ENDBRANCH  11  12
ENDBRANCH   1  11
BRANCH   5  23
ATOM     23  C   UNL     1       1.152   8.690  21.314  0.00  0.00    +0.000 C 
BRANCH  23  24
ATOM     24  C   UNL     1      -0.294   8.301  21.603  0.00  0.00    +0.000 C 
BRANCH  24  25
ATOM     25  O   UNL     1      -0.852   9.254  22.514  0.00  0.00    +0.000 OA
ATOM     26  C   UNL     1       0.045   9.561  23.573  0.00  0.00    +0.000 C 
ENDBRANCH  24  25
ENDBRANCH  23  24
ENDBRANCH   5  23
TORSDOF 10
ENDMDL
MODEL 6
REMARK VINA RESULT:      -6.0      1.337      2.016
REMARK  Name = 
REMARK  14 active torsions:
REMARK  status: ('A' for Active; 'I' for Inactive)
REMARK    1  A    between atoms: C_1  and  C_2
REMARK    2  A    between atoms: C_2  and  C_3
REMARK    3  A    between atoms: C_6  and  C_7
REMARK    4  A    between atoms: C_7  and  N_8
REMARK    5  A    between atoms: N_8  and  C_9
REMARK    6  A    between atoms: N_8  and  C_10
REMARK    7  A    between atoms: C_10  and  C_11
REMARK    8  A    between atoms: C_14  and  S_15
REMARK    9  A    between atoms: S_15  and  C_18
REMARK   10  A    between atoms: C_18  and  C_19
REMARK   11  A    between atoms: N_20  and  C_21
REMARK   12  A    between atoms: C_21  and  C_22
REMARK   13  A    between atoms: C_22  and  O_23
REMARK   14  A    between atoms: O_23  and  C_24
REMARK                            x       y       z     vdW  Elec       q    Type
REMARK                         _______ _______ _______ _____ _____    ______ ____
ROOT
ATOM      1  C   UNL     1       4.461   4.848  18.318  0.00  0.00    +0.000 A 
ATOM      2  C   UNL     1       4.308   3.557  17.858  0.00  0.00    +0.000 A 
ATOM      3  N   UNL     1       4.940   3.377  16.664  0.00  0.00    +0.000 NA
ATOM      4  C   UNL     1       5.499   4.542  16.374  0.00  0.00    +0.000 A 
ATOM      5  N   UNL     1       5.235   5.475  17.359  0.00  0.00    +0.000 N 
ENDROOT
BRANCH   4   6
ATOM      6  S   UNL     1       6.443   4.831  14.899  0.00  0.00    +0.000 S 
ATOM      7  O   UNL     1       5.926   6.074  14.365  0.00  0.00    +0.000 OA
ATOM      8  O   UNL     1       7.832   4.688  15.296  0.00  0.00    +0.000 OA
BRANCH   6   9
ATOM      9  C   UNL     1       5.983   3.477  13.834  0.00  0.00    +0.000 C 
ATOM     10  C   UNL     1       6.482   3.691  12.419  0.00  0.00    +0.000 C 
ENDBRANCH   6   9
ENDBRANCH   4   6
BRANCH   1  11
ATOM     11  C   UNL     1       3.900   5.458  19.556  0.00  0.00    +0.000 C 
BRANCH  11  12
ATOM     12  N   UNL     1       2.529   5.974  19.417  0.00  0.00    +0.000 NA
ATOM     13  C   UNL     1       1.772   5.251  18.388  0.00  0.00    +0.000 C 
BRANCH  12  14
ATOM     14  C   UNL     1       2.620   7.408  19.081  0.00  0.00    +0.000 C 
BRANCH  14  18
ATOM     15  C   UNL     1      -0.122  10.079  21.080  0.00  0.00    +0.000 A 
ATOM     16  C   UNL     1       0.365   8.945  21.744  0.00  0.00    +0.000 A 
ATOM     17  C   UNL     1       1.220   8.058  21.089  0.00  0.00    +0.000 A 
ATOM     18  C   UNL     1       1.599   8.292  19.762  0.00  0.00    +0.000 A 
ATOM     19  C   UNL     1       1.064   9.394  19.082  0.00  0.00    +0.000 A 
ATOM     20  C   UNL     1       0.210  10.280  19.737  0.00  0.00    +0.000 A 
BRANCH  15  22
ATOM     21  C   UNL     1      -0.140  12.457  21.789  0.00  0.00    +0.000 C 
ATOM     22  C   UNL     1      -0.894  11.132  21.832  0.00  0.00    +0.000 C 
ENDBRANCH  15  22
ENDBRANCH  14  18
ENDBRANCH  12  14
ENDBRANCH  11  12
ENDBRANCH   1  11
BRANCH   5  23
ATOM     23  C   UNL     1       5.736   6.835  17.404  0.00  0.00    +0.000 C 
BRANCH  23  24
ATOM     24  C   UNL     1       7.200   6.941  17.821  0.00  0.00    +0.000 C 
BRANCH  24  25
ATOM     25  O   UNL     1       7.797   8.039  17.123  0.00  0.00    +0.000 OA
ATOM     26  C   UNL     1       8.258   9.044  18.015  0.00  0.00    +0.000 C 
ENDBRANCH  24  25
ENDBRANCH  23  24
ENDBRANCH   5  23
TORSDOF 10
ENDMDL
MODEL 7
REMARK VINA RESULT:      -5.9      2.991      5.160
REMARK  Name = 
REMARK  14 active torsions:
REMARK  status: ('A' for Active; 'I' for Inactive)
REMARK    1  A    between atoms: C_1  and  C_2
REMARK    2  A    between atoms: C_2  and  C_3
REMARK    3  A    between atoms: C_6  and  C_7
REMARK    4  A    between atoms: C_7  and  N_8
REMARK    5  A    between atoms: N_8  and  C_9
REMARK    6  A    between atoms: N_8  and  C_10
REMARK    7  A    between atoms: C_10  and  C_11
REMARK    8  A    between atoms: C_14  and  S_15
REMARK    9  A    between atoms: S_15  and  C_18
REMARK   10  A    between atoms: C_18  and  C_19
REMARK   11  A    between atoms: N_20  and  C_21
REMARK   12  A    between atoms: C_21  and  C_22
REMARK   13  A    between atoms: C_22  and  O_23
REMARK   14  A    between atoms: O_23  and  C_24
REMARK                            x       y       z     vdW  Elec       q    Type
REMARK                         _______ _______ _______ _____ _____    ______ ____
ROOT
ATOM      1  C   UNL     1       2.799   7.327  18.674  0.00  0.00    +0.000 A 
ATOM      2  C   UNL     1       3.417   7.647  17.484  0.00  0.00    +0.000 A 
ATOM      3  N   UNL     1       4.252   6.650  17.075  0.00  0.00    +0.000 NA
ATOM      4  C   UNL     1       4.156   5.702  17.994  0.00  0.00    +0.000 A 
ATOM      5  N   UNL     1       3.276   6.070  18.994  0.00  0.00    +0.000 N 
ENDROOT
BRANCH   4   6
ATOM      6  S   UNL     1       5.066   4.179  17.922  0.00  0.00    +0.000 S 
ATOM      7  O   UNL     1       5.725   4.079  19.208  0.00  0.00    +0.000 OA
ATOM      8  O   UNL     1       4.112   3.182  17.472  0.00  0.00    +0.000 OA
BRANCH   6   9
ATOM      9  C   UNL     1       6.274   4.470  16.644  0.00  0.00    +0.000 C 
ATOM     10  C   UNL     1       5.856   3.839  15.331  0.00  0.00    +0.000 C 
ENDBRANCH   6   9
ENDBRANCH   4   6
BRANCH   1  11
ATOM     11  C   UNL     1       1.848   8.153  19.471  0.00  0.00    +0.000 C 
BRANCH  11  12
ATOM     12  N   UNL     1       1.146   9.191  18.700  0.00  0.00    +0.000 NA
ATOM     13  C   UNL     1       2.066  10.217  18.193  0.00  0.00    +0.000 C 
BRANCH  12  14
ATOM     14  C   UNL     1       0.130   9.797  19.583  0.00  0.00    +0.000 C 
BRANCH  14  18
ATOM     15  C   UNL     1      -3.437  11.346  17.705  0.00  0.00    +0.000 A 
ATOM     16  C   UNL     1      -2.768  10.248  17.147  0.00  0.00    +0.000 A 
ATOM     17  C   UNL     1      -1.594   9.769  17.728  0.00  0.00    +0.000 A 
ATOM     18  C   UNL     1      -1.071  10.381  18.874  0.00  0.00    +0.000 A 
ATOM     19  C   UNL     1      -1.709  11.514  19.395  0.00  0.00    +0.000 A 
ATOM     20  C   UNL     1      -2.883  11.993  18.814  0.00  0.00    +0.000 A 
BRANCH  15  22
ATOM     21  C   UNL     1      -5.882  11.020  17.975  0.00  0.00    +0.000 C 
ATOM     22  C   UNL     1      -4.795  11.753  17.196  0.00  0.00    +0.000 C 
ENDBRANCH  15  22
ENDBRANCH  14  18
ENDBRANCH  12  14
ENDBRANCH  11  12
ENDBRANCH   1  11
BRANCH   5  23
ATOM     23  C   UNL     1       2.881   5.255  20.127  0.00  0.00    +0.000 C 
BRANCH  23  24
ATOM     24  C   UNL     1       1.448   4.738  20.048  0.00  0.00    +0.000 C 
BRANCH  24  25
ATOM     25  O   UNL     1       1.289   4.012  18.825  0.00  0.00    +0.000 OA
ATOM     26  C   UNL     1       0.984   2.644  19.058  0.00  0.00    +0.000 C 
ENDBRANCH  24  25
ENDBRANCH  23  24
ENDBRANCH   5  23
TORSDOF 10
ENDMDL
MODEL 8
REMARK VINA RESULT:      -5.9      3.277      5.358
REMARK  Name = 
REMARK  14 active torsions:
REMARK  status: ('A' for Active; 'I' for Inactive)
REMARK    1  A    between atoms: C_1  and  C_2
REMARK    2  A    between atoms: C_2  and  C_3
REMARK    3  A    between atoms: C_6  and  C_7
REMARK    4  A    between atoms: C_7  and  N_8
REMARK    5  A    between atoms: N_8  and  C_9
REMARK    6  A    between atoms: N_8  and  C_10
REMARK    7  A    between atoms: C_10  and  C_11
REMARK    8  A    between atoms: C_14  and  S_15
REMARK    9  A    between atoms: S_15  and  C_18
REMARK   10  A    between atoms: C_18  and  C_19
REMARK   11  A    between atoms: N_20  and  C_21
REMARK   12  A    between atoms: C_21  and  C_22
REMARK   13  A    between atoms: C_22  and  O_23
REMARK   14  A    between atoms: O_23  and  C_24
REMARK                            x       y       z     vdW  Elec       q    Type
REMARK                         _______ _______ _______ _____ _____    ______ ____
ROOT
ATOM      1  C   UNL     1       2.595   7.521  18.629  0.00  0.00    +0.000 A 
ATOM      2  C   UNL     1       3.536   7.833  17.670  0.00  0.00    +0.000 A 
ATOM      3  N   UNL     1       4.101   6.709  17.146  0.00  0.00    +0.000 NA
ATOM      4  C   UNL     1       3.516   5.692  17.761  0.00  0.00    +0.000 A 
ATOM      5  N   UNL     1       2.584   6.140  18.678  0.00  0.00    +0.000 N 
ENDROOT
BRANCH   4   6
ATOM      6  S   UNL     1       3.915   3.994  17.432  0.00  0.00    +0.000 S 
ATOM      7  O   UNL     1       4.572   3.527  18.636  0.00  0.00    +0.000 OA
ATOM      8  O   UNL     1       2.683   3.395  16.952  0.00  0.00    +0.000 OA
BRANCH   6   9
ATOM      9  C   UNL     1       5.093   4.089  16.098  0.00  0.00    +0.000 C 
ATOM     10  C   UNL     1       6.506   4.257  16.617  0.00  0.00    +0.000 C 
ENDBRANCH   6   9
ENDBRANCH   4   6
BRANCH   1  11
ATOM     11  C   UNL     1       1.782   8.453  19.460  0.00  0.00    +0.000 C 
BRANCH  11  12
ATOM     12  N   UNL     1       0.981   9.418  18.691  0.00  0.00    +0.000 NA
ATOM     13  C   UNL     1       1.776  10.576  18.264  0.00  0.00    +0.000 C 
BRANCH  12  14
ATOM     14  C   UNL     1      -0.145   9.849  19.543  0.00  0.00    +0.000 C 
BRANCH  14  18
ATOM     15  C   UNL     1      -3.683  11.339  17.566  0.00  0.00    +0.000 A 
ATOM     16  C   UNL     1      -3.004  10.227  17.050  0.00  0.00    +0.000 A 
ATOM     17  C   UNL     1      -1.839   9.767  17.663  0.00  0.00    +0.000 A 
ATOM     18  C   UNL     1      -1.335  10.411  18.799  0.00  0.00    +0.000 A 
ATOM     19  C   UNL     1      -1.982  11.557  19.278  0.00  0.00    +0.000 A 
ATOM     20  C   UNL     1      -3.147  12.017  18.666  0.00  0.00    +0.000 A 
BRANCH  15  22
ATOM     21  C   UNL     1      -6.131  11.230  17.957  0.00  0.00    +0.000 C 
ATOM     22  C   UNL     1      -5.033  11.730  17.025  0.00  0.00    +0.000 C 
ENDBRANCH  15  22
ENDBRANCH  14  18
ENDBRANCH  12  14
ENDBRANCH  11  12
ENDBRANCH   1  11
BRANCH   5  23
ATOM     23  C   UNL     1       1.714   5.308  19.486  0.00  0.00    +0.000 C 
BRANCH  23  24
ATOM     24  C   UNL     1       2.301   4.932  20.843  0.00  0.00    +0.000 C 
BRANCH  24  25
ATOM     25  O   UNL     1       1.616   3.777  21.336  0.00  0.00    +0.000 OA
ATOM     26  C   UNL     1       2.494   2.673  21.506  0.00  0.00    +0.000 C 
ENDBRANCH  24  25
ENDBRANCH  23  24
ENDBRANCH   5  23
TORSDOF 10
ENDMDL
MODEL 9
REMARK VINA RESULT:      -5.9      2.203      3.704
REMARK  Name = 
REMARK  14 active torsions:
REMARK  status: ('A' for Active; 'I' for Inactive)
REMARK    1  A    between atoms: C_1  and  C_2
REMARK    2  A    between atoms: C_2  and  C_3
REMARK    3  A    between atoms: C_6  and  C_7
REMARK    4  A    between atoms: C_7  and  N_8
REMARK    5  A    between atoms: N_8  and  C_9
REMARK    6  A    between atoms: N_8  and  C_10
REMARK    7  A    between atoms: C_10  and  C_11
REMARK    8  A    between atoms: C_14  and  S_15
REMARK    9  A    between atoms: S_15  and  C_18
REMARK   10  A    between atoms: C_18  and  C_19
REMARK   11  A    between atoms: N_20  and  C_21
REMARK   12  A    between atoms: C_21  and  C_22
REMARK   13  A    between atoms: C_22  and  O_23
REMARK   14  A    between atoms: O_23  and  C_24
REMARK                            x       y       z     vdW  Elec       q    Type
REMARK                         _______ _______ _______ _____ _____    ______ ____
ROOT
ATOM      1  C   UNL     1       3.918   6.521  17.733  0.00  0.00    +0.000 A 
ATOM      2  C   UNL     1       4.563   7.587  17.141  0.00  0.00    +0.000 A 
ATOM      3  N   UNL     1       5.679   7.182  16.471  0.00  0.00    +0.000 NA
ATOM      4  C   UNL     1       5.735   5.868  16.629  0.00  0.00    +0.000 A 
ATOM      5  N   UNL     1       4.677   5.416  17.394  0.00  0.00    +0.000 N 
ENDROOT
BRANCH   4   6
ATOM      6  S   UNL     1       7.024   4.858  15.944  0.00  0.00    +0.000 S 
ATOM      7  O   UNL     1       7.716   5.723  15.009  0.00  0.00    +0.000 OA
ATOM      8  O   UNL     1       7.702   4.270  17.085  0.00  0.00    +0.000 OA
BRANCH   6   9
ATOM      9  C   UNL     1       6.140   3.591  15.055  0.00  0.00    +0.000 C 
ATOM     10  C   UNL     1       6.154   3.848  13.562  0.00  0.00    +0.000 C 
ENDBRANCH   6   9
ENDBRANCH   4   6
BRANCH   1  11
ATOM     11  C   UNL     1       2.691   6.540  18.579  0.00  0.00    +0.000 C 
BRANCH  11  12
ATOM     12  N   UNL     1       2.325   7.868  19.095  0.00  0.00    +0.000 NA
ATOM     13  C   UNL     1       1.663   7.787  20.403  0.00  0.00    +0.000 C 
BRANCH  12  14
ATOM     14  C   UNL     1       1.436   8.505  18.104  0.00  0.00    +0.000 C 
BRANCH  14  18
ATOM     15  C   UNL     1       0.330  12.633  18.728  0.00  0.00    +0.000 A 
ATOM     16  C   UNL     1       1.675  12.284  18.550  0.00  0.00    +0.000 A 
ATOM     17  C   UNL     1       2.041  10.948  18.388  0.00  0.00    +0.000 A 
ATOM     18  C   UNL     1       1.068   9.941  18.401  0.00  0.00    +0.000 A 
ATOM     19  C   UNL     1      -0.269  10.286  18.638  0.00  0.00    +0.000 A 
ATOM     20  C   UNL     1      -0.634  11.622  18.801  0.00  0.00    +0.000 A 
BRANCH  15  22
ATOM     21  C   UNL     1      -0.951  14.375  19.944  0.00  0.00    +0.000 C 
ATOM     22  C   UNL     1      -0.093  14.078  18.720  0.00  0.00    +0.000 C 
ENDBRANCH  15  22
ENDBRANCH  14  18
ENDBRANCH  12  14
ENDBRANCH  11  12
ENDBRANCH   1  11
BRANCH   5  23
ATOM     23  C   UNL     1       4.386   4.033  17.717  0.00  0.00    +0.000 C 
BRANCH  23  24
ATOM     24  C   UNL     1       4.835   3.616  19.114  0.00  0.00    +0.000 C 
BRANCH  24  25
ATOM     25  O   UNL     1       4.260   2.342  19.420  0.00  0.00    +0.000 OA
ATOM     26  C   UNL     1       3.492   1.834  18.337  0.00  0.00    +0.000 C 
ENDBRANCH  24  25
ENDBRANCH  23  24
ENDBRANCH   5  23
TORSDOF 10
ENDMDL
