MODEL 1
REMARK VINA RESULT:      -8.5      0.000      0.000
REMARK  Name = 
REMARK  5 active torsions:
REMARK  status: ('A' for Active; 'I' for Inactive)
REMARK    1  A    between atoms: C_1  and  N_2
REMARK    2  A    between atoms: N_2  and  C_25
REMARK    3  A    between atoms: C_5  and  C_6
REMARK    4  A    between atoms: C_12  and  C_13
REMARK    5  A    between atoms: N_16  and  C_17
REMARK                            x       y       z     vdW  Elec       q    Type
REMARK                         _______ _______ _______ _____ _____    ______ ____
ROOT
ATOM      1  C   UNL     1       1.933  14.421  21.149  0.00  0.00    +0.000 C 
ATOM      2  N   UNL     1       1.590  14.232  19.736  0.00  0.00    +0.000 N 
ATOM      3  C   UNL     1       0.863  13.065  19.401  0.00  0.00    +0.000 A 
ATOM      4  C   UNL     1       1.133  11.863  20.020  0.00  0.00    +0.000 A 
ATOM      5  C   UNL     1       0.399  10.763  19.633  0.00  0.00    +0.000 A 
ATOM      6  N   UNL     1      -0.550  10.824  18.683  0.00  0.00    +0.000 NA
ATOM      7  C   UNL     1      -0.749  12.016  18.131  0.00  0.00    +0.000 A 
ATOM      8  N   UNL     1      -1.690  12.105  17.123  0.00  0.00    +0.000 N 
ATOM      9  N   UNL     1      -0.072  13.126  18.433  0.00  0.00    +0.000 NA
ATOM     10  H   UNL     1      -1.787  11.210  16.664  0.00  0.00    +0.000 HD
ATOM     11  H   UNL     1      -1.481  12.905  16.541  0.00  0.00    +0.000 HD
ENDROOT
BRANCH   5  12
ATOM     12  C   UNL     1       0.616   9.463  20.256  0.00  0.00    +0.000 A 
ATOM     13  C   UNL     1       0.030   9.079  21.456  0.00  0.00    +0.000 A 
ATOM     14  N   UNL     1       0.420   7.795  21.734  0.00  0.00    +0.000 N 
ATOM     15  C   UNL     1       1.259   7.346  20.758  0.00  0.00    +0.000 A 
ATOM     16  N   UNL     1       1.813   6.123  20.757  0.00  0.00    +0.000 NA
ATOM     17  C   UNL     1       2.621   5.921  19.688  0.00  0.00    +0.000 A 
ATOM     18  C   UNL     1       2.884   6.832  18.662  0.00  0.00    +0.000 A 
ATOM     19  C   UNL     1       2.253   8.081  18.716  0.00  0.00    +0.000 A 
ATOM     20  C   UNL     1       1.414   8.357  19.815  0.00  0.00    +0.000 A 
ATOM     21  H   UNL     1       0.148   7.241  22.534  0.00  0.00    +0.000 HD
BRANCH  18  22
ATOM     22  C   UNL     1       3.804   6.482  17.600  0.00  0.00    +0.000 A 
ATOM     23  C   UNL     1       4.568   7.310  16.744  0.00  0.00    +0.000 A 
ATOM     24  N   UNL     1       5.337   6.614  15.903  0.00  0.00    +0.000 NA
ATOM     25  N   UNL     1       5.064   5.335  16.215  0.00  0.00    +0.000 N 
ATOM     26  C   UNL     1       5.746   4.265  15.529  0.00  0.00    +0.000 C 
ATOM     27  C   UNL     1       4.144   5.201  17.216  0.00  0.00    +0.000 A 
ENDBRANCH  18  22
ENDBRANCH   5  12
BRANCH   2  28
ATOM     28  C   UNL     1       1.958  15.261  18.829  0.00  0.00    +0.000 A 
ATOM     29  C   UNL     1       1.173  16.429  18.741  0.00  0.00    +0.000 A 
ATOM     30  C   UNL     1       1.475  17.466  17.850  0.00  0.00    +0.000 A 
ATOM     31  C   UNL     1       2.582  17.369  17.017  0.00  0.00    +0.000 A 
ATOM     32  C   UNL     1       3.380  16.232  17.072  0.00  0.00    +0.000 A 
ATOM     33  C   UNL     1       3.064  15.197  17.958  0.00  0.00    +0.000 A 
ATOM     34  F   UNL     1       3.888  14.138  17.950  0.00  0.00    +0.000 F 
ENDBRANCH   2  28
TORSDOF 3
ENDMDL
MODEL 2
REMARK VINA RESULT:      -8.4      0.857      1.213
REMARK  Name = 
REMARK  5 active torsions:
REMARK  status: ('A' for Active; 'I' for Inactive)
REMARK    1  A    between atoms: C_1  and  N_2
REMARK    2  A    between atoms: N_2  and  C_25
REMARK    3  A    between atoms: C_5  and  C_6
REMARK    4  A    between atoms: C_12  and  C_13
REMARK    5  A    between atoms: N_16  and  C_17
REMARK                            x       y       z     vdW  Elec       q    Type
REMARK                         _______ _______ _______ _____ _____    ______ ____
ROOT
ATOM      1  C   UNL     1       2.079  14.231  21.140  0.00  0.00    +0.000 C 
ATOM      2  N   UNL     1       1.672  14.063  19.742  0.00  0.00    +0.000 N 
ATOM      3  C   UNL     1       0.920  12.907  19.426  0.00  0.00    +0.000 A 
ATOM      4  C   UNL     1       1.207  11.694  20.018  0.00  0.00    +0.000 A 
ATOM      5  C   UNL     1       0.446  10.605  19.651  0.00  0.00    +0.000 A 
ATOM      6  N   UNL     1      -0.545  10.686  18.746  0.00  0.00    +0.000 NA
ATOM      7  C   UNL     1      -0.757  11.887  18.217  0.00  0.00    +0.000 A 
ATOM      8  N   UNL     1      -1.743  11.996  17.254  0.00  0.00    +0.000 N 
ATOM      9  N   UNL     1      -0.058  12.987  18.502  0.00  0.00    +0.000 NA
ATOM     10  H   UNL     1      -1.868  11.108  16.790  0.00  0.00    +0.000 HD
ATOM     11  H   UNL     1      -1.553  12.801  16.673  0.00  0.00    +0.000 HD
ENDROOT
BRANCH   5  12
ATOM     12  C   UNL     1       0.679   9.296  20.249  0.00  0.00    +0.000 A 
ATOM     13  C   UNL     1       0.101   8.883  21.443  0.00  0.00    +0.000 A 
ATOM     14  N   UNL     1       0.506   7.599  21.695  0.00  0.00    +0.000 N 
ATOM     15  C   UNL     1       1.346   7.176  20.707  0.00  0.00    +0.000 A 
ATOM     16  N   UNL     1       1.913   5.960  20.681  0.00  0.00    +0.000 NA
ATOM     17  C   UNL     1       2.719   5.787  19.605  0.00  0.00    +0.000 A 
ATOM     18  C   UNL     1       2.968   6.720  18.596  0.00  0.00    +0.000 A 
ATOM     19  C   UNL     1       2.324   7.961  18.676  0.00  0.00    +0.000 A 
ATOM     20  C   UNL     1       1.487   8.207  19.784  0.00  0.00    +0.000 A 
ATOM     21  H   UNL     1       0.244   7.026  22.486  0.00  0.00    +0.000 HD
BRANCH  18  22
ATOM     22  C   UNL     1       3.887   6.400  17.524  0.00  0.00    +0.000 A 
ATOM     23  C   UNL     1       4.661   7.252  16.700  0.00  0.00    +0.000 A 
ATOM     24  N   UNL     1       5.425   6.580  15.836  0.00  0.00    +0.000 NA
ATOM     25  N   UNL     1       5.140   5.293  16.101  0.00  0.00    +0.000 N 
ATOM     26  C   UNL     1       5.814   4.243  15.377  0.00  0.00    +0.000 C 
ATOM     27  C   UNL     1       4.216   5.131  17.094  0.00  0.00    +0.000 A 
ENDBRANCH  18  22
ENDBRANCH   5  12
BRANCH   2  28
ATOM     28  C   UNL     1       2.008  15.099  18.831  0.00  0.00    +0.000 A 
ATOM     29  C   UNL     1       3.119  14.946  17.977  0.00  0.00    +0.000 A 
ATOM     30  C   UNL     1       3.511  15.942  17.074  0.00  0.00    +0.000 A 
ATOM     31  C   UNL     1       2.795  17.129  16.994  0.00  0.00    +0.000 A 
ATOM     32  C   UNL     1       1.695  17.320  17.821  0.00  0.00    +0.000 A 
ATOM     33  C   UNL     1       1.318  16.324  18.727  0.00  0.00    +0.000 A 
ATOM     34  F   UNL     1       0.242  16.587  19.484  0.00  0.00    +0.000 F 
ENDBRANCH   2  28
TORSDOF 3
ENDMDL
MODEL 3
REMARK VINA RESULT:      -8.3      3.965      8.277
REMARK  Name = 
REMARK  5 active torsions:
REMARK  status: ('A' for Active; 'I' for Inactive)
REMARK    1  A    between atoms: C_1  and  N_2
REMARK    2  A    between atoms: N_2  and  C_25
REMARK    3  A    between atoms: C_5  and  C_6
REMARK    4  A    between atoms: C_12  and  C_13
REMARK    5  A    between atoms: N_16  and  C_17
REMARK                            x       y       z     vdW  Elec       q    Type
REMARK                         _______ _______ _______ _____ _____    ______ ____
ROOT
ATOM      1  C   UNL     1       3.699   7.635  16.715  0.00  0.00    +0.000 C 
ATOM      2  N   UNL     1       4.039   6.715  17.804  0.00  0.00    +0.000 N 
ATOM      3  C   UNL     1       3.131   6.640  18.888  0.00  0.00    +0.000 A 
ATOM      4  C   UNL     1       2.499   7.771  19.360  0.00  0.00    +0.000 A 
ATOM      5  C   UNL     1       1.642   7.627  20.429  0.00  0.00    +0.000 A 
ATOM      6  N   UNL     1       1.412   6.441  21.019  0.00  0.00    +0.000 NA
ATOM      7  C   UNL     1       2.061   5.399  20.510  0.00  0.00    +0.000 A 
ATOM      8  N   UNL     1       1.878   4.172  21.118  0.00  0.00    +0.000 N 
ATOM      9  N   UNL     1       2.920   5.453  19.491  0.00  0.00    +0.000 NA
ATOM     10  H   UNL     1       1.627   4.305  22.088  0.00  0.00    +0.000 HD
ATOM     11  H   UNL     1       2.673   3.580  20.921  0.00  0.00    +0.000 HD
ENDROOT
BRANCH   5  12
ATOM     12  C   UNL     1       0.924   8.775  20.970  0.00  0.00    +0.000 A 
ATOM     13  C   UNL     1       1.126   9.274  22.251  0.00  0.00    +0.000 A 
ATOM     14  N   UNL     1       0.317  10.366  22.420  0.00  0.00    +0.000 N 
ATOM     15  C   UNL     1      -0.419  10.576  21.292  0.00  0.00    +0.000 A 
ATOM     16  N   UNL     1      -1.309  11.572  21.157  0.00  0.00    +0.000 NA
ATOM     17  C   UNL     1      -1.922  11.559  19.948  0.00  0.00    +0.000 A 
ATOM     18  C   UNL     1      -1.695  10.650  18.912  0.00  0.00    +0.000 A 
ATOM     19  C   UNL     1      -0.734   9.651  19.114  0.00  0.00    +0.000 A 
ATOM     20  C   UNL     1      -0.076   9.601  20.360  0.00  0.00    +0.000 A 
ATOM     21  H   UNL     1       0.249  10.946  23.245  0.00  0.00    +0.000 HD
BRANCH  18  22
ATOM     22  C   UNL     1      -2.458  10.743  17.685  0.00  0.00    +0.000 A 
ATOM     23  C   UNL     1      -3.614  11.504  17.384  0.00  0.00    +0.000 A 
ATOM     24  N   UNL     1      -4.015  11.355  16.120  0.00  0.00    +0.000 NA
ATOM     25  N   UNL     1      -3.119  10.495  15.606  0.00  0.00    +0.000 N 
ATOM     26  C   UNL     1      -3.202  10.111  14.218  0.00  0.00    +0.000 C 
ATOM     27  C   UNL     1      -2.173  10.089  16.504  0.00  0.00    +0.000 A 
ENDBRANCH  18  22
ENDBRANCH   5  12
BRANCH   2  28
ATOM     28  C   UNL     1       5.213   5.930  17.659  0.00  0.00    +0.000 A 
ATOM     29  C   UNL     1       6.363   6.248  18.410  0.00  0.00    +0.000 A 
ATOM     30  C   UNL     1       7.556   5.524  18.293  0.00  0.00    +0.000 A 
ATOM     31  C   UNL     1       7.634   4.448  17.417  0.00  0.00    +0.000 A 
ATOM     32  C   UNL     1       6.523   4.105  16.657  0.00  0.00    +0.000 A 
ATOM     33  C   UNL     1       5.339   4.841  16.774  0.00  0.00    +0.000 A 
ATOM     34  F   UNL     1       4.314   4.440  16.008  0.00  0.00    +0.000 F 
ENDBRANCH   2  28
TORSDOF 3
ENDMDL
MODEL 4
REMARK VINA RESULT:      -8.2      3.937      5.926
REMARK  Name = 
REMARK  5 active torsions:
REMARK  status: ('A' for Active; 'I' for Inactive)
REMARK    1  A    between atoms: C_1  and  N_2
REMARK    2  A    between atoms: N_2  and  C_25
REMARK    3  A    between atoms: C_5  and  C_6
REMARK    4  A    between atoms: C_12  and  C_13
REMARK    5  A    between atoms: N_16  and  C_17
REMARK                            x       y       z     vdW  Elec       q    Type
REMARK                         _______ _______ _______ _____ _____    ______ ____
ROOT
ATOM      1  C   UNL     1      -2.157  14.111  21.027  0.00  0.00    +0.000 C 
ATOM      2  N   UNL     1      -2.494  12.882  21.752  0.00  0.00    +0.000 N 
ATOM      3  C   UNL     1      -1.535  11.842  21.734  0.00  0.00    +0.000 A 
ATOM      4  C   UNL     1      -0.805  11.572  20.595  0.00  0.00    +0.000 A 
ATOM      5  C   UNL     1       0.100  10.534  20.643  0.00  0.00    +0.000 A 
ATOM      6  N   UNL     1       0.285   9.785  21.744  0.00  0.00    +0.000 NA
ATOM      7  C   UNL     1      -0.458  10.103  22.799  0.00  0.00    +0.000 A 
ATOM      8  N   UNL     1      -0.321   9.328  23.935  0.00  0.00    +0.000 N 
ATOM      9  N   UNL     1      -1.367  11.079  22.833  0.00  0.00    +0.000 NA
ATOM     10  H   UNL     1      -0.008   8.402  23.682  0.00  0.00    +0.000 HD
ATOM     11  H   UNL     1      -1.162   9.399  24.490  0.00  0.00    +0.000 HD
ENDROOT
BRANCH   5  12
ATOM     12  C   UNL     1       0.920  10.203  19.484  0.00  0.00    +0.000 A 
ATOM     13  C   UNL     1       1.170  11.089  18.443  0.00  0.00    +0.000 A 
ATOM     14  N   UNL     1       1.995  10.470  17.541  0.00  0.00    +0.000 N 
ATOM     15  C   UNL     1       2.268   9.201  17.959  0.00  0.00    +0.000 A 
ATOM     16  N   UNL     1       3.047   8.345  17.280  0.00  0.00    +0.000 NA
ATOM     17  C   UNL     1       3.152   7.141  17.894  0.00  0.00    +0.000 A 
ATOM     18  C   UNL     1       2.556   6.770  19.102  0.00  0.00    +0.000 A 
ATOM     19  C   UNL     1       1.776   7.724  19.768  0.00  0.00    +0.000 A 
ATOM     20  C   UNL     1       1.613   8.989  19.168  0.00  0.00    +0.000 A 
ATOM     21  H   UNL     1       2.358  10.865  16.684  0.00  0.00    +0.000 HD
BRANCH  18  22
ATOM     22  C   UNL     1       2.733   5.429  19.616  0.00  0.00    +0.000 A 
ATOM     23  C   UNL     1       3.718   4.458  19.316  0.00  0.00    +0.000 A 
ATOM     24  N   UNL     1       3.573   3.338  20.027  0.00  0.00    +0.000 NA
ATOM     25  N   UNL     1       2.490   3.585  20.784  0.00  0.00    +0.000 N 
ATOM     26  C   UNL     1       2.033   2.598  21.732  0.00  0.00    +0.000 C 
ATOM     27  C   UNL     1       1.942   4.818  20.568  0.00  0.00    +0.000 A 
ENDBRANCH  18  22
ENDBRANCH   5  12
BRANCH   2  28
ATOM     28  C   UNL     1      -3.723  12.855  22.462  0.00  0.00    +0.000 A 
ATOM     29  C   UNL     1      -3.718  12.925  23.870  0.00  0.00    +0.000 A 
ATOM     30  C   UNL     1      -4.897  12.882  24.625  0.00  0.00    +0.000 A 
ATOM     31  C   UNL     1      -6.126  12.770  23.990  0.00  0.00    +0.000 A 
ATOM     32  C   UNL     1      -6.173  12.695  22.603  0.00  0.00    +0.000 A 
ATOM     33  C   UNL     1      -4.990  12.730  21.858  0.00  0.00    +0.000 A 
ATOM     34  F   UNL     1      -5.126  12.656  20.526  0.00  0.00    +0.000 F 
ENDBRANCH   2  28
TORSDOF 3
ENDMDL
MODEL 5
REMARK VINA RESULT:      -8.1      3.881      5.787
REMARK  Name = 
REMARK  5 active torsions:
REMARK  status: ('A' for Active; 'I' for Inactive)
REMARK    1  A    between atoms: C_1  and  N_2
REMARK    2  A    between atoms: N_2  and  C_25
REMARK    3  A    between atoms: C_5  and  C_6
REMARK    4  A    between atoms: C_12  and  C_13
REMARK    5  A    between atoms: N_16  and  C_17
REMARK                            x       y       z     vdW  Elec       q    Type
REMARK                         _______ _______ _______ _____ _____    ______ ____
ROOT
ATOM      1  C   UNL     1      -1.843  14.215  20.892  0.00  0.00    +0.000 C 
ATOM      2  N   UNL     1      -2.269  13.014  21.617  0.00  0.00    +0.000 N 
ATOM      3  C   UNL     1      -1.375  11.917  21.624  0.00  0.00    +0.000 A 
ATOM      4  C   UNL     1      -0.641  11.595  20.502  0.00  0.00    +0.000 A 
ATOM      5  C   UNL     1       0.197  10.504  20.574  0.00  0.00    +0.000 A 
ATOM      6  N   UNL     1       0.313   9.753  21.682  0.00  0.00    +0.000 NA
ATOM      7  C   UNL     1      -0.429  10.123  22.721  0.00  0.00    +0.000 A 
ATOM      8  N   UNL     1      -0.362   9.349  23.863  0.00  0.00    +0.000 N 
ATOM      9  N   UNL     1      -1.277  11.153  22.730  0.00  0.00    +0.000 NA
ATOM     10  H   UNL     1      -0.102   8.403  23.621  0.00  0.00    +0.000 HD
ATOM     11  H   UNL     1      -1.208   9.474  24.401  0.00  0.00    +0.000 HD
ENDROOT
BRANCH   5  12
ATOM     12  C   UNL     1       1.017  10.115  19.433  0.00  0.00    +0.000 A 
ATOM     13  C   UNL     1       1.309  10.964  18.372  0.00  0.00    +0.000 A 
ATOM     14  N   UNL     1       2.122  10.295  17.496  0.00  0.00    +0.000 N 
ATOM     15  C   UNL     1       2.347   9.029  17.950  0.00  0.00    +0.000 A 
ATOM     16  N   UNL     1       3.103   8.129  17.302  0.00  0.00    +0.000 NA
ATOM     17  C   UNL     1       3.160   6.939  17.948  0.00  0.00    +0.000 A 
ATOM     18  C   UNL     1       2.538   6.620  19.157  0.00  0.00    +0.000 A 
ATOM     19  C   UNL     1       1.784   7.616  19.790  0.00  0.00    +0.000 A 
ATOM     20  C   UNL     1       1.671   8.871  19.156  0.00  0.00    +0.000 A 
ATOM     21  H   UNL     1       2.508  10.655  16.634  0.00  0.00    +0.000 HD
BRANCH  18  22
ATOM     22  C   UNL     1       2.663   5.287  19.708  0.00  0.00    +0.000 A 
ATOM     23  C   UNL     1       3.665   4.306  19.509  0.00  0.00    +0.000 A 
ATOM     24  N   UNL     1       3.454   3.199  20.224  0.00  0.00    +0.000 NA
ATOM     25  N   UNL     1       2.312   3.465  20.882  0.00  0.00    +0.000 N 
ATOM     26  C   UNL     1       1.770   2.496  21.804  0.00  0.00    +0.000 C 
ATOM     27  C   UNL     1       1.791   4.696  20.600  0.00  0.00    +0.000 A 
ENDBRANCH  18  22
ENDBRANCH   5  12
BRANCH   2  28
ATOM     28  C   UNL     1      -3.511  13.067  22.303  0.00  0.00    +0.000 A 
ATOM     29  C   UNL     1      -4.695  12.695  21.634  0.00  0.00    +0.000 A 
ATOM     30  C   UNL     1      -5.951  12.748  22.252  0.00  0.00    +0.000 A 
ATOM     31  C   UNL     1      -6.061  13.174  23.569  0.00  0.00    +0.000 A 
ATOM     32  C   UNL     1      -4.917  13.552  24.262  0.00  0.00    +0.000 A 
ATOM     33  C   UNL     1      -3.669  13.505  23.633  0.00  0.00    +0.000 A 
ATOM     34  F   UNL     1      -2.617  13.882  24.374  0.00  0.00    +0.000 F 
ENDBRANCH   2  28
TORSDOF 3
ENDMDL
MODEL 6
REMARK VINA RESULT:      -7.9      3.848      8.266
REMARK  Name = 
REMARK  5 active torsions:
REMARK  status: ('A' for Active; 'I' for Inactive)
REMARK    1  A    between atoms: C_1  and  N_2
REMARK    2  A    between atoms: N_2  and  C_25
REMARK    3  A    between atoms: C_5  and  C_6
REMARK    4  A    between atoms: C_12  and  C_13
REMARK    5  A    between atoms: N_16  and  C_17
REMARK                            x       y       z     vdW  Elec       q    Type
REMARK                         _______ _______ _______ _____ _____    ______ ____
ROOT
ATOM      1  C   UNL     1       3.703   7.665  16.504  0.00  0.00    +0.000 C 
ATOM      2  N   UNL     1       4.073   6.712  17.555  0.00  0.00    +0.000 N 
ATOM      3  C   UNL     1       3.199   6.607  18.663  0.00  0.00    +0.000 A 
ATOM      4  C   UNL     1       2.586   7.726  19.188  0.00  0.00    +0.000 A 
ATOM      5  C   UNL     1       1.761   7.553  20.279  0.00  0.00    +0.000 A 
ATOM      6  N   UNL     1       1.545   6.351  20.840  0.00  0.00    +0.000 NA
ATOM      7  C   UNL     1       2.174   5.323  20.281  0.00  0.00    +0.000 A 
ATOM      8  N   UNL     1       2.005   4.078  20.858  0.00  0.00    +0.000 N 
ATOM      9  N   UNL     1       3.001   5.404  19.237  0.00  0.00    +0.000 NA
ATOM     10  H   UNL     1       1.784   4.183  21.838  0.00  0.00    +0.000 HD
ATOM     11  H   UNL     1       2.791   3.490  20.619  0.00  0.00    +0.000 HD
ENDROOT
BRANCH   5  12
ATOM     12  C   UNL     1       1.065   8.687  20.875  0.00  0.00    +0.000 A 
ATOM     13  C   UNL     1       1.308   9.146  22.164  0.00  0.00    +0.000 A 
ATOM     14  N   UNL     1       0.509  10.236  22.390  0.00  0.00    +0.000 N 
ATOM     15  C   UNL     1      -0.259  10.482  21.291  0.00  0.00    +0.000 A 
ATOM     16  N   UNL     1      -1.149  11.484  21.213  0.00  0.00    +0.000 NA
ATOM     17  C   UNL     1      -1.799  11.509  20.024  0.00  0.00    +0.000 A 
ATOM     18  C   UNL     1      -1.607  10.631  18.954  0.00  0.00    +0.000 A 
ATOM     19  C   UNL     1      -0.645   9.623  19.097  0.00  0.00    +0.000 A 
ATOM     20  C   UNL     1       0.051   9.534  20.320  0.00  0.00    +0.000 A 
ATOM     21  H   UNL     1       0.469  10.791  23.234  0.00  0.00    +0.000 HD
BRANCH  18  22
ATOM     22  C   UNL     1      -2.407  10.764  17.755  0.00  0.00    +0.000 A 
ATOM     23  C   UNL     1      -3.533  11.580  17.494  0.00  0.00    +0.000 A 
ATOM     24  N   UNL     1      -3.984  11.454  16.244  0.00  0.00    +0.000 NA
ATOM     25  N   UNL     1      -3.150  10.551  15.699  0.00  0.00    +0.000 N 
ATOM     26  C   UNL     1      -3.300  10.174  14.315  0.00  0.00    +0.000 C 
ATOM     27  C   UNL     1      -2.194  10.098  16.565  0.00  0.00    +0.000 A 
ENDBRANCH  18  22
ENDBRANCH   5  12
BRANCH   2  28
ATOM     28  C   UNL     1       5.239   5.928  17.351  0.00  0.00    +0.000 A 
ATOM     29  C   UNL     1       5.552   5.468  16.055  0.00  0.00    +0.000 A 
ATOM     30  C   UNL     1       6.677   4.674  15.797  0.00  0.00    +0.000 A 
ATOM     31  C   UNL     1       7.531   4.318  16.832  0.00  0.00    +0.000 A 
ATOM     32  C   UNL     1       7.254   4.749  18.124  0.00  0.00    +0.000 A 
ATOM     33  C   UNL     1       6.123   5.533  18.374  0.00  0.00    +0.000 A 
ATOM     34  F   UNL     1       5.934   5.910  19.647  0.00  0.00    +0.000 F 
ENDBRANCH   2  28
TORSDOF 3
ENDMDL
MODEL 7
REMARK VINA RESULT:      -7.9      3.623      5.374
REMARK  Name = 
REMARK  5 active torsions:
REMARK  status: ('A' for Active; 'I' for Inactive)
REMARK    1  A    between atoms: C_1  and  N_2
REMARK    2  A    between atoms: N_2  and  C_25
REMARK    3  A    between atoms: C_5  and  C_6
REMARK    4  A    between atoms: C_12  and  C_13
REMARK    5  A    between atoms: N_16  and  C_17
REMARK                            x       y       z     vdW  Elec       q    Type
REMARK                         _______ _______ _______ _____ _____    ______ ____
ROOT
ATOM      1  C   UNL     1      -0.107  14.843  21.663  0.00  0.00    +0.000 C 
ATOM      2  N   UNL     1      -0.943  13.768  22.206  0.00  0.00    +0.000 N 
ATOM      3  C   UNL     1      -0.489  12.442  22.015  0.00  0.00    +0.000 A 
ATOM      4  C   UNL     1       0.115  12.065  20.833  0.00  0.00    +0.000 A 
ATOM      5  C   UNL     1       0.518  10.753  20.709  0.00  0.00    +0.000 A 
ATOM      6  N   UNL     1       0.338   9.845  21.683  0.00  0.00    +0.000 NA
ATOM      7  C   UNL     1      -0.254  10.283  22.789  0.00  0.00    +0.000 A 
ATOM      8  N   UNL     1      -0.490   9.366  23.796  0.00  0.00    +0.000 N 
ATOM      9  N   UNL     1      -0.690  11.529  22.985  0.00  0.00    +0.000 NA
ATOM     10  H   UNL     1      -0.570   8.439  23.402  0.00  0.00    +0.000 HD
ATOM     11  H   UNL     1      -1.253   9.692  24.372  0.00  0.00    +0.000 HD
ENDROOT
BRANCH   5  12
ATOM     12  C   UNL     1       1.180  10.287  19.496  0.00  0.00    +0.000 A 
ATOM     13  C   UNL     1       1.401  11.091  18.385  0.00  0.00    +0.000 A 
ATOM     14  N   UNL     1       2.068  10.350  17.445  0.00  0.00    +0.000 N 
ATOM     15  C   UNL     1       2.266   9.084  17.909  0.00  0.00    +0.000 A 
ATOM     16  N   UNL     1       2.888   8.123  17.208  0.00  0.00    +0.000 NA
ATOM     17  C   UNL     1       2.945   6.947  17.880  0.00  0.00    +0.000 A 
ATOM     18  C   UNL     1       2.445   6.696  19.160  0.00  0.00    +0.000 A 
ATOM     19  C   UNL     1       1.829   7.753  19.841  0.00  0.00    +0.000 A 
ATOM     20  C   UNL     1       1.722   8.997  19.186  0.00  0.00    +0.000 A 
ATOM     21  H   UNL     1       2.376  10.665  16.535  0.00  0.00    +0.000 HD
BRANCH  18  22
ATOM     22  C   UNL     1       2.551   5.371  19.733  0.00  0.00    +0.000 A 
ATOM     23  C   UNL     1       3.546   4.379  19.564  0.00  0.00    +0.000 A 
ATOM     24  N   UNL     1       3.315   3.285  20.293  0.00  0.00    +0.000 NA
ATOM     25  N   UNL     1       2.166   3.571  20.931  0.00  0.00    +0.000 N 
ATOM     26  C   UNL     1       1.603   2.623  21.860  0.00  0.00    +0.000 C 
ATOM     27  C   UNL     1       1.661   4.803  20.622  0.00  0.00    +0.000 A 
ENDBRANCH  18  22
ENDBRANCH   5  12
BRANCH   2  28
ATOM     28  C   UNL     1      -2.105  14.143  22.930  0.00  0.00    +0.000 A 
ATOM     29  C   UNL     1      -3.378  13.969  22.349  0.00  0.00    +0.000 A 
ATOM     30  C   UNL     1      -4.557  14.340  23.007  0.00  0.00    +0.000 A 
ATOM     31  C   UNL     1      -4.500  14.896  24.278  0.00  0.00    +0.000 A 
ATOM     32  C   UNL     1      -3.264  15.087  24.884  0.00  0.00    +0.000 A 
ATOM     33  C   UNL     1      -2.092  14.722  24.215  0.00  0.00    +0.000 A 
ATOM     34  F   UNL     1      -0.943  14.936  24.873  0.00  0.00    +0.000 F 
ENDBRANCH   2  28
TORSDOF 3
ENDMDL
MODEL 8
REMARK VINA RESULT:      -7.9      3.554      5.244
REMARK  Name = 
REMARK  5 active torsions:
REMARK  status: ('A' for Active; 'I' for Inactive)
REMARK    1  A    between atoms: C_1  and  N_2
REMARK    2  A    between atoms: N_2  and  C_25
REMARK    3  A    between atoms: C_5  and  C_6
REMARK    4  A    between atoms: C_12  and  C_13
REMARK    5  A    between atoms: N_16  and  C_17
REMARK                            x       y       z     vdW  Elec       q    Type
REMARK                         _______ _______ _______ _____ _____    ______ ____
ROOT
ATOM      1  C   UNL     1       0.292  14.787  21.983  0.00  0.00    +0.000 C 
ATOM      2  N   UNL     1      -0.662  13.776  22.449  0.00  0.00    +0.000 N 
ATOM      3  C   UNL     1      -0.349  12.423  22.176  0.00  0.00    +0.000 A 
ATOM      4  C   UNL     1       0.227  12.059  20.978  0.00  0.00    +0.000 A 
ATOM      5  C   UNL     1       0.489  10.722  20.772  0.00  0.00    +0.000 A 
ATOM      6  N   UNL     1       0.199   9.778  21.685  0.00  0.00    +0.000 NA
ATOM      7  C   UNL     1      -0.358  10.207  22.812  0.00  0.00    +0.000 A 
ATOM      8  N   UNL     1      -0.705   9.259  23.756  0.00  0.00    +0.000 N 
ATOM      9  N   UNL     1      -0.661  11.478  23.085  0.00  0.00    +0.000 NA
ATOM     10  H   UNL     1      -0.878   8.373  23.302  0.00  0.00    +0.000 HD
ATOM     11  H   UNL     1      -1.436   9.629  24.347  0.00  0.00    +0.000 HD
ENDROOT
BRANCH   5  12
ATOM     12  C   UNL     1       1.114  10.264  19.537  0.00  0.00    +0.000 A 
ATOM     13  C   UNL     1       1.238  11.054  18.400  0.00  0.00    +0.000 A 
ATOM     14  N   UNL     1       1.896  10.330  17.442  0.00  0.00    +0.000 N 
ATOM     15  C   UNL     1       2.182   9.085  17.919  0.00  0.00    +0.000 A 
ATOM     16  N   UNL     1       2.819   8.143  17.207  0.00  0.00    +0.000 NA
ATOM     17  C   UNL     1       2.971   6.986  17.896  0.00  0.00    +0.000 A 
ATOM     18  C   UNL     1       2.548   6.737  19.205  0.00  0.00    +0.000 A 
ATOM     19  C   UNL     1       1.911   7.775  19.896  0.00  0.00    +0.000 A 
ATOM     20  C   UNL     1       1.707   8.998  19.224  0.00  0.00    +0.000 A 
ATOM     21  H   UNL     1       2.142  10.640  16.512  0.00  0.00    +0.000 HD
BRANCH  18  22
ATOM     22  C   UNL     1       2.751   5.432  19.797  0.00  0.00    +0.000 A 
ATOM     23  C   UNL     1       2.047   4.782  20.839  0.00  0.00    +0.000 A 
ATOM     24  N   UNL     1       2.509   3.555  21.088  0.00  0.00    +0.000 NA
ATOM     25  N   UNL     1       3.515   3.414  20.207  0.00  0.00    +0.000 N 
ATOM     26  C   UNL     1       4.251   2.175  20.145  0.00  0.00    +0.000 C 
ATOM     27  C   UNL     1       3.709   4.514  19.418  0.00  0.00    +0.000 A 
ENDBRANCH  18  22
ENDBRANCH   5  12
BRANCH   2  28
ATOM     28  C   UNL     1      -1.787  14.227  23.188  0.00  0.00    +0.000 A 
ATOM     29  C   UNL     1      -1.599  14.829  24.449  0.00  0.00    +0.000 A 
ATOM     30  C   UNL     1      -2.672  15.273  25.232  0.00  0.00    +0.000 A 
ATOM     31  C   UNL     1      -3.975  15.133  24.772  0.00  0.00    +0.000 A 
ATOM     32  C   UNL     1      -4.202  14.543  23.535  0.00  0.00    +0.000 A 
ATOM     33  C   UNL     1      -3.125  14.093  22.765  0.00  0.00    +0.000 A 
ATOM     34  F   UNL     1      -3.432  13.540  21.582  0.00  0.00    +0.000 F 
ENDBRANCH   2  28
TORSDOF 3
ENDMDL
MODEL 9
REMARK VINA RESULT:      -7.6      2.502      4.273
REMARK  Name = 
REMARK  5 active torsions:
REMARK  status: ('A' for Active; 'I' for Inactive)
REMARK    1  A    between atoms: C_1  and  N_2
REMARK    2  A    between atoms: N_2  and  C_25
REMARK    3  A    between atoms: C_5  and  C_6
REMARK    4  A    between atoms: C_12  and  C_13
REMARK    5  A    between atoms: N_16  and  C_17
REMARK                            x       y       z     vdW  Elec       q    Type
REMARK                         _______ _______ _______ _____ _____    ______ ____
ROOT
ATOM      1  C   UNL     1       2.636  10.240  17.607  0.00  0.00    +0.000 C 
ATOM      2  N   UNL     1       1.608  10.378  18.643  0.00  0.00    +0.000 N 
ATOM      3  C   UNL     1       1.536   9.353  19.616  0.00  0.00    +0.000 A 
ATOM      4  C   UNL     1       1.729   8.033  19.268  0.00  0.00    +0.000 A 
ATOM      5  C   UNL     1       1.627   7.085  20.264  0.00  0.00    +0.000 A 
ATOM      6  N   UNL     1       1.343   7.403  21.539  0.00  0.00    +0.000 NA
ATOM      7  C   UNL     1       1.166   8.695  21.794  0.00  0.00    +0.000 A 
ATOM      8  N   UNL     1       0.834   9.052  23.088  0.00  0.00    +0.000 N 
ATOM      9  N   UNL     1       1.230   9.673  20.889  0.00  0.00    +0.000 NA
ATOM     10  H   UNL     1       0.367   8.282  23.546  0.00  0.00    +0.000 HD
ATOM     11  H   UNL     1       0.359   9.943  23.076  0.00  0.00    +0.000 HD
ENDROOT
BRANCH   5  12
ATOM     12  C   UNL     1       1.838   5.672  19.974  0.00  0.00    +0.000 A 
ATOM     13  C   UNL     1       1.138   4.647  20.599  0.00  0.00    +0.000 A 
ATOM     14  N   UNL     1       1.559   3.455  20.072  0.00  0.00    +0.000 N 
ATOM     15  C   UNL     1       2.527   3.679  19.139  0.00  0.00    +0.000 A 
ATOM     16  N   UNL     1       3.140   2.701  18.452  0.00  0.00    +0.000 NA
ATOM     17  C   UNL     1       4.076   3.178  17.596  0.00  0.00    +0.000 A 
ATOM     18  C   UNL     1       4.408   4.519  17.391  0.00  0.00    +0.000 A 
ATOM     19  C   UNL     1       3.711   5.487  18.126  0.00  0.00    +0.000 A 
ATOM     20  C   UNL     1       2.738   5.051  19.048  0.00  0.00    +0.000 A 
ATOM     21  H   UNL     1       1.226   2.533  20.320  0.00  0.00    +0.000 HD
BRANCH  18  22
ATOM     22  C   UNL     1       5.461   4.872  16.462  0.00  0.00    +0.000 A 
ATOM     23  C   UNL     1       6.624   5.656  16.654  0.00  0.00    +0.000 A 
ATOM     24  N   UNL     1       7.384   5.728  15.560  0.00  0.00    +0.000 NA
ATOM     25  N   UNL     1       6.709   4.993  14.659  0.00  0.00    +0.000 N 
ATOM     26  C   UNL     1       7.248   4.802  13.335  0.00  0.00    +0.000 C 
ATOM     27  C   UNL     1       5.545   4.468  15.145  0.00  0.00    +0.000 A 
ENDBRANCH  18  22
ENDBRANCH   5  12
BRANCH   2  28
ATOM     28  C   UNL     1       0.810  11.552  18.624  0.00  0.00    +0.000 A 
ATOM     29  C   UNL     1       1.427  12.817  18.720  0.00  0.00    +0.000 A 
ATOM     30  C   UNL     1       0.690  14.008  18.728  0.00  0.00    +0.000 A 
ATOM     31  C   UNL     1      -0.695  13.971  18.635  0.00  0.00    +0.000 A 
ATOM     32  C   UNL     1      -1.340  12.743  18.542  0.00  0.00    +0.000 A 
ATOM     33  C   UNL     1      -0.597  11.559  18.545  0.00  0.00    +0.000 A 
ATOM     34  F   UNL     1      -1.297  10.420  18.447  0.00  0.00    +0.000 F 
ENDBRANCH   2  28
TORSDOF 3
ENDMDL
