MODEL 1
REMARK VINA RESULT:      -8.2      0.000      0.000
REMARK  Name = 
REMARK  6 active torsions:
REMARK  status: ('A' for Active; 'I' for Inactive)
REMARK    1  A    between atoms: C_2  and  C_3
REMARK    2  A    between atoms: C_3  and  C_4
REMARK    3  A    between atoms: N_10  and  N_11
REMARK    4  A    between atoms: C_12  and  C_13
REMARK    5  A    between atoms: N_17  and  C_18
REMARK    6  A    between atoms: C_21  and  N_22
REMARK                            x       y       z     vdW  Elec       q    Type
REMARK                         _______ _______ _______ _____ _____    ______ ____
ROOT
ATOM      1  C   UNL     1       1.787   4.089  19.822  0.00  0.00    +0.000 A 
ATOM      2  C   UNL     1       0.877   3.046  19.770  0.00  0.00    +0.000 A 
ATOM      3  C   UNL     1       1.215   2.218  18.680  0.00  0.00    +0.000 A 
ATOM      4  C   UNL     1       2.321   2.772  18.083  0.00  0.00    +0.000 A 
ATOM      5  N   UNL     1       2.707   3.884  18.802  0.00  0.00    +0.000 N 
ENDROOT
BRANCH   5   6
ATOM      6  C   UNL     1       3.892   4.625  18.551  0.00  0.00    +0.000 A 
ATOM      7  C   UNL     1       3.911   5.572  17.520  0.00  0.00    +0.000 A 
ATOM      8  C   UNL     1       5.081   6.286  17.255  0.00  0.00    +0.000 A 
ATOM      9  C   UNL     1       6.236   6.025  18.008  0.00  0.00    +0.000 A 
ATOM     10  C   UNL     1       6.225   5.062  19.024  0.00  0.00    +0.000 A 
ATOM     11  C   UNL     1       5.050   4.368  19.299  0.00  0.00    +0.000 A 
BRANCH   9  12
ATOM     12  N   UNL     1       7.468   6.769  17.719  0.00  0.00    +0.000 N 
ATOM     13  O   UNL     1       8.193   7.076  18.665  0.00  0.00    +0.000 OA
ATOM     14  O   UNL     1       7.706   7.039  16.526  0.00  0.00    +0.000 OA
ENDBRANCH   9  12
ENDBRANCH   5   6
BRANCH   1  16
ATOM     15  N   UNL     1       1.592   6.411  20.267  0.00  0.00    +0.000 NA
ATOM     16  C   UNL     1       1.772   5.219  20.717  0.00  0.00    +0.000 C 
BRANCH  15  19
ATOM     17  O   UNL     1       1.429   9.574  21.780  0.00  0.00    +0.000 OA
ATOM     18  C   UNL     1       1.431   8.722  20.882  0.00  0.00    +0.000 C 
ATOM     19  N   UNL     1       1.575   7.394  21.209  0.00  0.00    +0.000 N 
ATOM     20  H   UNL     1       1.687   7.183  22.195  0.00  0.00    +0.000 HD
BRANCH  18  21
ATOM     21  C   UNL     1       1.246   9.048  19.409  0.00  0.00    +0.000 C 
BRANCH  21  22
ATOM     22  C   UNL     1       0.523  10.347  19.136  0.00  0.00    +0.000 A 
ATOM     23  C   UNL     1      -0.880  10.380  19.086  0.00  0.00    +0.000 A 
ATOM     24  C   UNL     1      -1.554  11.567  18.788  0.00  0.00    +0.000 A 
ATOM     25  C   UNL     1      -0.835  12.737  18.558  0.00  0.00    +0.000 A 
ATOM     26  C   UNL     1       0.557  12.723  18.636  0.00  0.00    +0.000 A 
ATOM     27  C   UNL     1       1.233  11.537  18.930  0.00  0.00    +0.000 A 
ENDBRANCH  21  22
ENDBRANCH  18  21
ENDBRANCH  15  19
ENDBRANCH   1  16
TORSDOF 6
ENDMDL
MODEL 2
REMARK VINA RESULT:      -8.1      0.181      1.480
REMARK  Name = 
REMARK  6 active torsions:
REMARK  status: ('A' for Active; 'I' for Inactive)
REMARK    1  A    between atoms: C_2  and  C_3
REMARK    2  A    between atoms: C_3  and  C_4
REMARK    3  A    between atoms: N_10  and  N_11
REMARK    4  A    between atoms: C_12  and  C_13
REMARK    5  A    between atoms: N_17  and  C_18
REMARK    6  A    between atoms: C_21  and  N_22
REMARK                            x       y       z     vdW  Elec       q    Type
REMARK                         _______ _______ _______ _____ _____    ______ ____
ROOT
ATOM      1  C   UNL     1       1.836   4.129  19.870  0.00  0.00    +0.000 A 
ATOM      2  C   UNL     1       0.907   3.102  19.838  0.00  0.00    +0.000 A 
ATOM      3  C   UNL     1       1.198   2.276  18.733  0.00  0.00    +0.000 A 
ATOM      4  C   UNL     1       2.297   2.815  18.108  0.00  0.00    +0.000 A 
ATOM      5  N   UNL     1       2.722   3.915  18.823  0.00  0.00    +0.000 N 
ENDROOT
BRANCH   5   6
ATOM      6  C   UNL     1       3.912   4.637  18.542  0.00  0.00    +0.000 A 
ATOM      7  C   UNL     1       5.093   4.319  19.224  0.00  0.00    +0.000 A 
ATOM      8  C   UNL     1       6.259   5.042  18.968  0.00  0.00    +0.000 A 
ATOM      9  C   UNL     1       6.227   6.102  18.049  0.00  0.00    +0.000 A 
ATOM     10  C   UNL     1       5.042   6.437  17.383  0.00  0.00    +0.000 A 
ATOM     11  C   UNL     1       3.887   5.699  17.626  0.00  0.00    +0.000 A 
BRANCH   9  12
ATOM     12  N   UNL     1       7.453   6.869  17.791  0.00  0.00    +0.000 N 
ATOM     13  O   UNL     1       7.583   7.396  16.686  0.00  0.00    +0.000 OA
ATOM     14  O   UNL     1       8.286   6.942  18.714  0.00  0.00    +0.000 OA
ENDBRANCH   9  12
ENDBRANCH   5   6
BRANCH   1  16
ATOM     15  N   UNL     1       1.453   6.412  20.393  0.00  0.00    +0.000 NA
ATOM     16  C   UNL     1       1.866   5.253  20.772  0.00  0.00    +0.000 C 
BRANCH  15  19
ATOM     17  O   UNL     1       1.516   9.572  21.917  0.00  0.00    +0.000 OA
ATOM     18  C   UNL     1       1.455   8.726  21.017  0.00  0.00    +0.000 C 
ATOM     19  N   UNL     1       1.509   7.390  21.338  0.00  0.00    +0.000 N 
ATOM     20  H   UNL     1       1.610   7.167  22.323  0.00  0.00    +0.000 HD
BRANCH  18  21
ATOM     21  C   UNL     1       1.286   9.069  19.545  0.00  0.00    +0.000 C 
BRANCH  21  22
ATOM     22  C   UNL     1       0.484  10.322  19.279  0.00  0.00    +0.000 A 
ATOM     23  C   UNL     1       1.135  11.528  18.968  0.00  0.00    +0.000 A 
ATOM     24  C   UNL     1       0.404  12.701  18.767  0.00  0.00    +0.000 A 
ATOM     25  C   UNL     1      -0.986  12.677  18.853  0.00  0.00    +0.000 A 
ATOM     26  C   UNL     1      -1.645  11.480  19.129  0.00  0.00    +0.000 A 
ATOM     27  C   UNL     1      -0.915  10.308  19.334  0.00  0.00    +0.000 A 
ENDBRANCH  21  22
ENDBRANCH  18  21
ENDBRANCH  15  19
ENDBRANCH   1  16
TORSDOF 6
ENDMDL
MODEL 3
REMARK VINA RESULT:      -8.1      0.402      1.006
REMARK  Name = 
REMARK  6 active torsions:
REMARK  status: ('A' for Active; 'I' for Inactive)
REMARK    1  A    between atoms: C_2  and  C_3
REMARK    2  A    between atoms: C_3  and  C_4
REMARK    3  A    between atoms: N_10  and  N_11
REMARK    4  A    between atoms: C_12  and  C_13
REMARK    5  A    between atoms: N_17  and  C_18
REMARK    6  A    between atoms: C_21  and  N_22
REMARK                            x       y       z     vdW  Elec       q    Type
REMARK                         _______ _______ _______ _____ _____    ______ ____
ROOT
ATOM      1  C   UNL     1       1.739   4.323  19.935  0.00  0.00    +0.000 A 
ATOM      2  C   UNL     1       0.780   3.322  19.911  0.00  0.00    +0.000 A 
ATOM      3  C   UNL     1       1.042   2.487  18.806  0.00  0.00    +0.000 A 
ATOM      4  C   UNL     1       2.153   2.993  18.175  0.00  0.00    +0.000 A 
ATOM      5  N   UNL     1       2.613   4.082  18.884  0.00  0.00    +0.000 N 
ENDROOT
BRANCH   5   6
ATOM      6  C   UNL     1       3.821   4.769  18.596  0.00  0.00    +0.000 A 
ATOM      7  C   UNL     1       3.850   5.717  17.566  0.00  0.00    +0.000 A 
ATOM      8  C   UNL     1       5.042   6.378  17.265  0.00  0.00    +0.000 A 
ATOM      9  C   UNL     1       6.207   6.064  17.979  0.00  0.00    +0.000 A 
ATOM     10  C   UNL     1       6.185   5.100  18.994  0.00  0.00    +0.000 A 
ATOM     11  C   UNL     1       4.990   4.459  19.306  0.00  0.00    +0.000 A 
BRANCH   9  12
ATOM     12  N   UNL     1       7.462   6.752  17.652  0.00  0.00    +0.000 N 
ATOM     13  O   UNL     1       8.170   7.137  18.582  0.00  0.00    +0.000 OA
ATOM     14  O   UNL     1       7.734   6.900  16.444  0.00  0.00    +0.000 OA
ENDBRANCH   9  12
ENDBRANCH   5   6
BRANCH   1  16
ATOM     15  N   UNL     1       1.582   6.642  20.412  0.00  0.00    +0.000 NA
ATOM     16  C   UNL     1       1.805   5.447  20.835  0.00  0.00    +0.000 C 
BRANCH  15  19
ATOM     17  O   UNL     1       1.450   9.782  21.974  0.00  0.00    +0.000 OA
ATOM     18  C   UNL     1       1.364   8.934  21.077  0.00  0.00    +0.000 C 
ATOM     19  N   UNL     1       1.651   7.619  21.357  0.00  0.00    +0.000 N 
ATOM     20  H   UNL     1       1.937   7.414  22.309  0.00  0.00    +0.000 HD
BRANCH  18  21
ATOM     21  C   UNL     1       0.918   9.250  19.657  0.00  0.00    +0.000 C 
BRANCH  21  22
ATOM     22  C   UNL     1       0.377  10.647  19.463  0.00  0.00    +0.000 A 
ATOM     23  C   UNL     1       1.210  11.668  18.975  0.00  0.00    +0.000 A 
ATOM     24  C   UNL     1       0.730  12.973  18.837  0.00  0.00    +0.000 A 
ATOM     25  C   UNL     1      -0.591  13.267  19.165  0.00  0.00    +0.000 A 
ATOM     26  C   UNL     1      -1.435  12.255  19.619  0.00  0.00    +0.000 A 
ATOM     27  C   UNL     1      -0.957  10.951  19.762  0.00  0.00    +0.000 A 
ENDBRANCH  21  22
ENDBRANCH  18  21
ENDBRANCH  15  19
ENDBRANCH   1  16
TORSDOF 6
ENDMDL
MODEL 4
REMARK VINA RESULT:      -8.0      3.052      7.203
REMARK  Name = 
REMARK  6 active torsions:
REMARK  status: ('A' for Active; 'I' for Inactive)
REMARK    1  A    between atoms: C_2  and  C_3
REMARK    2  A    between atoms: C_3  and  C_4
REMARK    3  A    between atoms: N_10  and  N_11
REMARK    4  A    between atoms: C_12  and  C_13
REMARK    5  A    between atoms: N_17  and  C_18
REMARK    6  A    between atoms: C_21  and  N_22
REMARK                            x       y       z     vdW  Elec       q    Type
REMARK                         _______ _______ _______ _____ _____    ______ ____
ROOT
ATOM      1  C   UNL     1       3.230   3.796  19.851  0.00  0.00    +0.000 A 
ATOM      2  C   UNL     1       2.837   2.512  20.192  0.00  0.00    +0.000 A 
ATOM      3  C   UNL     1       1.485   2.555  20.590  0.00  0.00    +0.000 A 
ATOM      4  C   UNL     1       1.078   3.863  20.489  0.00  0.00    +0.000 A 
ATOM      5  N   UNL     1       2.120   4.618  19.991  0.00  0.00    +0.000 N 
ENDROOT
BRANCH   5   6
ATOM      6  C   UNL     1       2.012   5.986  19.631  0.00  0.00    +0.000 A 
ATOM      7  C   UNL     1       2.338   6.388  18.329  0.00  0.00    +0.000 A 
ATOM      8  C   UNL     1       2.256   7.736  17.978  0.00  0.00    +0.000 A 
ATOM      9  C   UNL     1       1.875   8.680  18.942  0.00  0.00    +0.000 A 
ATOM     10  C   UNL     1       1.571   8.284  20.250  0.00  0.00    +0.000 A 
ATOM     11  C   UNL     1       1.634   6.936  20.590  0.00  0.00    +0.000 A 
BRANCH   9  12
ATOM     12  N   UNL     1       1.802  10.100  18.572  0.00  0.00    +0.000 N 
ATOM     13  O   UNL     1       2.382  10.461  17.549  0.00  0.00    +0.000 OA
ATOM     14  O   UNL     1       1.147  10.852  19.320  0.00  0.00    +0.000 OA
ENDBRANCH   9  12
ENDBRANCH   5   6
BRANCH   1  16
ATOM     15  N   UNL     1       5.166   3.691  18.485  0.00  0.00    +0.000 NA
ATOM     16  C   UNL     1       4.550   4.235  19.475  0.00  0.00    +0.000 C 
BRANCH  15  19
ATOM     17  O   UNL     1       7.867   5.137  16.772  0.00  0.00    +0.000 OA
ATOM     18  C   UNL     1       6.730   4.689  16.967  0.00  0.00    +0.000 C 
ATOM     19  N   UNL     1       6.398   4.203  18.210  0.00  0.00    +0.000 N 
ATOM     20  H   UNL     1       7.128   4.229  18.914  0.00  0.00    +0.000 HD
BRANCH  18  21
ATOM     21  C   UNL     1       5.637   4.669  15.910  0.00  0.00    +0.000 C 
BRANCH  21  22
ATOM     22  C   UNL     1       6.133   4.483  14.494  0.00  0.00    +0.000 A 
ATOM     23  C   UNL     1       5.489   3.582  13.630  0.00  0.00    +0.000 A 
ATOM     24  C   UNL     1       5.970   3.370  12.336  0.00  0.00    +0.000 A 
ATOM     25  C   UNL     1       7.086   4.070  11.885  0.00  0.00    +0.000 A 
ATOM     26  C   UNL     1       7.713   4.991  12.722  0.00  0.00    +0.000 A 
ATOM     27  C   UNL     1       7.237   5.202  14.018  0.00  0.00    +0.000 A 
ENDBRANCH  21  22
ENDBRANCH  18  21
ENDBRANCH  15  19
ENDBRANCH   1  16
TORSDOF 6
ENDMDL
MODEL 5
REMARK VINA RESULT:      -7.9      2.335      3.054
REMARK  Name = 
REMARK  6 active torsions:
REMARK  status: ('A' for Active; 'I' for Inactive)
REMARK    1  A    between atoms: C_2  and  C_3
REMARK    2  A    between atoms: C_3  and  C_4
REMARK    3  A    between atoms: N_10  and  N_11
REMARK    4  A    between atoms: C_12  and  C_13
REMARK    5  A    between atoms: N_17  and  C_18
REMARK    6  A    between atoms: C_21  and  N_22
REMARK                            x       y       z     vdW  Elec       q    Type
REMARK                         _______ _______ _______ _____ _____    ______ ____
ROOT
ATOM      1  C   UNL     1       2.388   5.924  19.438  0.00  0.00    +0.000 A 
ATOM      2  C   UNL     1       1.576   5.415  20.438  0.00  0.00    +0.000 A 
ATOM      3  C   UNL     1       1.488   4.018  20.269  0.00  0.00    +0.000 A 
ATOM      4  C   UNL     1       2.245   3.699  19.168  0.00  0.00    +0.000 A 
ATOM      5  N   UNL     1       2.838   4.847  18.685  0.00  0.00    +0.000 N 
ENDROOT
BRANCH   5   6
ATOM      6  C   UNL     1       3.795   4.871  17.637  0.00  0.00    +0.000 A 
ATOM      7  C   UNL     1       4.243   3.667  17.081  0.00  0.00    +0.000 A 
ATOM      8  C   UNL     1       5.201   3.686  16.066  0.00  0.00    +0.000 A 
ATOM      9  C   UNL     1       5.728   4.912  15.635  0.00  0.00    +0.000 A 
ATOM     10  C   UNL     1       5.298   6.115  16.205  0.00  0.00    +0.000 A 
ATOM     11  C   UNL     1       4.327   6.093  17.202  0.00  0.00    +0.000 A 
BRANCH   9  12
ATOM     12  N   UNL     1       6.745   4.927  14.576  0.00  0.00    +0.000 N 
ATOM     13  O   UNL     1       7.742   5.631  14.741  0.00  0.00    +0.000 OA
ATOM     14  O   UNL     1       6.537   4.218  13.572  0.00  0.00    +0.000 OA
ENDBRANCH   9  12
ENDBRANCH   5   6
BRANCH   1  16
ATOM     15  N   UNL     1       1.899   8.016  18.433  0.00  0.00    +0.000 NA
ATOM     16  C   UNL     1       2.682   7.309  19.171  0.00  0.00    +0.000 C 
BRANCH  15  19
ATOM     17  O   UNL     1       1.778  11.521  18.297  0.00  0.00    +0.000 OA
ATOM     18  C   UNL     1       1.390  10.358  18.466  0.00  0.00    +0.000 C 
ATOM     19  N   UNL     1       2.267   9.317  18.270  0.00  0.00    +0.000 N 
ATOM     20  H   UNL     1       3.205   9.568  17.977  0.00  0.00    +0.000 HD
BRANCH  18  21
ATOM     21  C   UNL     1      -0.014   9.994  18.920  0.00  0.00    +0.000 C 
BRANCH  21  22
ATOM     22  C   UNL     1      -0.258  10.154  20.403  0.00  0.00    +0.000 A 
ATOM     23  C   UNL     1      -0.132   9.052  21.265  0.00  0.00    +0.000 A 
ATOM     24  C   UNL     1      -0.402   9.181  22.630  0.00  0.00    +0.000 A 
ATOM     25  C   UNL     1      -0.780  10.415  23.151  0.00  0.00    +0.000 A 
ATOM     26  C   UNL     1      -0.877  11.523  22.310  0.00  0.00    +0.000 A 
ATOM     27  C   UNL     1      -0.612  11.396  20.945  0.00  0.00    +0.000 A 
ENDBRANCH  21  22
ENDBRANCH  18  21
ENDBRANCH  15  19
ENDBRANCH   1  16
TORSDOF 6
ENDMDL
MODEL 6
REMARK VINA RESULT:      -7.9      1.220      1.666
REMARK  Name = 
REMARK  6 active torsions:
REMARK  status: ('A' for Active; 'I' for Inactive)
REMARK    1  A    between atoms: C_2  and  C_3
REMARK    2  A    between atoms: C_3  and  C_4
REMARK    3  A    between atoms: N_10  and  N_11
REMARK    4  A    between atoms: C_12  and  C_13
REMARK    5  A    between atoms: N_17  and  C_18
REMARK    6  A    between atoms: C_21  and  N_22
REMARK                            x       y       z     vdW  Elec       q    Type
REMARK                         _______ _______ _______ _____ _____    ______ ____
ROOT
ATOM      1  C   UNL     1       1.850   4.531  19.780  0.00  0.00    +0.000 A 
ATOM      2  C   UNL     1       0.809   3.664  20.072  0.00  0.00    +0.000 A 
ATOM      3  C   UNL     1       0.698   2.735  19.017  0.00  0.00    +0.000 A 
ATOM      4  C   UNL     1       1.669   3.054  18.098  0.00  0.00    +0.000 A 
ATOM      5  N   UNL     1       2.407   4.115  18.579  0.00  0.00    +0.000 N 
ENDROOT
BRANCH   5   6
ATOM      6  C   UNL     1       3.577   4.621  17.953  0.00  0.00    +0.000 A 
ATOM      7  C   UNL     1       4.570   3.733  17.520  0.00  0.00    +0.000 A 
ATOM      8  C   UNL     1       5.732   4.229  16.925  0.00  0.00    +0.000 A 
ATOM      9  C   UNL     1       5.905   5.614  16.795  0.00  0.00    +0.000 A 
ATOM     10  C   UNL     1       4.924   6.504  17.248  0.00  0.00    +0.000 A 
ATOM     11  C   UNL     1       3.758   6.005  17.821  0.00  0.00    +0.000 A 
BRANCH   9  12
ATOM     12  N   UNL     1       7.134   6.132  16.180  0.00  0.00    +0.000 N 
ATOM     13  O   UNL     1       7.513   5.622  15.126  0.00  0.00    +0.000 OA
ATOM     14  O   UNL     1       7.717   7.065  16.766  0.00  0.00    +0.000 OA
ENDBRANCH   9  12
ENDBRANCH   5   6
BRANCH   1  16
ATOM     15  N   UNL     1       1.513   6.737  20.586  0.00  0.00    +0.000 NA
ATOM     16  C   UNL     1       2.259   5.689  20.533  0.00  0.00    +0.000 C 
BRANCH  15  19
ATOM     17  O   UNL     1       1.725   9.762  22.352  0.00  0.00    +0.000 OA
ATOM     18  C   UNL     1       1.234   8.860  21.662  0.00  0.00    +0.000 C 
ATOM     19  N   UNL     1       1.994   7.759  21.346  0.00  0.00    +0.000 N 
ATOM     20  H   UNL     1       2.947   7.754  21.696  0.00  0.00    +0.000 HD
BRANCH  18  21
ATOM     21  C   UNL     1      -0.200   8.869  21.156  0.00  0.00    +0.000 C 
BRANCH  21  22
ATOM     22  C   UNL     1      -0.584  10.104  20.373  0.00  0.00    +0.000 A 
ATOM     23  C   UNL     1      -1.026  11.258  21.041  0.00  0.00    +0.000 A 
ATOM     24  C   UNL     1      -1.428  12.386  20.322  0.00  0.00    +0.000 A 
ATOM     25  C   UNL     1      -1.373  12.381  18.931  0.00  0.00    +0.000 A 
ATOM     26  C   UNL     1      -0.906  11.253  18.259  0.00  0.00    +0.000 A 
ATOM     27  C   UNL     1      -0.507  10.122  18.975  0.00  0.00    +0.000 A 
ENDBRANCH  21  22
ENDBRANCH  18  21
ENDBRANCH  15  19
ENDBRANCH   1  16
TORSDOF 6
ENDMDL
MODEL 7
REMARK VINA RESULT:      -7.9      2.076      2.797
REMARK  Name = 
REMARK  6 active torsions:
REMARK  status: ('A' for Active; 'I' for Inactive)
REMARK    1  A    between atoms: C_2  and  C_3
REMARK    2  A    between atoms: C_3  and  C_4
REMARK    3  A    between atoms: N_10  and  N_11
REMARK    4  A    between atoms: C_12  and  C_13
REMARK    5  A    between atoms: N_17  and  C_18
REMARK    6  A    between atoms: C_21  and  N_22
REMARK                            x       y       z     vdW  Elec       q    Type
REMARK                         _______ _______ _______ _____ _____    ______ ____
ROOT
ATOM      1  C   UNL     1       1.999   5.927  19.872  0.00  0.00    +0.000 A 
ATOM      2  C   UNL     1       0.957   5.488  20.673  0.00  0.00    +0.000 A 
ATOM      3  C   UNL     1       0.911   4.080  20.606  0.00  0.00    +0.000 A 
ATOM      4  C   UNL     1       1.922   3.685  19.763  0.00  0.00    +0.000 A 
ATOM      5  N   UNL     1       2.621   4.800  19.351  0.00  0.00    +0.000 N 
ENDROOT
BRANCH   5   6
ATOM      6  C   UNL     1       3.813   4.755  18.581  0.00  0.00    +0.000 A 
ATOM      7  C   UNL     1       5.046   5.006  19.198  0.00  0.00    +0.000 A 
ATOM      8  C   UNL     1       6.217   4.984  18.439  0.00  0.00    +0.000 A 
ATOM      9  C   UNL     1       6.144   4.742  17.060  0.00  0.00    +0.000 A 
ATOM     10  C   UNL     1       4.911   4.514  16.438  0.00  0.00    +0.000 A 
ATOM     11  C   UNL     1       3.747   4.515  17.202  0.00  0.00    +0.000 A 
BRANCH   9  12
ATOM     12  N   UNL     1       7.378   4.733  16.263  0.00  0.00    +0.000 N 
ATOM     13  O   UNL     1       8.342   4.103  16.697  0.00  0.00    +0.000 OA
ATOM     14  O   UNL     1       7.368   5.364  15.188  0.00  0.00    +0.000 OA
ENDBRANCH   9  12
ENDBRANCH   5   6
BRANCH   1  16
ATOM     15  N   UNL     1       1.886   7.878  18.527  0.00  0.00    +0.000 NA
ATOM     16  C   UNL     1       2.355   7.291  19.572  0.00  0.00    +0.000 C 
BRANCH  15  19
ATOM     17  O   UNL     1       1.815  11.383  18.357  0.00  0.00    +0.000 OA
ATOM     18  C   UNL     1       1.409  10.227  18.529  0.00  0.00    +0.000 C 
ATOM     19  N   UNL     1       2.274   9.172  18.359  0.00  0.00    +0.000 N 
ATOM     20  H   UNL     1       3.222   9.407  18.084  0.00  0.00    +0.000 HD
BRANCH  18  21
ATOM     21  C   UNL     1      -0.010   9.885  18.958  0.00  0.00    +0.000 C 
BRANCH  21  22
ATOM     22  C   UNL     1      -0.292  10.100  20.427  0.00  0.00    +0.000 A 
ATOM     23  C   UNL     1      -0.146   9.041  21.339  0.00  0.00    +0.000 A 
ATOM     24  C   UNL     1      -0.451   9.218  22.691  0.00  0.00    +0.000 A 
ATOM     25  C   UNL     1      -0.884  10.460  23.149  0.00  0.00    +0.000 A 
ATOM     26  C   UNL     1      -1.003  11.526  22.259  0.00  0.00    +0.000 A 
ATOM     27  C   UNL     1      -0.702  11.350  20.907  0.00  0.00    +0.000 A 
ENDBRANCH  21  22
ENDBRANCH  18  21
ENDBRANCH  15  19
ENDBRANCH   1  16
TORSDOF 6
ENDMDL
MODEL 8
REMARK VINA RESULT:      -7.8      3.120      7.318
REMARK  Name = 
REMARK  6 active torsions:
REMARK  status: ('A' for Active; 'I' for Inactive)
REMARK    1  A    between atoms: C_2  and  C_3
REMARK    2  A    between atoms: C_3  and  C_4
REMARK    3  A    between atoms: N_10  and  N_11
REMARK    4  A    between atoms: C_12  and  C_13
REMARK    5  A    between atoms: N_17  and  C_18
REMARK    6  A    between atoms: C_21  and  N_22
REMARK                            x       y       z     vdW  Elec       q    Type
REMARK                         _______ _______ _______ _____ _____    ______ ____
ROOT
ATOM      1  C   UNL     1       3.175   4.072  19.851  0.00  0.00    +0.000 A 
ATOM      2  C   UNL     1       2.771   2.804  20.238  0.00  0.00    +0.000 A 
ATOM      3  C   UNL     1       1.431   2.880  20.671  0.00  0.00    +0.000 A 
ATOM      4  C   UNL     1       1.043   4.192  20.544  0.00  0.00    +0.000 A 
ATOM      5  N   UNL     1       2.083   4.915  19.998  0.00  0.00    +0.000 N 
ENDROOT
BRANCH   5   6
ATOM      6  C   UNL     1       1.988   6.275  19.603  0.00  0.00    +0.000 A 
ATOM      7  C   UNL     1       1.625   7.247  20.545  0.00  0.00    +0.000 A 
ATOM      8  C   UNL     1       1.508   8.582  20.155  0.00  0.00    +0.000 A 
ATOM      9  C   UNL     1       1.726   8.932  18.814  0.00  0.00    +0.000 A 
ATOM     10  C   UNL     1       2.067   7.959  17.867  0.00  0.00    +0.000 A 
ATOM     11  C   UNL     1       2.203   6.632  18.265  0.00  0.00    +0.000 A 
BRANCH   9  12
ATOM     12  N   UNL     1       1.590  10.336  18.404  0.00  0.00    +0.000 N 
ATOM     13  O   UNL     1       0.490  10.872  18.536  0.00  0.00    +0.000 OA
ATOM     14  O   UNL     1       2.605  10.900  17.951  0.00  0.00    +0.000 OA
ENDBRANCH   9  12
ENDBRANCH   5   6
BRANCH   1  16
ATOM     15  N   UNL     1       5.138   3.796  18.547  0.00  0.00    +0.000 NA
ATOM     16  C   UNL     1       4.492   4.477  19.428  0.00  0.00    +0.000 C 
BRANCH  15  19
ATOM     17  O   UNL     1       7.833   5.020  16.661  0.00  0.00    +0.000 OA
ATOM     18  C   UNL     1       6.704   4.580  16.911  0.00  0.00    +0.000 C 
ATOM     19  N   UNL     1       6.362   4.289  18.210  0.00  0.00    +0.000 N 
ATOM     20  H   UNL     1       7.080   4.444  18.910  0.00  0.00    +0.000 HD
BRANCH  18  21
ATOM     21  C   UNL     1       5.629   4.367  15.856  0.00  0.00    +0.000 C 
BRANCH  21  22
ATOM     22  C   UNL     1       6.142   4.319  14.435  0.00  0.00    +0.000 A 
ATOM     23  C   UNL     1       5.538   3.470  13.492  0.00  0.00    +0.000 A 
ATOM     24  C   UNL     1       6.036   3.384  12.190  0.00  0.00    +0.000 A 
ATOM     25  C   UNL     1       7.127   4.161  11.810  0.00  0.00    +0.000 A 
ATOM     26  C   UNL     1       7.714   5.030  12.727  0.00  0.00    +0.000 A 
ATOM     27  C   UNL     1       7.221   5.115  14.031  0.00  0.00    +0.000 A 
ENDBRANCH  21  22
ENDBRANCH  18  21
ENDBRANCH  15  19
ENDBRANCH   1  16
TORSDOF 6
ENDMDL
MODEL 9
REMARK VINA RESULT:      -7.7      1.014      1.400
REMARK  Name = 
REMARK  6 active torsions:
REMARK  status: ('A' for Active; 'I' for Inactive)
REMARK    1  A    between atoms: C_2  and  C_3
REMARK    2  A    between atoms: C_3  and  C_4
REMARK    3  A    between atoms: N_10  and  N_11
REMARK    4  A    between atoms: C_12  and  C_13
REMARK    5  A    between atoms: N_17  and  C_18
REMARK    6  A    between atoms: C_21  and  N_22
REMARK                            x       y       z     vdW  Elec       q    Type
REMARK                         _______ _______ _______ _____ _____    ______ ____
ROOT
ATOM      1  C   UNL     1       1.687   4.325  19.976  0.00  0.00    +0.000 A 
ATOM      2  C   UNL     1       0.763   3.301  20.110  0.00  0.00    +0.000 A 
ATOM      3  C   UNL     1       0.887   2.444  18.997  0.00  0.00    +0.000 A 
ATOM      4  C   UNL     1       1.881   2.961  18.203  0.00  0.00    +0.000 A 
ATOM      5  N   UNL     1       2.408   4.078  18.815  0.00  0.00    +0.000 N 
ENDROOT
BRANCH   5   6
ATOM      6  C   UNL     1       3.543   4.787  18.342  0.00  0.00    +0.000 A 
ATOM      7  C   UNL     1       4.828   4.295  18.606  0.00  0.00    +0.000 A 
ATOM      8  C   UNL     1       5.946   5.001  18.162  0.00  0.00    +0.000 A 
ATOM      9  C   UNL     1       5.773   6.215  17.481  0.00  0.00    +0.000 A 
ATOM     10  C   UNL     1       4.491   6.721  17.237  0.00  0.00    +0.000 A 
ATOM     11  C   UNL     1       3.377   6.002  17.663  0.00  0.00    +0.000 A 
BRANCH   9  12
ATOM     12  N   UNL     1       6.952   6.962  17.027  0.00  0.00    +0.000 N 
ATOM     13  O   UNL     1       7.093   8.119  17.425  0.00  0.00    +0.000 OA
ATOM     14  O   UNL     1       7.744   6.373  16.266  0.00  0.00    +0.000 OA
ENDBRANCH   9  12
ENDBRANCH   5   6
BRANCH   1  16
ATOM     15  N   UNL     1       1.382   6.621  20.489  0.00  0.00    +0.000 NA
ATOM     16  C   UNL     1       1.850   5.472  20.832  0.00  0.00    +0.000 C 
BRANCH  15  19
ATOM     17  O   UNL     1       1.667   9.821  21.900  0.00  0.00    +0.000 OA
ATOM     18  C   UNL     1       1.472   8.951  21.042  0.00  0.00    +0.000 C 
ATOM     19  N   UNL     1       1.577   7.624  21.388  0.00  0.00    +0.000 N 
ATOM     20  H   UNL     1       1.828   7.428  22.351  0.00  0.00    +0.000 HD
BRANCH  18  21
ATOM     21  C   UNL     1       1.081   9.255  19.605  0.00  0.00    +0.000 C 
BRANCH  21  22
ATOM     22  C   UNL     1      -0.127  10.152  19.456  0.00  0.00    +0.000 A 
ATOM     23  C   UNL     1      -0.883  10.132  18.272  0.00  0.00    +0.000 A 
ATOM     24  C   UNL     1      -1.972  10.992  18.109  0.00  0.00    +0.000 A 
ATOM     25  C   UNL     1      -2.329  11.864  19.134  0.00  0.00    +0.000 A 
ATOM     26  C   UNL     1      -1.606  11.869  20.325  0.00  0.00    +0.000 A 
ATOM     27  C   UNL     1      -0.515  11.014  20.489  0.00  0.00    +0.000 A 
ENDBRANCH  21  22
ENDBRANCH  18  21
ENDBRANCH  15  19
ENDBRANCH   1  16
TORSDOF 6
ENDMDL
