MODEL 1
REMARK VINA RESULT:      -9.1      0.000      0.000
REMARK  Name = 
REMARK  6 active torsions:
REMARK  status: ('A' for Active; 'I' for Inactive)
REMARK    1  A    between atoms: C_1  and  C_2
REMARK    2  A    between atoms: C_6  and  C_7
REMARK    3  A    between atoms: N_9  and  C_10
REMARK    4  A    between atoms: C_10  and  C_11
REMARK    5  A    between atoms: C_15  and  C_16
REMARK    6  A    between atoms: C_20  and  C_21
REMARK                            x       y       z     vdW  Elec       q    Type
REMARK                         _______ _______ _______ _____ _____    ______ ____
ROOT
ATOM      1  C   UNL     1       3.978   4.536  18.031  0.00  0.00    +0.000 A 
ATOM      2  N   UNL     1       5.053   3.883  17.541  0.00  0.00    +0.000 NA
ATOM      3  N   UNL     1       5.859   4.844  17.066  0.00  0.00    +0.000 N 
ATOM      4  C   UNL     1       5.327   6.095  17.158  0.00  0.00    +0.000 A 
ATOM      5  C   UNL     1       4.126   5.951  17.825  0.00  0.00    +0.000 A 
ENDROOT
BRANCH   5   6
ATOM      6  C   UNL     1       3.262   7.060  18.192  0.00  0.00    +0.000 A 
ATOM      7  C   UNL     1       2.943   8.068  17.296  0.00  0.00    +0.000 A 
ATOM      8  C   UNL     1       2.058   9.063  17.709  0.00  0.00    +0.000 A 
ATOM      9  C   UNL     1       1.493   9.040  18.973  0.00  0.00    +0.000 A 
ATOM     10  N   UNL     1       0.625  10.004  19.343  0.00  0.00    +0.000 NA
ATOM     11  C   UNL     1       0.094   9.918  20.579  0.00  0.00    +0.000 A 
ATOM     12  C   UNL     1       0.378   8.897  21.465  0.00  0.00    +0.000 A 
ATOM     13  C   UNL     1       1.276   7.914  21.059  0.00  0.00    +0.000 A 
ATOM     14  C   UNL     1       1.870   7.969  19.806  0.00  0.00    +0.000 A 
ATOM     15  N   UNL     1       2.745   7.014  19.438  0.00  0.00    +0.000 NA
ENDBRANCH   5   6
BRANCH   1  21
ATOM     16  C   UNL     1       1.903   2.618  21.966  0.00  0.00    +0.000 C 
ATOM     17  C   UNL     1       1.820   2.888  20.495  0.00  0.00    +0.000 A 
ATOM     18  C   UNL     1       0.740   2.427  19.749  0.00  0.00    +0.000 A 
ATOM     19  C   UNL     1       0.726   2.663  18.383  0.00  0.00    +0.000 A 
ATOM     20  C   UNL     1       1.797   3.333  17.804  0.00  0.00    +0.000 A 
ATOM     21  C   UNL     1       2.831   3.805  18.611  0.00  0.00    +0.000 A 
ATOM     22  N   UNL     1       2.852   3.577  19.950  0.00  0.00    +0.000 NA
ENDBRANCH   1  21
BRANCH   3  23
ATOM     23  C   UNL     1       7.138   4.487  16.459  0.00  0.00    +0.000 C 
BRANCH  23  24
ATOM     24  C   UNL     1       7.095   4.584  14.951  0.00  0.00    +0.000 A 
ATOM     25  C   UNL     1       8.048   5.352  14.260  0.00  0.00    +0.000 A 
ATOM     26  C   UNL     1       7.999   5.466  12.869  0.00  0.00    +0.000 A 
ATOM     27  C   UNL     1       7.011   4.800  12.149  0.00  0.00    +0.000 A 
ATOM     28  C   UNL     1       6.072   4.010  12.817  0.00  0.00    +0.000 A 
ATOM     29  C   UNL     1       6.116   3.901  14.214  0.00  0.00    +0.000 A 
BRANCH  28  30
ATOM     30  C   UNL     1       5.056   3.317  12.077  0.00  0.00    +0.000 C 
ATOM     31  N   UNL     1       4.241   2.752  11.480  0.00  0.00    +0.000 NA
ENDBRANCH  28  30
ENDBRANCH  23  24
ENDBRANCH   3  23
TORSDOF 5
ENDMDL
MODEL 2
REMARK VINA RESULT:      -8.4      2.587      5.459
REMARK  Name = 
REMARK  6 active torsions:
REMARK  status: ('A' for Active; 'I' for Inactive)
REMARK    1  A    between atoms: C_1  and  C_2
REMARK    2  A    between atoms: C_6  and  C_7
REMARK    3  A    between atoms: N_9  and  C_10
REMARK    4  A    between atoms: C_10  and  C_11
REMARK    5  A    between atoms: C_15  and  C_16
REMARK    6  A    between atoms: C_20  and  C_21
REMARK                            x       y       z     vdW  Elec       q    Type
REMARK                         _______ _______ _______ _____ _____    ______ ____
ROOT
ATOM      1  C   UNL     1       6.766   5.642  16.036  0.00  0.00    +0.000 A 
ATOM      2  N   UNL     1       7.438   5.527  14.870  0.00  0.00    +0.000 NA
ATOM      3  N   UNL     1       6.616   4.842  14.060  0.00  0.00    +0.000 N 
ATOM      4  C   UNL     1       5.464   4.441  14.667  0.00  0.00    +0.000 A 
ATOM      5  C   UNL     1       5.493   4.981  15.938  0.00  0.00    +0.000 A 
ENDROOT
BRANCH   5   6
ATOM      6  C   UNL     1       4.415   4.849  16.902  0.00  0.00    +0.000 A 
ATOM      7  C   UNL     1       3.798   5.953  17.468  0.00  0.00    +0.000 A 
ATOM      8  C   UNL     1       2.730   5.739  18.339  0.00  0.00    +0.000 A 
ATOM      9  C   UNL     1       2.280   4.459  18.619  0.00  0.00    +0.000 A 
ATOM     10  N   UNL     1       1.232   4.279  19.449  0.00  0.00    +0.000 NA
ATOM     11  C   UNL     1       0.827   3.012  19.669  0.00  0.00    +0.000 A 
ATOM     12  C   UNL     1       1.413   1.908  19.081  0.00  0.00    +0.000 A 
ATOM     13  C   UNL     1       2.491   2.122  18.226  0.00  0.00    +0.000 A 
ATOM     14  C   UNL     1       2.962   3.404  17.985  0.00  0.00    +0.000 A 
ATOM     15  N   UNL     1       4.014   3.586  17.164  0.00  0.00    +0.000 NA
ENDBRANCH   5   6
BRANCH   1  21
ATOM     16  C   UNL     1       8.519   9.715  17.988  0.00  0.00    +0.000 C 
ATOM     17  C   UNL     1       8.206   8.260  18.161  0.00  0.00    +0.000 A 
ATOM     18  C   UNL     1       8.517   7.604  19.348  0.00  0.00    +0.000 A 
ATOM     19  C   UNL     1       8.249   6.248  19.447  0.00  0.00    +0.000 A 
ATOM     20  C   UNL     1       7.696   5.588  18.357  0.00  0.00    +0.000 A 
ATOM     21  C   UNL     1       7.370   6.309  17.210  0.00  0.00    +0.000 A 
ATOM     22  N   UNL     1       7.631   7.638  17.103  0.00  0.00    +0.000 NA
ENDBRANCH   1  21
BRANCH   3  23
ATOM     23  C   UNL     1       7.029   4.538  12.693  0.00  0.00    +0.000 C 
BRANCH  23  24
ATOM     24  C   UNL     1       6.091   3.561  12.023  0.00  0.00    +0.000 A 
ATOM     25  C   UNL     1       4.859   3.998  11.507  0.00  0.00    +0.000 A 
ATOM     26  C   UNL     1       3.976   3.097  10.909  0.00  0.00    +0.000 A 
ATOM     27  C   UNL     1       4.320   1.753  10.800  0.00  0.00    +0.000 A 
ATOM     28  C   UNL     1       5.552   1.305  11.281  0.00  0.00    +0.000 A 
ATOM     29  C   UNL     1       6.436   2.208  11.889  0.00  0.00    +0.000 A 
BRANCH  28  30
ATOM     30  C   UNL     1       5.913  -0.080  11.164  0.00  0.00    +0.000 C 
ATOM     31  N   UNL     1       6.200  -1.197  11.076  0.00  0.00    +0.000 NA
ENDBRANCH  28  30
ENDBRANCH  23  24
ENDBRANCH   3  23
TORSDOF 5
ENDMDL
MODEL 3
REMARK VINA RESULT:      -8.1      3.902      7.908
REMARK  Name = 
REMARK  6 active torsions:
REMARK  status: ('A' for Active; 'I' for Inactive)
REMARK    1  A    between atoms: C_1  and  C_2
REMARK    2  A    between atoms: C_6  and  C_7
REMARK    3  A    between atoms: N_9  and  C_10
REMARK    4  A    between atoms: C_10  and  C_11
REMARK    5  A    between atoms: C_15  and  C_16
REMARK    6  A    between atoms: C_20  and  C_21
REMARK                            x       y       z     vdW  Elec       q    Type
REMARK                         _______ _______ _______ _____ _____    ______ ____
ROOT
ATOM      1  C   UNL     1      -0.761  10.522  18.296  0.00  0.00    +0.000 A 
ATOM      2  N   UNL     1       0.131   9.644  17.789  0.00  0.00    +0.000 NA
ATOM      3  N   UNL     1       1.205   9.736  18.589  0.00  0.00    +0.000 N 
ATOM      4  C   UNL     1       1.083  10.688  19.556  0.00  0.00    +0.000 A 
ATOM      5  C   UNL     1      -0.198  11.191  19.437  0.00  0.00    +0.000 A 
ENDROOT
BRANCH   5   6
ATOM      6  C   UNL     1      -0.765  12.191  20.327  0.00  0.00    +0.000 A 
ATOM      7  C   UNL     1      -0.653  13.547  20.070  0.00  0.00    +0.000 A 
ATOM      8  C   UNL     1      -1.278  14.438  20.942  0.00  0.00    +0.000 A 
ATOM      9  C   UNL     1      -2.009  13.984  22.027  0.00  0.00    +0.000 A 
ATOM     10  N   UNL     1      -2.620  14.865  22.846  0.00  0.00    +0.000 NA
ATOM     11  C   UNL     1      -3.333  14.364  23.874  0.00  0.00    +0.000 A 
ATOM     12  C   UNL     1      -3.480  13.012  24.116  0.00  0.00    +0.000 A 
ATOM     13  C   UNL     1      -2.840  12.124  23.256  0.00  0.00    +0.000 A 
ATOM     14  C   UNL     1      -2.075  12.588  22.197  0.00  0.00    +0.000 A 
ATOM     15  N   UNL     1      -1.455  11.711  21.384  0.00  0.00    +0.000 NA
ENDBRANCH   5   6
BRANCH   1  21
ATOM     16  C   UNL     1      -3.493  10.142  14.313  0.00  0.00    +0.000 C 
ATOM     17  C   UNL     1      -3.398  10.558  15.749  0.00  0.00    +0.000 A 
ATOM     18  C   UNL     1      -4.483  11.150  16.389  0.00  0.00    +0.000 A 
ATOM     19  C   UNL     1      -4.336  11.558  17.706  0.00  0.00    +0.000 A 
ATOM     20  C   UNL     1      -3.110  11.379  18.334  0.00  0.00    +0.000 A 
ATOM     21  C   UNL     1      -2.074  10.744  17.652  0.00  0.00    +0.000 A 
ATOM     22  N   UNL     1      -2.209  10.342  16.361  0.00  0.00    +0.000 NA
ENDBRANCH   1  21
BRANCH   3  23
ATOM     23  C   UNL     1       2.377   8.905  18.331  0.00  0.00    +0.000 C 
BRANCH  23  24
ATOM     24  C   UNL     1       2.209   7.505  18.873  0.00  0.00    +0.000 A 
ATOM     25  C   UNL     1       1.930   7.298  20.235  0.00  0.00    +0.000 A 
ATOM     26  C   UNL     1       1.799   6.005  20.748  0.00  0.00    +0.000 A 
ATOM     27  C   UNL     1       1.925   4.905  19.905  0.00  0.00    +0.000 A 
ATOM     28  C   UNL     1       2.175   5.092  18.543  0.00  0.00    +0.000 A 
ATOM     29  C   UNL     1       2.315   6.389  18.029  0.00  0.00    +0.000 A 
BRANCH  28  30
ATOM     30  C   UNL     1       2.300   3.959  17.670  0.00  0.00    +0.000 C 
ATOM     31  N   UNL     1       2.404   3.043  16.971  0.00  0.00    +0.000 NA
ENDBRANCH  28  30
ENDBRANCH  23  24
ENDBRANCH   3  23
TORSDOF 5
ENDMDL
MODEL 4
REMARK VINA RESULT:      -8.0      2.399      5.248
REMARK  Name = 
REMARK  6 active torsions:
REMARK  status: ('A' for Active; 'I' for Inactive)
REMARK    1  A    between atoms: C_1  and  C_2
REMARK    2  A    between atoms: C_6  and  C_7
REMARK    3  A    between atoms: N_9  and  C_10
REMARK    4  A    between atoms: C_10  and  C_11
REMARK    5  A    between atoms: C_15  and  C_16
REMARK    6  A    between atoms: C_20  and  C_21
REMARK                            x       y       z     vdW  Elec       q    Type
REMARK                         _______ _______ _______ _____ _____    ______ ____
ROOT
ATOM      1  C   UNL     1       6.749   5.489  16.074  0.00  0.00    +0.000 A 
ATOM      2  N   UNL     1       7.358   5.500  14.869  0.00  0.00    +0.000 NA
ATOM      3  N   UNL     1       6.576   4.752  14.075  0.00  0.00    +0.000 N 
ATOM      4  C   UNL     1       5.517   4.193  14.726  0.00  0.00    +0.000 A 
ATOM      5  C   UNL     1       5.559   4.685  16.017  0.00  0.00    +0.000 A 
ENDROOT
BRANCH   5   6
ATOM      6  C   UNL     1       4.563   4.387  17.032  0.00  0.00    +0.000 A 
ATOM      7  C   UNL     1       4.222   3.086  17.365  0.00  0.00    +0.000 A 
ATOM      8  C   UNL     1       3.301   2.887  18.393  0.00  0.00    +0.000 A 
ATOM      9  C   UNL     1       2.755   3.957  19.082  0.00  0.00    +0.000 A 
ATOM     10  N   UNL     1       1.881   3.738  20.086  0.00  0.00    +0.000 NA
ATOM     11  C   UNL     1       1.397   4.817  20.732  0.00  0.00    +0.000 A 
ATOM     12  C   UNL     1       1.759   6.116  20.432  0.00  0.00    +0.000 A 
ATOM     13  C   UNL     1       2.664   6.314  19.392  0.00  0.00    +0.000 A 
ATOM     14  C   UNL     1       3.174   5.239  18.679  0.00  0.00    +0.000 A 
ATOM     15  N   UNL     1       4.038   5.455  17.670  0.00  0.00    +0.000 NA
ENDBRANCH   5   6
BRANCH   1  21
ATOM     16  C   UNL     1       8.471   9.601  17.970  0.00  0.00    +0.000 C 
ATOM     17  C   UNL     1       8.161   8.149  18.166  0.00  0.00    +0.000 A 
ATOM     18  C   UNL     1       8.462   7.514  19.367  0.00  0.00    +0.000 A 
ATOM     19  C   UNL     1       8.196   6.159  19.488  0.00  0.00    +0.000 A 
ATOM     20  C   UNL     1       7.656   5.479  18.404  0.00  0.00    +0.000 A 
ATOM     21  C   UNL     1       7.339   6.178  17.241  0.00  0.00    +0.000 A 
ATOM     22  N   UNL     1       7.598   7.506  17.114  0.00  0.00    +0.000 NA
ENDBRANCH   1  21
BRANCH   3  23
ATOM     23  C   UNL     1       6.939   4.552  12.676  0.00  0.00    +0.000 C 
BRANCH  23  24
ATOM     24  C   UNL     1       6.023   3.565  11.989  0.00  0.00    +0.000 A 
ATOM     25  C   UNL     1       4.801   3.990  11.441  0.00  0.00    +0.000 A 
ATOM     26  C   UNL     1       3.939   3.079  10.828  0.00  0.00    +0.000 A 
ATOM     27  C   UNL     1       4.294   1.736  10.736  0.00  0.00    +0.000 A 
ATOM     28  C   UNL     1       5.517   1.300  11.251  0.00  0.00    +0.000 A 
ATOM     29  C   UNL     1       6.380   2.213  11.873  0.00  0.00    +0.000 A 
BRANCH  28  30
ATOM     30  C   UNL     1       5.890  -0.083  11.152  0.00  0.00    +0.000 C 
ATOM     31  N   UNL     1       6.186  -1.199  11.066  0.00  0.00    +0.000 NA
ENDBRANCH  28  30
ENDBRANCH  23  24
ENDBRANCH   3  23
TORSDOF 5
ENDMDL
MODEL 5
REMARK VINA RESULT:      -8.0      2.266      7.427
REMARK  Name = 
REMARK  6 active torsions:
REMARK  status: ('A' for Active; 'I' for Inactive)
REMARK    1  A    between atoms: C_1  and  C_2
REMARK    2  A    between atoms: C_6  and  C_7
REMARK    3  A    between atoms: N_9  and  C_10
REMARK    4  A    between atoms: C_10  and  C_11
REMARK    5  A    between atoms: C_15  and  C_16
REMARK    6  A    between atoms: C_20  and  C_21
REMARK                            x       y       z     vdW  Elec       q    Type
REMARK                         _______ _______ _______ _____ _____    ______ ____
ROOT
ATOM      1  C   UNL     1       1.699   6.432  20.246  0.00  0.00    +0.000 A 
ATOM      2  N   UNL     1       0.890   7.219  20.987  0.00  0.00    +0.000 NA
ATOM      3  N   UNL     1       1.136   8.469  20.565  0.00  0.00    +0.000 N 
ATOM      4  C   UNL     1       2.123   8.542  19.629  0.00  0.00    +0.000 A 
ATOM      5  C   UNL     1       2.485   7.238  19.352  0.00  0.00    +0.000 A 
ENDROOT
BRANCH   5   6
ATOM      6  C   UNL     1       3.470   6.863  18.352  0.00  0.00    +0.000 A 
ATOM      7  C   UNL     1       3.480   7.425  17.086  0.00  0.00    +0.000 A 
ATOM      8  C   UNL     1       4.496   7.054  16.206  0.00  0.00    +0.000 A 
ATOM      9  C   UNL     1       5.485   6.164  16.589  0.00  0.00    +0.000 A 
ATOM     10  N   UNL     1       6.469   5.836  15.727  0.00  0.00    +0.000 NA
ATOM     11  C   UNL     1       7.415   4.980  16.162  0.00  0.00    +0.000 A 
ATOM     12  C   UNL     1       7.434   4.443  17.435  0.00  0.00    +0.000 A 
ATOM     13  C   UNL     1       6.408   4.799  18.306  0.00  0.00    +0.000 A 
ATOM     14  C   UNL     1       5.397   5.658  17.900  0.00  0.00    +0.000 A 
ATOM     15  N   UNL     1       4.408   5.979  18.755  0.00  0.00    +0.000 NA
ENDBRANCH   5   6
BRANCH   1  21
ATOM     16  C   UNL     1       0.586   2.018  18.588  0.00  0.00    +0.000 C 
ATOM     17  C   UNL     1       1.228   2.843  19.661  0.00  0.00    +0.000 A 
ATOM     18  C   UNL     1       1.785   2.238  20.784  0.00  0.00    +0.000 A 
ATOM     19  C   UNL     1       2.329   3.044  21.772  0.00  0.00    +0.000 A 
ATOM     20  C   UNL     1       2.284   4.424  21.617  0.00  0.00    +0.000 A 
ATOM     21  C   UNL     1       1.749   4.968  20.452  0.00  0.00    +0.000 A 
ATOM     22  N   UNL     1       1.212   4.186  19.479  0.00  0.00    +0.000 NA
ENDBRANCH   1  21
BRANCH   3  23
ATOM     23  C   UNL     1       0.416   9.592  21.158  0.00  0.00    +0.000 C 
BRANCH  23  24
ATOM     24  C   UNL     1      -0.190  10.494  20.108  0.00  0.00    +0.000 A 
ATOM     25  C   UNL     1      -0.056  11.889  20.205  0.00  0.00    +0.000 A 
ATOM     26  C   UNL     1      -0.636  12.729  19.252  0.00  0.00    +0.000 A 
ATOM     27  C   UNL     1      -1.340  12.187  18.181  0.00  0.00    +0.000 A 
ATOM     28  C   UNL     1      -1.460  10.801  18.053  0.00  0.00    +0.000 A 
ATOM     29  C   UNL     1      -0.885   9.957  19.014  0.00  0.00    +0.000 A 
BRANCH  28  30
ATOM     30  C   UNL     1      -2.180  10.238  16.946  0.00  0.00    +0.000 C 
ATOM     31  N   UNL     1      -2.763   9.791  16.051  0.00  0.00    +0.000 NA
ENDBRANCH  28  30
ENDBRANCH  23  24
ENDBRANCH   3  23
TORSDOF 5
ENDMDL
MODEL 6
REMARK VINA RESULT:      -7.9      4.296      8.316
REMARK  Name = 
REMARK  6 active torsions:
REMARK  status: ('A' for Active; 'I' for Inactive)
REMARK    1  A    between atoms: C_1  and  C_2
REMARK    2  A    between atoms: C_6  and  C_7
REMARK    3  A    between atoms: N_9  and  C_10
REMARK    4  A    between atoms: C_10  and  C_11
REMARK    5  A    between atoms: C_15  and  C_16
REMARK    6  A    between atoms: C_20  and  C_21
REMARK                            x       y       z     vdW  Elec       q    Type
REMARK                         _______ _______ _______ _____ _____    ______ ____
ROOT
ATOM      1  C   UNL     1      -0.848  10.656  19.279  0.00  0.00    +0.000 A 
ATOM      2  N   UNL     1      -0.592   9.455  19.840  0.00  0.00    +0.000 NA
ATOM      3  N   UNL     1       0.553   9.624  20.518  0.00  0.00    +0.000 N 
ATOM      4  C   UNL     1       1.097  10.864  20.367  0.00  0.00    +0.000 A 
ATOM      5  C   UNL     1       0.195  11.588  19.611  0.00  0.00    +0.000 A 
ENDROOT
BRANCH   5   6
ATOM      6  C   UNL     1       0.360  12.991  19.271  0.00  0.00    +0.000 A 
ATOM      7  C   UNL     1      -0.608  13.936  19.570  0.00  0.00    +0.000 A 
ATOM      8  C   UNL     1      -0.344  15.270  19.265  0.00  0.00    +0.000 A 
ATOM      9  C   UNL     1       0.860  15.651  18.697  0.00  0.00    +0.000 A 
ATOM     10  N   UNL     1       1.099  16.951  18.428  0.00  0.00    +0.000 NA
ATOM     11  C   UNL     1       2.296  17.263  17.893  0.00  0.00    +0.000 A 
ATOM     12  C   UNL     1       3.281  16.332  17.626  0.00  0.00    +0.000 A 
ATOM     13  C   UNL     1       3.010  14.997  17.913  0.00  0.00    +0.000 A 
ATOM     14  C   UNL     1       1.785  14.620  18.443  0.00  0.00    +0.000 A 
ATOM     15  N   UNL     1       1.539  13.322  18.702  0.00  0.00    +0.000 NA
ENDBRANCH   5   6
BRANCH   1  21
ATOM     16  C   UNL     1      -2.852  10.099  14.903  0.00  0.00    +0.000 C 
ATOM     17  C   UNL     1      -2.999  10.593  16.310  0.00  0.00    +0.000 A 
ATOM     18  C   UNL     1      -4.163  11.237  16.718  0.00  0.00    +0.000 A 
ATOM     19  C   UNL     1      -4.238  11.715  18.017  0.00  0.00    +0.000 A 
ATOM     20  C   UNL     1      -3.145  11.551  18.859  0.00  0.00    +0.000 A 
ATOM     21  C   UNL     1      -2.023  10.863  18.404  0.00  0.00    +0.000 A 
ATOM     22  N   UNL     1      -1.941  10.392  17.132  0.00  0.00    +0.000 NA
ENDBRANCH   1  21
BRANCH   3  23
ATOM     23  C   UNL     1       1.129   8.509  21.263  0.00  0.00    +0.000 C 
BRANCH  23  24
ATOM     24  C   UNL     1       1.634   7.417  20.347  0.00  0.00    +0.000 A 
ATOM     25  C   UNL     1       2.246   7.741  19.124  0.00  0.00    +0.000 A 
ATOM     26  C   UNL     1       2.693   6.737  18.262  0.00  0.00    +0.000 A 
ATOM     27  C   UNL     1       2.550   5.399  18.618  0.00  0.00    +0.000 A 
ATOM     28  C   UNL     1       1.969   5.059  19.841  0.00  0.00    +0.000 A 
ATOM     29  C   UNL     1       1.514   6.066  20.704  0.00  0.00    +0.000 A 
BRANCH  28  30
ATOM     30  C   UNL     1       1.827   3.680  20.214  0.00  0.00    +0.000 C 
ATOM     31  N   UNL     1       1.716   2.566  20.509  0.00  0.00    +0.000 NA
ENDBRANCH  28  30
ENDBRANCH  23  24
ENDBRANCH   3  23
TORSDOF 5
ENDMDL
MODEL 7
REMARK VINA RESULT:      -7.9      2.417      5.235
REMARK  Name = 
REMARK  6 active torsions:
REMARK  status: ('A' for Active; 'I' for Inactive)
REMARK    1  A    between atoms: C_1  and  C_2
REMARK    2  A    between atoms: C_6  and  C_7
REMARK    3  A    between atoms: N_9  and  C_10
REMARK    4  A    between atoms: C_10  and  C_11
REMARK    5  A    between atoms: C_15  and  C_16
REMARK    6  A    between atoms: C_20  and  C_21
REMARK                            x       y       z     vdW  Elec       q    Type
REMARK                         _______ _______ _______ _____ _____    ______ ____
ROOT
ATOM      1  C   UNL     1       6.690   5.250  15.949  0.00  0.00    +0.000 A 
ATOM      2  N   UNL     1       7.325   5.224  14.758  0.00  0.00    +0.000 NA
ATOM      3  N   UNL     1       6.537   4.490  13.958  0.00  0.00    +0.000 N 
ATOM      4  C   UNL     1       5.448   3.973  14.592  0.00  0.00    +0.000 A 
ATOM      5  C   UNL     1       5.477   4.482  15.876  0.00  0.00    +0.000 A 
ENDROOT
BRANCH   5   6
ATOM      6  C   UNL     1       4.450   4.230  16.873  0.00  0.00    +0.000 A 
ATOM      7  C   UNL     1       3.968   2.956  17.122  0.00  0.00    +0.000 A 
ATOM      8  C   UNL     1       3.027   2.793  18.138  0.00  0.00    +0.000 A 
ATOM      9  C   UNL     1       2.598   3.869  18.897  0.00  0.00    +0.000 A 
ATOM     10  N   UNL     1       1.701   3.682  19.887  0.00  0.00    +0.000 NA
ATOM     11  C   UNL     1       1.335   4.764  20.603  0.00  0.00    +0.000 A 
ATOM     12  C   UNL     1       1.839   6.032  20.386  0.00  0.00    +0.000 A 
ATOM     13  C   UNL     1       2.763   6.197  19.359  0.00  0.00    +0.000 A 
ATOM     14  C   UNL     1       3.156   5.121  18.576  0.00  0.00    +0.000 A 
ATOM     15  N   UNL     1       4.043   5.306  17.580  0.00  0.00    +0.000 NA
ENDBRANCH   5   6
BRANCH   1  21
ATOM     16  C   UNL     1       8.301   9.384  17.894  0.00  0.00    +0.000 C 
ATOM     17  C   UNL     1       8.044   7.918  18.067  0.00  0.00    +0.000 A 
ATOM     18  C   UNL     1       8.387   7.273  19.252  0.00  0.00    +0.000 A 
ATOM     19  C   UNL     1       8.171   5.908  19.351  0.00  0.00    +0.000 A 
ATOM     20  C   UNL     1       7.636   5.229  18.263  0.00  0.00    +0.000 A 
ATOM     21  C   UNL     1       7.276   5.938  17.119  0.00  0.00    +0.000 A 
ATOM     22  N   UNL     1       7.487   7.276  17.013  0.00  0.00    +0.000 NA
ENDBRANCH   1  21
BRANCH   3  23
ATOM     23  C   UNL     1       6.925   4.258  12.569  0.00  0.00    +0.000 C 
BRANCH  23  24
ATOM     24  C   UNL     1       5.851   3.527  11.797  0.00  0.00    +0.000 A 
ATOM     25  C   UNL     1       5.830   2.122  11.762  0.00  0.00    +0.000 A 
ATOM     26  C   UNL     1       4.856   1.440  11.030  0.00  0.00    +0.000 A 
ATOM     27  C   UNL     1       3.879   2.151  10.339  0.00  0.00    +0.000 A 
ATOM     28  C   UNL     1       3.867   3.547  10.384  0.00  0.00    +0.000 A 
ATOM     29  C   UNL     1       4.849   4.233  11.113  0.00  0.00    +0.000 A 
BRANCH  28  30
ATOM     30  C   UNL     1       2.857   4.284   9.679  0.00  0.00    +0.000 C 
ATOM     31  N   UNL     1       2.048   4.882   9.106  0.00  0.00    +0.000 NA
ENDBRANCH  28  30
ENDBRANCH  23  24
ENDBRANCH   3  23
TORSDOF 5
ENDMDL
MODEL 8
REMARK VINA RESULT:      -7.8      4.462      8.384
REMARK  Name = 
REMARK  6 active torsions:
REMARK  status: ('A' for Active; 'I' for Inactive)
REMARK    1  A    between atoms: C_1  and  C_2
REMARK    2  A    between atoms: C_6  and  C_7
REMARK    3  A    between atoms: N_9  and  C_10
REMARK    4  A    between atoms: C_10  and  C_11
REMARK    5  A    between atoms: C_15  and  C_16
REMARK    6  A    between atoms: C_20  and  C_21
REMARK                            x       y       z     vdW  Elec       q    Type
REMARK                         _______ _______ _______ _____ _____    ______ ____
ROOT
ATOM      1  C   UNL     1      -0.762  10.595  19.276  0.00  0.00    +0.000 A 
ATOM      2  N   UNL     1      -0.451   9.412  19.848  0.00  0.00    +0.000 NA
ATOM      3  N   UNL     1       0.625   9.664  20.609  0.00  0.00    +0.000 N 
ATOM      4  C   UNL     1       1.076  10.945  20.506  0.00  0.00    +0.000 A 
ATOM      5  C   UNL     1       0.177  11.603  19.690  0.00  0.00    +0.000 A 
ENDROOT
BRANCH   5   6
ATOM      6  C   UNL     1       0.252  13.018  19.371  0.00  0.00    +0.000 A 
ATOM      7  C   UNL     1      -0.765  13.899  19.700  0.00  0.00    +0.000 A 
ATOM      8  C   UNL     1      -0.587  15.252  19.413  0.00  0.00    +0.000 A 
ATOM      9  C   UNL     1       0.584  15.713  18.835  0.00  0.00    +0.000 A 
ATOM     10  N   UNL     1       0.741  17.029  18.585  0.00  0.00    +0.000 NA
ATOM     11  C   UNL     1       1.909  17.420  18.037  0.00  0.00    +0.000 A 
ATOM     12  C   UNL     1       2.943  16.555  17.740  0.00  0.00    +0.000 A 
ATOM     13  C   UNL     1       2.756  15.201  18.009  0.00  0.00    +0.000 A 
ATOM     14  C   UNL     1       1.564  14.743  18.550  0.00  0.00    +0.000 A 
ATOM     15  N   UNL     1       1.401  13.428  18.791  0.00  0.00    +0.000 NA
ENDBRANCH   5   6
BRANCH   1  21
ATOM     16  C   UNL     1      -5.248  12.199  18.397  0.00  0.00    +0.000 C 
ATOM     17  C   UNL     1      -4.033  11.490  17.882  0.00  0.00    +0.000 A 
ATOM     18  C   UNL     1      -4.013  10.958  16.597  0.00  0.00    +0.000 A 
ATOM     19  C   UNL     1      -2.883  10.273  16.178  0.00  0.00    +0.000 A 
ATOM     20  C   UNL     1      -1.818  10.127  17.059  0.00  0.00    +0.000 A 
ATOM     21  C   UNL     1      -1.882  10.717  18.319  0.00  0.00    +0.000 A 
ATOM     22  N   UNL     1      -2.987  11.388  18.738  0.00  0.00    +0.000 NA
ENDBRANCH   1  21
BRANCH   3  23
ATOM     23  C   UNL     1       1.233   8.589  21.388  0.00  0.00    +0.000 C 
BRANCH  23  24
ATOM     24  C   UNL     1       1.641   7.422  20.518  0.00  0.00    +0.000 A 
ATOM     25  C   UNL     1       2.270   7.642  19.281  0.00  0.00    +0.000 A 
ATOM     26  C   UNL     1       2.628   6.569  18.462  0.00  0.00    +0.000 A 
ATOM     27  C   UNL     1       2.379   5.264  18.875  0.00  0.00    +0.000 A 
ATOM     28  C   UNL     1       1.780   5.024  20.114  0.00  0.00    +0.000 A 
ATOM     29  C   UNL     1       1.414   6.101  20.934  0.00  0.00    +0.000 A 
BRANCH  28  30
ATOM     30  C   UNL     1       1.528   3.679  20.547  0.00  0.00    +0.000 C 
ATOM     31  N   UNL     1       1.318   2.594  20.892  0.00  0.00    +0.000 NA
ENDBRANCH  28  30
ENDBRANCH  23  24
ENDBRANCH   3  23
TORSDOF 5
ENDMDL
MODEL 9
REMARK VINA RESULT:      -7.8      3.872      7.858
REMARK  Name = 
REMARK  6 active torsions:
REMARK  status: ('A' for Active; 'I' for Inactive)
REMARK    1  A    between atoms: C_1  and  C_2
REMARK    2  A    between atoms: C_6  and  C_7
REMARK    3  A    between atoms: N_9  and  C_10
REMARK    4  A    between atoms: C_10  and  C_11
REMARK    5  A    between atoms: C_15  and  C_16
REMARK    6  A    between atoms: C_20  and  C_21
REMARK                            x       y       z     vdW  Elec       q    Type
REMARK                         _______ _______ _______ _____ _____    ______ ____
ROOT
ATOM      1  C   UNL     1      -0.756  10.502  18.221  0.00  0.00    +0.000 A 
ATOM      2  N   UNL     1       0.113   9.610  17.700  0.00  0.00    +0.000 NA
ATOM      3  N   UNL     1       1.203   9.689  18.478  0.00  0.00    +0.000 N 
ATOM      4  C   UNL     1       1.113  10.646  19.444  0.00  0.00    +0.000 A 
ATOM      5  C   UNL     1      -0.163  11.166  19.349  0.00  0.00    +0.000 A 
ENDROOT
BRANCH   5   6
ATOM      6  C   UNL     1      -0.697  12.176  20.247  0.00  0.00    +0.000 A 
ATOM      7  C   UNL     1      -0.564  13.531  19.989  0.00  0.00    +0.000 A 
ATOM      8  C   UNL     1      -1.159  14.433  20.870  0.00  0.00    +0.000 A 
ATOM      9  C   UNL     1      -1.884  13.993  21.964  0.00  0.00    +0.000 A 
ATOM     10  N   UNL     1      -2.467  14.885  22.791  0.00  0.00    +0.000 NA
ATOM     11  C   UNL     1      -3.175  14.396  23.829  0.00  0.00    +0.000 A 
ATOM     12  C   UNL     1      -3.344  13.047  24.073  0.00  0.00    +0.000 A 
ATOM     13  C   UNL     1      -2.734  12.148  23.204  0.00  0.00    +0.000 A 
ATOM     14  C   UNL     1      -1.974  12.598  22.134  0.00  0.00    +0.000 A 
ATOM     15  N   UNL     1      -1.382  11.710  21.313  0.00  0.00    +0.000 NA
ENDBRANCH   5   6
BRANCH   1  21
ATOM     16  C   UNL     1      -5.303  12.092  18.746  0.00  0.00    +0.000 C 
ATOM     17  C   UNL     1      -4.261  11.509  17.841  0.00  0.00    +0.000 A 
ATOM     18  C   UNL     1      -4.568  11.186  16.522  0.00  0.00    +0.000 A 
ATOM     19  C   UNL     1      -3.586  10.608  15.734  0.00  0.00    +0.000 A 
ATOM     20  C   UNL     1      -2.337  10.357  16.289  0.00  0.00    +0.000 A 
ATOM     21  C   UNL     1      -2.079  10.740  17.603  0.00  0.00    +0.000 A 
ATOM     22  N   UNL     1      -3.037  11.305  18.384  0.00  0.00    +0.000 NA
ENDBRANCH   1  21
BRANCH   3  23
ATOM     23  C   UNL     1       2.359   8.842  18.199  0.00  0.00    +0.000 C 
BRANCH  23  24
ATOM     24  C   UNL     1       2.199   7.457  18.784  0.00  0.00    +0.000 A 
ATOM     25  C   UNL     1       1.914   7.290  20.149  0.00  0.00    +0.000 A 
ATOM     26  C   UNL     1       1.790   6.013  20.701  0.00  0.00    +0.000 A 
ATOM     27  C   UNL     1       1.931   4.888  19.893  0.00  0.00    +0.000 A 
ATOM     28  C   UNL     1       2.188   5.035  18.528  0.00  0.00    +0.000 A 
ATOM     29  C   UNL     1       2.319   6.317  17.975  0.00  0.00    +0.000 A 
BRANCH  28  30
ATOM     30  C   UNL     1       2.327   3.878  17.691  0.00  0.00    +0.000 C 
ATOM     31  N   UNL     1       2.433   2.946  17.012  0.00  0.00    +0.000 NA
ENDBRANCH  28  30
ENDBRANCH  23  24
ENDBRANCH   3  23
TORSDOF 5
ENDMDL
