MODEL 1
REMARK VINA RESULT:      -8.3      0.000      0.000
REMARK  Name = 
REMARK  7 active torsions:
REMARK  status: ('A' for Active; 'I' for Inactive)
REMARK    1  A    between atoms: C_1  and  C_2
REMARK    2  A    between atoms: C_8  and  C_9
REMARK    3  A    between atoms: C_10  and  O_11
REMARK    4  A    between atoms: O_11  and  C_12
REMARK    5  A    between atoms: C_12  and  C_13
REMARK    6  A    between atoms: N_18  and  C_19
REMARK    7  A    between atoms: C_19  and  C_20
REMARK                            x       y       z     vdW  Elec       q    Type
REMARK                         _______ _______ _______ _____ _____    ______ ____
ROOT
ATOM      1  C   UNL     1       8.360   8.487  18.242  0.00  0.00    +0.000 C 
ENDROOT
BRANCH   1   2
ATOM      2  C   UNL     1       7.927   7.052  18.579  0.00  0.00    +0.000 C 
ATOM      3  O   UNL     1       8.620   6.354  19.322  0.00  0.00    +0.000 OA
ATOM      4  N   UNL     1       6.701   6.609  18.083  0.00  0.00    +0.000 N 
ATOM      5  C   UNL     1       5.835   7.374  17.178  0.00  0.00    +0.000 C 
ATOM      6  C   UNL     1       4.981   6.483  16.254  0.00  0.00    +0.000 C 
ATOM      7  N   UNL     1       4.280   5.372  16.927  0.00  0.00    +0.000 NA
ATOM      8  C   UNL     1       5.279   4.601  17.703  0.00  0.00    +0.000 C 
ATOM      9  C   UNL     1       6.077   5.442  18.715  0.00  0.00    +0.000 C 
BRANCH   7  10
ATOM     10  C   UNL     1       3.173   5.892  17.748  0.00  0.00    +0.000 C 
BRANCH  10  11
ATOM     11  C   UNL     1       2.409   4.843  18.523  0.00  0.00    +0.000 A 
ATOM     12  C   UNL     1       2.262   4.961  19.913  0.00  0.00    +0.000 A 
ATOM     13  C   UNL     1       1.486   4.043  20.623  0.00  0.00    +0.000 A 
ATOM     14  C   UNL     1       0.853   2.999  19.952  0.00  0.00    +0.000 A 
ATOM     15  C   UNL     1       1.013   2.857  18.574  0.00  0.00    +0.000 A 
ATOM     16  C   UNL     1       1.793   3.771  17.863  0.00  0.00    +0.000 A 
ENDBRANCH  10  11
ENDBRANCH   7  10
ENDBRANCH   1   2
BRANCH   1  17
ATOM     17  O   UNL     1       9.001   9.171  19.306  0.00  0.00    +0.000 OA
BRANCH  17  27
ATOM     18  C   UNL     1      11.199  14.956  17.008  0.00  0.00    +0.000 C 
ATOM     19  C   UNL     1      10.860  14.453  18.383  0.00  0.00    +0.000 A 
ATOM     20  C   UNL     1      10.947  15.250  19.456  0.00  0.00    +0.000 A 
ATOM     21  C   UNL     1      10.594  14.814  20.807  0.00  0.00    +0.000 A 
ATOM     22  O   UNL     1      10.731  15.566  21.770  0.00  0.00    +0.000 OA
ATOM     23  O   UNL     1      10.073  13.534  20.940  0.00  0.00    +0.000 OA
ATOM     24  C   UNL     1       9.989  12.647  19.843  0.00  0.00    +0.000 A 
ATOM     25  C   UNL     1       9.499  11.346  20.090  0.00  0.00    +0.000 A 
ATOM     26  C   UNL     1       9.018  10.929  21.454  0.00  0.00    +0.000 C 
ATOM     27  C   UNL     1       9.457  10.437  19.021  0.00  0.00    +0.000 A 
ATOM     28  C   UNL     1       9.892  10.847  17.750  0.00  0.00    +0.000 A 
ATOM     29  C   UNL     1      10.352  12.147  17.533  0.00  0.00    +0.000 A 
ATOM     30  C   UNL     1      10.400  13.077  18.572  0.00  0.00    +0.000 A 
ENDBRANCH  17  27
ENDBRANCH   1  17
TORSDOF 5
ENDMDL
MODEL 2
REMARK VINA RESULT:      -8.2      6.478      8.666
REMARK  Name = 
REMARK  7 active torsions:
REMARK  status: ('A' for Active; 'I' for Inactive)
REMARK    1  A    between atoms: C_1  and  C_2
REMARK    2  A    between atoms: C_8  and  C_9
REMARK    3  A    between atoms: C_10  and  O_11
REMARK    4  A    between atoms: O_11  and  C_12
REMARK    5  A    between atoms: C_12  and  C_13
REMARK    6  A    between atoms: N_18  and  C_19
REMARK    7  A    between atoms: C_19  and  C_20
REMARK                            x       y       z     vdW  Elec       q    Type
REMARK                         _______ _______ _______ _____ _____    ______ ____
ROOT
ATOM      1  C   UNL     1       1.813   6.060  20.064  0.00  0.00    +0.000 C 
ENDROOT
BRANCH   1   2
ATOM      2  C   UNL     1       2.904   4.979  19.994  0.00  0.00    +0.000 C 
ATOM      3  O   UNL     1       2.971   4.110  20.866  0.00  0.00    +0.000 OA
ATOM      4  N   UNL     1       3.748   4.977  18.884  0.00  0.00    +0.000 N 
ATOM      5  C   UNL     1       3.740   5.989  17.821  0.00  0.00    +0.000 C 
ATOM      6  C   UNL     1       5.117   6.184  17.157  0.00  0.00    +0.000 C 
ATOM      7  N   UNL     1       5.808   4.939  16.767  0.00  0.00    +0.000 NA
ATOM      8  C   UNL     1       5.866   4.055  17.955  0.00  0.00    +0.000 C 
ATOM      9  C   UNL     1       4.493   3.751  18.581  0.00  0.00    +0.000 C 
BRANCH   7  10
ATOM     10  C   UNL     1       5.136   4.326  15.609  0.00  0.00    +0.000 C 
BRANCH  10  11
ATOM     11  C   UNL     1       5.960   4.288  14.343  0.00  0.00    +0.000 A 
ATOM     12  C   UNL     1       5.555   3.493  13.261  0.00  0.00    +0.000 A 
ATOM     13  C   UNL     1       6.263   3.520  12.059  0.00  0.00    +0.000 A 
ATOM     14  C   UNL     1       7.382   4.340  11.926  0.00  0.00    +0.000 A 
ATOM     15  C   UNL     1       7.808   5.116  13.004  0.00  0.00    +0.000 A 
ATOM     16  C   UNL     1       7.105   5.086  14.209  0.00  0.00    +0.000 A 
ENDBRANCH  10  11
ENDBRANCH   7  10
ENDBRANCH   1   2
BRANCH   1  17
ATOM     17  O   UNL     1       2.298   7.388  19.955  0.00  0.00    +0.000 OA
BRANCH  17  27
ATOM     18  C   UNL     1      -1.690  11.670  23.011  0.00  0.00    +0.000 C 
ATOM     19  C   UNL     1      -1.161  11.573  21.608  0.00  0.00    +0.000 A 
ATOM     20  C   UNL     1      -1.456  12.500  20.688  0.00  0.00    +0.000 A 
ATOM     21  C   UNL     1      -0.936  12.465  19.322  0.00  0.00    +0.000 A 
ATOM     22  O   UNL     1      -1.269  13.314  18.496  0.00  0.00    +0.000 OA
ATOM     23  O   UNL     1      -0.034  11.454  19.016  0.00  0.00    +0.000 OA
ATOM     24  C   UNL     1       0.286  10.438  19.944  0.00  0.00    +0.000 A 
ATOM     25  C   UNL     1       1.169   9.420  19.520  0.00  0.00    +0.000 A 
ATOM     26  C   UNL     1       1.805   9.444  18.157  0.00  0.00    +0.000 C 
ATOM     27  C   UNL     1       1.457   8.375  20.413  0.00  0.00    +0.000 A 
ATOM     28  C   UNL     1       0.870   8.377  21.689  0.00  0.00    +0.000 A 
ATOM     29  C   UNL     1       0.017   9.408  22.086  0.00  0.00    +0.000 A 
ATOM     30  C   UNL     1      -0.285  10.466  21.226  0.00  0.00    +0.000 A 
ENDBRANCH  17  27
ENDBRANCH   1  17
TORSDOF 5
ENDMDL
MODEL 3
REMARK VINA RESULT:      -8.1      6.795     10.897
REMARK  Name = 
REMARK  7 active torsions:
REMARK  status: ('A' for Active; 'I' for Inactive)
REMARK    1  A    between atoms: C_1  and  C_2
REMARK    2  A    between atoms: C_8  and  C_9
REMARK    3  A    between atoms: C_10  and  O_11
REMARK    4  A    between atoms: O_11  and  C_12
REMARK    5  A    between atoms: C_12  and  C_13
REMARK    6  A    between atoms: N_18  and  C_19
REMARK    7  A    between atoms: C_19  and  C_20
REMARK                            x       y       z     vdW  Elec       q    Type
REMARK                         _______ _______ _______ _____ _____    ______ ____
ROOT
ATOM      1  C   UNL     1       1.488   9.238  18.303  0.00  0.00    +0.000 C 
ENDROOT
BRANCH   1   2
ATOM      2  C   UNL     1       1.569  10.718  18.708  0.00  0.00    +0.000 C 
ATOM      3  O   UNL     1       2.361  11.473  18.141  0.00  0.00    +0.000 OA
ATOM      4  N   UNL     1       0.671  11.179  19.672  0.00  0.00    +0.000 N 
ATOM      5  C   UNL     1      -0.283  10.336  20.402  0.00  0.00    +0.000 C 
ATOM      6  C   UNL     1      -0.615  10.872  21.809  0.00  0.00    +0.000 C 
ATOM      7  N   UNL     1      -0.945  12.309  21.871  0.00  0.00    +0.000 NA
ATOM      8  C   UNL     1       0.151  13.061  21.216  0.00  0.00    +0.000 C 
ATOM      9  C   UNL     1       0.438  12.623  19.769  0.00  0.00    +0.000 C 
BRANCH   7  10
ATOM     10  C   UNL     1      -2.267  12.553  21.269  0.00  0.00    +0.000 C 
BRANCH  10  11
ATOM     11  C   UNL     1      -3.416  12.588  22.251  0.00  0.00    +0.000 A 
ATOM     12  C   UNL     1      -3.178  12.406  23.621  0.00  0.00    +0.000 A 
ATOM     13  C   UNL     1      -4.221  12.522  24.542  0.00  0.00    +0.000 A 
ATOM     14  C   UNL     1      -5.509  12.820  24.102  0.00  0.00    +0.000 A 
ATOM     15  C   UNL     1      -5.761  12.977  22.740  0.00  0.00    +0.000 A 
ATOM     16  C   UNL     1      -4.721  12.856  21.817  0.00  0.00    +0.000 A 
ENDBRANCH  10  11
ENDBRANCH   7  10
ENDBRANCH   1   2
BRANCH   1  17
ATOM     17  O   UNL     1       2.673   8.498  18.550  0.00  0.00    +0.000 OA
BRANCH  17  27
ATOM     18  C   UNL     1       1.262   2.799  21.567  0.00  0.00    +0.000 C 
ATOM     19  C   UNL     1       2.091   3.153  20.365  0.00  0.00    +0.000 A 
ATOM     20  C   UNL     1       2.704   2.208  19.641  0.00  0.00    +0.000 A 
ATOM     21  C   UNL     1       3.492   2.502  18.444  0.00  0.00    +0.000 A 
ATOM     22  O   UNL     1       4.075   1.607  17.835  0.00  0.00    +0.000 OA
ATOM     23  O   UNL     1       3.522   3.824  18.019  0.00  0.00    +0.000 OA
ATOM     24  C   UNL     1       2.915   4.859  18.765  0.00  0.00    +0.000 A 
ATOM     25  C   UNL     1       3.050   6.179  18.281  0.00  0.00    +0.000 A 
ATOM     26  C   UNL     1       3.754   6.476  16.985  0.00  0.00    +0.000 C 
ATOM     27  C   UNL     1       2.496   7.224  19.038  0.00  0.00    +0.000 A 
ATOM     28  C   UNL     1       1.826   6.928  20.236  0.00  0.00    +0.000 A 
ATOM     29  C   UNL     1       1.692   5.611  20.677  0.00  0.00    +0.000 A 
ATOM     30  C   UNL     1       2.224   4.548  19.946  0.00  0.00    +0.000 A 
ENDBRANCH  17  27
ENDBRANCH   1  17
TORSDOF 5
ENDMDL
MODEL 4
REMARK VINA RESULT:      -8.1      6.894     10.916
REMARK  Name = 
REMARK  7 active torsions:
REMARK  status: ('A' for Active; 'I' for Inactive)
REMARK    1  A    between atoms: C_1  and  C_2
REMARK    2  A    between atoms: C_8  and  C_9
REMARK    3  A    between atoms: C_10  and  O_11
REMARK    4  A    between atoms: O_11  and  C_12
REMARK    5  A    between atoms: C_12  and  C_13
REMARK    6  A    between atoms: N_18  and  C_19
REMARK    7  A    between atoms: C_19  and  C_20
REMARK                            x       y       z     vdW  Elec       q    Type
REMARK                         _______ _______ _______ _____ _____    ______ ____
ROOT
ATOM      1  C   UNL     1       1.500   8.997  20.677  0.00  0.00    +0.000 C 
ENDROOT
BRANCH   1   2
ATOM      2  C   UNL     1       0.204   9.713  21.088  0.00  0.00    +0.000 C 
ATOM      3  O   UNL     1      -0.535   9.215  21.940  0.00  0.00    +0.000 OA
ATOM      4  N   UNL     1      -0.056  10.962  20.525  0.00  0.00    +0.000 N 
ATOM      5  C   UNL     1       0.765  11.605  19.492  0.00  0.00    +0.000 C 
ATOM      6  C   UNL     1      -0.040  12.543  18.571  0.00  0.00    +0.000 C 
ATOM      7  N   UNL     1      -0.940  13.485  19.267  0.00  0.00    +0.000 NA
ATOM      8  C   UNL     1      -1.803  12.703  20.184  0.00  0.00    +0.000 C 
ATOM      9  C   UNL     1      -1.028  11.835  21.191  0.00  0.00    +0.000 C 
BRANCH   7  10
ATOM     10  C   UNL     1      -0.156  14.530  19.946  0.00  0.00    +0.000 C 
BRANCH  10  11
ATOM     11  C   UNL     1       0.312  15.655  19.051  0.00  0.00    +0.000 A 
ATOM     12  C   UNL     1      -0.616  16.556  18.507  0.00  0.00    +0.000 A 
ATOM     13  C   UNL     1      -0.184  17.646  17.752  0.00  0.00    +0.000 A 
ATOM     14  C   UNL     1       1.177  17.848  17.532  0.00  0.00    +0.000 A 
ATOM     15  C   UNL     1       2.107  16.945  18.047  0.00  0.00    +0.000 A 
ATOM     16  C   UNL     1       1.677  15.850  18.799  0.00  0.00    +0.000 A 
ENDBRANCH  10  11
ENDBRANCH   7  10
ENDBRANCH   1   2
BRANCH   1  17
ATOM     17  O   UNL     1       1.394   7.584  20.617  0.00  0.00    +0.000 OA
BRANCH  17  27
ATOM     18  C   UNL     1       5.283   5.503  15.705  0.00  0.00    +0.000 C 
ATOM     19  C   UNL     1       4.486   4.793  16.763  0.00  0.00    +0.000 A 
ATOM     20  C   UNL     1       4.503   3.458  16.866  0.00  0.00    +0.000 A 
ATOM     21  C   UNL     1       3.772   2.726  17.900  0.00  0.00    +0.000 A 
ATOM     22  O   UNL     1       3.779   1.497  17.930  0.00  0.00    +0.000 OA
ATOM     23  O   UNL     1       3.102   3.482  18.853  0.00  0.00    +0.000 OA
ATOM     24  C   UNL     1       3.033   4.891  18.770  0.00  0.00    +0.000 A 
ATOM     25  C   UNL     1       2.280   5.568  19.755  0.00  0.00    +0.000 A 
ATOM     26  C   UNL     1       1.627   4.832  20.893  0.00  0.00    +0.000 C 
ATOM     27  C   UNL     1       2.159   6.963  19.657  0.00  0.00    +0.000 A 
ATOM     28  C   UNL     1       2.790   7.637  18.599  0.00  0.00    +0.000 A 
ATOM     29  C   UNL     1       3.545   6.942  17.653  0.00  0.00    +0.000 A 
ATOM     30  C   UNL     1       3.692   5.556  17.724  0.00  0.00    +0.000 A 
ENDBRANCH  17  27
ENDBRANCH   1  17
TORSDOF 5
ENDMDL
MODEL 5
REMARK VINA RESULT:      -8.0      7.259     10.904
REMARK  Name = 
REMARK  7 active torsions:
REMARK  status: ('A' for Active; 'I' for Inactive)
REMARK    1  A    between atoms: C_1  and  C_2
REMARK    2  A    between atoms: C_8  and  C_9
REMARK    3  A    between atoms: C_10  and  O_11
REMARK    4  A    between atoms: O_11  and  C_12
REMARK    5  A    between atoms: C_12  and  C_13
REMARK    6  A    between atoms: N_18  and  C_19
REMARK    7  A    between atoms: C_19  and  C_20
REMARK                            x       y       z     vdW  Elec       q    Type
REMARK                         _______ _______ _______ _____ _____    ______ ____
ROOT
ATOM      1  C   UNL     1       1.347   9.541  17.852  0.00  0.00    +0.000 C 
ENDROOT
BRANCH   1   2
ATOM      2  C   UNL     1      -0.047  10.138  18.101  0.00  0.00    +0.000 C 
ATOM      3  O   UNL     1      -1.021   9.718  17.473  0.00  0.00    +0.000 OA
ATOM      4  N   UNL     1      -0.173  11.101  19.102  0.00  0.00    +0.000 N 
ATOM      5  C   UNL     1       0.943  11.662  19.873  0.00  0.00    +0.000 C 
ATOM      6  C   UNL     1       0.687  13.105  20.351  0.00  0.00    +0.000 C 
ATOM      7  N   UNL     1      -0.628  13.334  20.983  0.00  0.00    +0.000 NA
ATOM      8  C   UNL     1      -1.674  12.844  20.055  0.00  0.00    +0.000 C 
ATOM      9  C   UNL     1      -1.510  11.370  19.642  0.00  0.00    +0.000 C 
BRANCH   7  10
ATOM     10  C   UNL     1      -0.672  12.695  22.309  0.00  0.00    +0.000 C 
BRANCH  10  11
ATOM     11  C   UNL     1      -1.592  13.364  23.305  0.00  0.00    +0.000 A 
ATOM     12  C   UNL     1      -1.195  14.545  23.949  0.00  0.00    +0.000 A 
ATOM     13  C   UNL     1      -2.072  15.214  24.804  0.00  0.00    +0.000 A 
ATOM     14  C   UNL     1      -3.352  14.709  25.024  0.00  0.00    +0.000 A 
ATOM     15  C   UNL     1      -3.748  13.521  24.410  0.00  0.00    +0.000 A 
ATOM     16  C   UNL     1      -2.870  12.848  23.558  0.00  0.00    +0.000 A 
ENDBRANCH  10  11
ENDBRANCH   7  10
ENDBRANCH   1   2
BRANCH   1  17
ATOM     17  O   UNL     1       1.966   8.998  19.007  0.00  0.00    +0.000 OA
BRANCH  17  27
ATOM     18  C   UNL     1       3.862   2.771  17.913  0.00  0.00    +0.000 C 
ATOM     19  C   UNL     1       3.102   3.438  19.024  0.00  0.00    +0.000 A 
ATOM     20  C   UNL     1       2.689   2.749  20.095  0.00  0.00    +0.000 A 
ATOM     21  C   UNL     1       1.976   3.363  21.215  0.00  0.00    +0.000 A 
ATOM     22  O   UNL     1       1.576   2.683  22.159  0.00  0.00    +0.000 OA
ATOM     23  O   UNL     1       1.805   4.740  21.175  0.00  0.00    +0.000 OA
ATOM     24  C   UNL     1       2.199   5.505  20.054  0.00  0.00    +0.000 A 
ATOM     25  C   UNL     1       1.930   6.892  20.082  0.00  0.00    +0.000 A 
ATOM     26  C   UNL     1       1.309   7.551  21.283  0.00  0.00    +0.000 C 
ATOM     27  C   UNL     1       2.269   7.658  18.954  0.00  0.00    +0.000 A 
ATOM     28  C   UNL     1       2.865   7.030  17.849  0.00  0.00    +0.000 A 
ATOM     29  C   UNL     1       3.137   5.661  17.859  0.00  0.00    +0.000 A 
ATOM     30  C   UNL     1       2.820   4.872  18.966  0.00  0.00    +0.000 A 
ENDBRANCH  17  27
ENDBRANCH   1  17
TORSDOF 5
ENDMDL
MODEL 6
REMARK VINA RESULT:      -7.9      6.635     10.977
REMARK  Name = 
REMARK  7 active torsions:
REMARK  status: ('A' for Active; 'I' for Inactive)
REMARK    1  A    between atoms: C_1  and  C_2
REMARK    2  A    between atoms: C_8  and  C_9
REMARK    3  A    between atoms: C_10  and  O_11
REMARK    4  A    between atoms: O_11  and  C_12
REMARK    5  A    between atoms: C_12  and  C_13
REMARK    6  A    between atoms: N_18  and  C_19
REMARK    7  A    between atoms: C_19  and  C_20
REMARK                            x       y       z     vdW  Elec       q    Type
REMARK                         _______ _______ _______ _____ _____    ______ ____
ROOT
ATOM      1  C   UNL     1       0.561   8.441  21.196  0.00  0.00    +0.000 C 
ENDROOT
BRANCH   1   2
ATOM      2  C   UNL     1       0.373   9.846  21.789  0.00  0.00    +0.000 C 
ATOM      3  O   UNL     1       0.638  10.058  22.974  0.00  0.00    +0.000 OA
ATOM      4  N   UNL     1      -0.027  10.867  20.928  0.00  0.00    +0.000 N 
ATOM      5  C   UNL     1      -0.380  10.685  19.515  0.00  0.00    +0.000 C 
ATOM      6  C   UNL     1      -1.410  11.713  19.007  0.00  0.00    +0.000 C 
ATOM      7  N   UNL     1      -1.119  13.118  19.356  0.00  0.00    +0.000 NA
ATOM      8  C   UNL     1      -0.909  13.193  20.820  0.00  0.00    +0.000 C 
ATOM      9  C   UNL     1       0.191  12.255  21.348  0.00  0.00    +0.000 C 
BRANCH   7  10
ATOM     10  C   UNL     1       0.026  13.609  18.571  0.00  0.00    +0.000 C 
BRANCH  10  11
ATOM     11  C   UNL     1       0.420  15.041  18.851  0.00  0.00    +0.000 A 
ATOM     12  C   UNL     1       1.708  15.341  19.316  0.00  0.00    +0.000 A 
ATOM     13  C   UNL     1       2.106  16.666  19.494  0.00  0.00    +0.000 A 
ATOM     14  C   UNL     1       1.221  17.704  19.211  0.00  0.00    +0.000 A 
ATOM     15  C   UNL     1      -0.071  17.417  18.773  0.00  0.00    +0.000 A 
ATOM     16  C   UNL     1      -0.473  16.092  18.599  0.00  0.00    +0.000 A 
ENDBRANCH  10  11
ENDBRANCH   7  10
ENDBRANCH   1   2
BRANCH   1  17
ATOM     17  O   UNL     1       1.672   8.317  20.324  0.00  0.00    +0.000 OA
BRANCH  17  27
ATOM     18  C   UNL     1       2.697   1.886  19.245  0.00  0.00    +0.000 C 
ATOM     19  C   UNL     1       3.143   3.135  18.539  0.00  0.00    +0.000 A 
ATOM     20  C   UNL     1       3.883   3.077  17.424  0.00  0.00    +0.000 A 
ATOM     21  C   UNL     1       4.311   4.264  16.685  0.00  0.00    +0.000 A 
ATOM     22  O   UNL     1       5.028   4.165  15.690  0.00  0.00    +0.000 OA
ATOM     23  O   UNL     1       3.846   5.491  17.139  0.00  0.00    +0.000 OA
ATOM     24  C   UNL     1       3.086   5.605  18.325  0.00  0.00    +0.000 A 
ATOM     25  C   UNL     1       2.709   6.902  18.737  0.00  0.00    +0.000 A 
ATOM     26  C   UNL     1       3.039   8.119  17.916  0.00  0.00    +0.000 C 
ATOM     27  C   UNL     1       1.997   7.037  19.941  0.00  0.00    +0.000 A 
ATOM     28  C   UNL     1       1.680   5.890  20.686  0.00  0.00    +0.000 A 
ATOM     29  C   UNL     1       2.050   4.619  20.242  0.00  0.00    +0.000 A 
ATOM     30  C   UNL     1       2.751   4.449  19.047  0.00  0.00    +0.000 A 
ENDBRANCH  17  27
ENDBRANCH   1  17
TORSDOF 5
ENDMDL
MODEL 7
REMARK VINA RESULT:      -7.9      6.341     10.649
REMARK  Name = 
REMARK  7 active torsions:
REMARK  status: ('A' for Active; 'I' for Inactive)
REMARK    1  A    between atoms: C_1  and  C_2
REMARK    2  A    between atoms: C_8  and  C_9
REMARK    3  A    between atoms: C_10  and  O_11
REMARK    4  A    between atoms: O_11  and  C_12
REMARK    5  A    between atoms: C_12  and  C_13
REMARK    6  A    between atoms: N_18  and  C_19
REMARK    7  A    between atoms: C_19  and  C_20
REMARK                            x       y       z     vdW  Elec       q    Type
REMARK                         _______ _______ _______ _____ _____    ______ ____
ROOT
ATOM      1  C   UNL     1       1.474   8.505  21.535  0.00  0.00    +0.000 C 
ENDROOT
BRANCH   1   2
ATOM      2  C   UNL     1       0.390   9.558  21.816  0.00  0.00    +0.000 C 
ATOM      3  O   UNL     1      -0.450   9.362  22.697  0.00  0.00    +0.000 OA
ATOM      4  N   UNL     1       0.443  10.754  21.100  0.00  0.00    +0.000 N 
ATOM      5  C   UNL     1       1.398  11.047  20.025  0.00  0.00    +0.000 C 
ATOM      6  C   UNL     1       0.847  12.031  18.973  0.00  0.00    +0.000 C 
ATOM      7  N   UNL     1       0.202  13.240  19.522  0.00  0.00    +0.000 NA
ATOM      8  C   UNL     1      -0.827  12.809  20.498  0.00  0.00    +0.000 C 
ATOM      9  C   UNL     1      -0.289  11.911  21.625  0.00  0.00    +0.000 C 
BRANCH   7  10
ATOM     10  C   UNL     1       1.215  14.140  20.097  0.00  0.00    +0.000 C 
BRANCH  10  11
ATOM     11  C   UNL     1       1.803  15.138  19.124  0.00  0.00    +0.000 A 
ATOM     12  C   UNL     1       2.983  14.836  18.430  0.00  0.00    +0.000 A 
ATOM     13  C   UNL     1       3.483  15.714  17.468  0.00  0.00    +0.000 A 
ATOM     14  C   UNL     1       2.810  16.903  17.193  0.00  0.00    +0.000 A 
ATOM     15  C   UNL     1       1.650  17.226  17.896  0.00  0.00    +0.000 A 
ATOM     16  C   UNL     1       1.151  16.351  18.862  0.00  0.00    +0.000 A 
ENDBRANCH  10  11
ENDBRANCH   7  10
ENDBRANCH   1   2
BRANCH   1  17
ATOM     17  O   UNL     1       1.014   7.366  20.828  0.00  0.00    +0.000 OA
BRANCH  17  27
ATOM     18  C   UNL     1       5.196   5.998  15.908  0.00  0.00    +0.000 C 
ATOM     19  C   UNL     1       4.421   5.144  16.870  0.00  0.00    +0.000 A 
ATOM     20  C   UNL     1       4.531   3.809  16.860  0.00  0.00    +0.000 A 
ATOM     21  C   UNL     1       3.822   2.941  17.800  0.00  0.00    +0.000 A 
ATOM     22  O   UNL     1       3.918   1.717  17.726  0.00  0.00    +0.000 OA
ATOM     23  O   UNL     1       3.070   3.562  18.788  0.00  0.00    +0.000 OA
ATOM     24  C   UNL     1       2.901   4.965  18.822  0.00  0.00    +0.000 A 
ATOM     25  C   UNL     1       2.070   5.499  19.832  0.00  0.00    +0.000 A 
ATOM     26  C   UNL     1       1.436   4.622  20.878  0.00  0.00    +0.000 C 
ATOM     27  C   UNL     1       1.851   6.886  19.848  0.00  0.00    +0.000 A 
ATOM     28  C   UNL     1       2.465   7.692  18.876  0.00  0.00    +0.000 A 
ATOM     29  C   UNL     1       3.298   7.137  17.903  0.00  0.00    +0.000 A 
ATOM     30  C   UNL     1       3.542   5.763  17.862  0.00  0.00    +0.000 A 
ENDBRANCH  17  27
ENDBRANCH   1  17
TORSDOF 5
ENDMDL
MODEL 8
REMARK VINA RESULT:      -7.9      6.484     10.666
REMARK  Name = 
REMARK  7 active torsions:
REMARK  status: ('A' for Active; 'I' for Inactive)
REMARK    1  A    between atoms: C_1  and  C_2
REMARK    2  A    between atoms: C_8  and  C_9
REMARK    3  A    between atoms: C_10  and  O_11
REMARK    4  A    between atoms: O_11  and  C_12
REMARK    5  A    between atoms: C_12  and  C_13
REMARK    6  A    between atoms: N_18  and  C_19
REMARK    7  A    between atoms: C_19  and  C_20
REMARK                            x       y       z     vdW  Elec       q    Type
REMARK                         _______ _______ _______ _____ _____    ______ ____
ROOT
ATOM      1  C   UNL     1       1.739   8.660  17.984  0.00  0.00    +0.000 C 
ENDROOT
BRANCH   1   2
ATOM      2  C   UNL     1       1.892  10.159  18.287  0.00  0.00    +0.000 C 
ATOM      3  O   UNL     1       2.537  10.882  17.525  0.00  0.00    +0.000 OA
ATOM      4  N   UNL     1       1.219  10.670  19.397  0.00  0.00    +0.000 N 
ATOM      5  C   UNL     1       0.452   9.867  20.358  0.00  0.00    +0.000 C 
ATOM      6  C   UNL     1       0.426  10.476  21.774  0.00  0.00    +0.000 C 
ATOM      7  N   UNL     1       0.104  11.915  21.833  0.00  0.00    +0.000 NA
ATOM      8  C   UNL     1       1.027  12.630  20.920  0.00  0.00    +0.000 C 
ATOM      9  C   UNL     1       0.999  12.118  19.469  0.00  0.00    +0.000 C 
BRANCH   7  10
ATOM     10  C   UNL     1      -1.318  12.131  21.519  0.00  0.00    +0.000 C 
BRANCH  10  11
ATOM     11  C   UNL     1      -2.104  12.850  22.591  0.00  0.00    +0.000 A 
ATOM     12  C   UNL     1      -3.170  12.207  23.237  0.00  0.00    +0.000 A 
ATOM     13  C   UNL     1      -3.843  12.832  24.286  0.00  0.00    +0.000 A 
ATOM     14  C   UNL     1      -3.460  14.107  24.700  0.00  0.00    +0.000 A 
ATOM     15  C   UNL     1      -2.418  14.766  24.049  0.00  0.00    +0.000 A 
ATOM     16  C   UNL     1      -1.746  14.144  22.995  0.00  0.00    +0.000 A 
ENDBRANCH  10  11
ENDBRANCH   7  10
ENDBRANCH   1   2
BRANCH   1  17
ATOM     17  O   UNL     1       2.903   7.890  18.235  0.00  0.00    +0.000 OA
BRANCH  17  27
ATOM     18  C   UNL     1       1.204   2.811  22.094  0.00  0.00    +0.000 C 
ATOM     19  C   UNL     1       2.368   3.068  21.179  0.00  0.00    +0.000 A 
ATOM     20  C   UNL     1       3.319   2.145  20.989  0.00  0.00    +0.000 A 
ATOM     21  C   UNL     1       4.451   2.338  20.083  0.00  0.00    +0.000 A 
ATOM     22  O   UNL     1       5.326   1.481  19.972  0.00  0.00    +0.000 OA
ATOM     23  O   UNL     1       4.470   3.511  19.339  0.00  0.00    +0.000 OA
ATOM     24  C   UNL     1       3.505   4.525  19.525  0.00  0.00    +0.000 A 
ATOM     25  C   UNL     1       3.642   5.707  18.763  0.00  0.00    +0.000 A 
ATOM     26  C   UNL     1       4.733   5.862  17.739  0.00  0.00    +0.000 C 
ATOM     27  C   UNL     1       2.720   6.745  18.974  0.00  0.00    +0.000 A 
ATOM     28  C   UNL     1       1.697   6.576  19.920  0.00  0.00    +0.000 A 
ATOM     29  C   UNL     1       1.575   5.389  20.644  0.00  0.00    +0.000 A 
ATOM     30  C   UNL     1       2.470   4.334  20.454  0.00  0.00    +0.000 A 
ENDBRANCH  17  27
ENDBRANCH   1  17
TORSDOF 5
ENDMDL
MODEL 9
REMARK VINA RESULT:      -7.9      7.291     10.916
REMARK  Name = 
REMARK  7 active torsions:
REMARK  status: ('A' for Active; 'I' for Inactive)
REMARK    1  A    between atoms: C_1  and  C_2
REMARK    2  A    between atoms: C_8  and  C_9
REMARK    3  A    between atoms: C_10  and  O_11
REMARK    4  A    between atoms: O_11  and  C_12
REMARK    5  A    between atoms: C_12  and  C_13
REMARK    6  A    between atoms: N_18  and  C_19
REMARK    7  A    between atoms: C_19  and  C_20
REMARK                            x       y       z     vdW  Elec       q    Type
REMARK                         _______ _______ _______ _____ _____    ______ ____
ROOT
ATOM      1  C   UNL     1       1.435   8.667  21.418  0.00  0.00    +0.000 C 
ENDROOT
BRANCH   1   2
ATOM      2  C   UNL     1       0.215   9.466  21.901  0.00  0.00    +0.000 C 
ATOM      3  O   UNL     1      -0.385   9.124  22.922  0.00  0.00    +0.000 OA
ATOM      4  N   UNL     1      -0.131  10.617  21.193  0.00  0.00    +0.000 N 
ATOM      5  C   UNL     1       0.521  11.073  19.960  0.00  0.00    +0.000 C 
ATOM      6  C   UNL     1      -0.417  11.872  19.034  0.00  0.00    +0.000 C 
ATOM      7  N   UNL     1      -1.203  12.930  19.700  0.00  0.00    +0.000 NA
ATOM      8  C   UNL     1      -1.914  12.321  20.848  0.00  0.00    +0.000 C 
ATOM      9  C   UNL     1      -0.993  11.605  21.851  0.00  0.00    +0.000 C 
BRANCH   7  10
ATOM     10  C   UNL     1      -0.327  14.051  20.079  0.00  0.00    +0.000 C 
BRANCH  10  11
ATOM     11  C   UNL     1      -0.781  15.407  19.587  0.00  0.00    +0.000 A 
ATOM     12  C   UNL     1      -1.776  16.112  20.280  0.00  0.00    +0.000 A 
ATOM     13  C   UNL     1      -2.138  17.399  19.882  0.00  0.00    +0.000 A 
ATOM     14  C   UNL     1      -1.512  17.993  18.788  0.00  0.00    +0.000 A 
ATOM     15  C   UNL     1      -0.540  17.292  18.077  0.00  0.00    +0.000 A 
ATOM     16  C   UNL     1      -0.179  16.002  18.470  0.00  0.00    +0.000 A 
ENDBRANCH  10  11
ENDBRANCH   7  10
ENDBRANCH   1   2
BRANCH   1  17
ATOM     17  O   UNL     1       1.131   7.368  20.937  0.00  0.00    +0.000 OA
BRANCH  17  27
ATOM     18  C   UNL     1       5.162   6.035  15.882  0.00  0.00    +0.000 C 
ATOM     19  C   UNL     1       4.408   5.174  16.856  0.00  0.00    +0.000 A 
ATOM     20  C   UNL     1       4.508   3.839  16.825  0.00  0.00    +0.000 A 
ATOM     21  C   UNL     1       3.820   2.963  17.773  0.00  0.00    +0.000 A 
ATOM     22  O   UNL     1       3.904   1.740  17.681  0.00  0.00    +0.000 OA
ATOM     23  O   UNL     1       3.100   3.577  18.790  0.00  0.00    +0.000 OA
ATOM     24  C   UNL     1       2.943   4.980  18.848  0.00  0.00    +0.000 A 
ATOM     25  C   UNL     1       2.144   5.507  19.887  0.00  0.00    +0.000 A 
ATOM     26  C   UNL     1       1.534   4.621  20.939  0.00  0.00    +0.000 C 
ATOM     27  C   UNL     1       1.937   6.895  19.928  0.00  0.00    +0.000 A 
ATOM     28  C   UNL     1       2.529   7.710  18.949  0.00  0.00    +0.000 A 
ATOM     29  C   UNL     1       3.330   7.161  17.946  0.00  0.00    +0.000 A 
ATOM     30  C   UNL     1       3.563   5.787  17.880  0.00  0.00    +0.000 A 
ENDBRANCH  17  27
ENDBRANCH   1  17
TORSDOF 5
ENDMDL
