MODEL 1
REMARK VINA RESULT:      -9.1      0.000      0.000
REMARK  Name = 
REMARK  2 active torsions:
REMARK  status: ('A' for Active; 'I' for Inactive)
REMARK    1  A    between atoms: C_2  and  C_4
REMARK    2  A    between atoms: C_7  and  C_9
REMARK                            x       y       z     vdW  Elec       q    Type
REMARK                         _______ _______ _______ _____ _____    ______ ____
ROOT
ATOM      1  C   UNL     1       6.864   6.585  16.956  0.00  0.00    +0.000 C 
ATOM      2  C   UNL     1       6.004   5.680  17.846  0.00  0.00    +0.000 C 
ATOM      3  N   UNL     1       5.098   4.810  17.077  0.00  0.00    +0.000 N 
ATOM      4  C   UNL     1       3.787   4.437  17.412  0.00  0.00    +0.000 C 
ATOM      5  O   UNL     1       3.138   3.680  16.686  0.00  0.00    +0.000 OA
ATOM      6  C   UNL     1       5.757   4.128  15.957  0.00  0.00    +0.000 C 
ATOM      7  C   UNL     1       6.606   5.106  15.135  0.00  0.00    +0.000 C 
ATOM      8  O   UNL     1       7.556   5.806  15.962  0.00  0.00    +0.000 OA
ENDROOT
BRANCH   4   9
ATOM      9  C   UNL     1       3.089   4.971  18.624  0.00  0.00    +0.000 A 
ATOM     10  C   UNL     1       2.878   4.106  19.700  0.00  0.00    +0.000 A 
ATOM     11  C   UNL     1       2.185   4.578  20.801  0.00  0.00    +0.000 A 
ATOM     12  N   UNL     1       1.667   5.803  20.905  0.00  0.00    +0.000 NA
ATOM     13  C   UNL     1       1.916   6.661  19.908  0.00  0.00    +0.000 A 
ATOM     14  C   UNL     1       1.391   7.943  20.022  0.00  0.00    +0.000 A 
ATOM     15  C   UNL     1       1.612   8.919  19.052  0.00  0.00    +0.000 A 
ATOM     16  C   UNL     1       2.433   8.637  17.974  0.00  0.00    +0.000 A 
ATOM     17  C   UNL     1       3.006   7.372  17.862  0.00  0.00    +0.000 A 
ATOM     18  C   UNL     1       2.683   6.329  18.764  0.00  0.00    +0.000 A 
ATOM     19  C   UNL     1       2.090   3.573  21.906  0.00  0.00    +0.000 C 
ATOM     20  C   UNL     1       2.828   2.359  21.338  0.00  0.00    +0.000 C 
ATOM     21  C   UNL     1       3.323   2.697  19.920  0.00  0.00    +0.000 C 
ENDBRANCH   4   9
BRANCH   1  23
ATOM     22  N   UNL     1       8.249   6.682  18.987  0.00  0.00    +0.000 N 
ATOM     23  C   UNL     1       7.816   7.357  17.886  0.00  0.00    +0.000 C 
ATOM     24  O   UNL     1       8.171   8.512  17.676  0.00  0.00    +0.000 OA
ATOM     25  H   UNL     1       8.850   7.155  19.647  0.00  0.00    +0.000 HD
ATOM     26  H   UNL     1       7.916   5.745  19.178  0.00  0.00    +0.000 HD
ENDBRANCH   1  23
TORSDOF 2
ENDMDL
MODEL 2
REMARK VINA RESULT:      -8.4      0.491      3.361
REMARK  Name = 
REMARK  2 active torsions:
REMARK  status: ('A' for Active; 'I' for Inactive)
REMARK    1  A    between atoms: C_2  and  C_4
REMARK    2  A    between atoms: C_7  and  C_9
REMARK                            x       y       z     vdW  Elec       q    Type
REMARK                         _______ _______ _______ _____ _____    ______ ____
ROOT
ATOM      1  C   UNL     1       6.928   6.594  16.957  0.00  0.00    +0.000 C 
ATOM      2  C   UNL     1       6.021   5.660  17.767  0.00  0.00    +0.000 C 
ATOM      3  N   UNL     1       5.159   4.818  16.920  0.00  0.00    +0.000 N 
ATOM      4  C   UNL     1       3.832   4.436  17.169  0.00  0.00    +0.000 C 
ATOM      5  O   UNL     1       3.225   3.705  16.383  0.00  0.00    +0.000 OA
ATOM      6  C   UNL     1       5.879   4.174  15.815  0.00  0.00    +0.000 C 
ATOM      7  C   UNL     1       6.773   5.179  15.076  0.00  0.00    +0.000 C 
ATOM      8  O   UNL     1       7.675   5.849  15.977  0.00  0.00    +0.000 OA
ENDROOT
BRANCH   4   9
ATOM      9  C   UNL     1       3.068   4.929  18.359  0.00  0.00    +0.000 A 
ATOM     10  C   UNL     1       2.777   6.292  18.439  0.00  0.00    +0.000 A 
ATOM     11  C   UNL     1       2.120   6.762  19.561  0.00  0.00    +0.000 A 
ATOM     12  N   UNL     1       1.764   6.011  20.604  0.00  0.00    +0.000 NA
ATOM     13  C   UNL     1       1.980   4.692  20.513  0.00  0.00    +0.000 A 
ATOM     14  C   UNL     1       1.595   3.906  21.591  0.00  0.00    +0.000 A 
ATOM     15  C   UNL     1       1.753   2.520  21.588  0.00  0.00    +0.000 A 
ATOM     16  C   UNL     1       2.243   1.893  20.456  0.00  0.00    +0.000 A 
ATOM     17  C   UNL     1       2.595   2.658  19.346  0.00  0.00    +0.000 A 
ATOM     18  C   UNL     1       2.568   4.073  19.383  0.00  0.00    +0.000 A 
ATOM     19  C   UNL     1       1.811   8.225  19.487  0.00  0.00    +0.000 C 
ATOM     20  C   UNL     1       2.387   8.636  18.131  0.00  0.00    +0.000 C 
ATOM     21  C   UNL     1       3.016   7.399  17.464  0.00  0.00    +0.000 C 
ENDBRANCH   4   9
BRANCH   1  23
ATOM     22  N   UNL     1       8.241   6.604  19.038  0.00  0.00    +0.000 N 
ATOM     23  C   UNL     1       7.827   7.333  17.964  0.00  0.00    +0.000 C 
ATOM     24  O   UNL     1       8.157   8.507  17.835  0.00  0.00    +0.000 OA
ATOM     25  H   UNL     1       8.806   7.052  19.746  0.00  0.00    +0.000 HD
ATOM     26  H   UNL     1       7.927   5.649  19.162  0.00  0.00    +0.000 HD
ENDBRANCH   1  23
TORSDOF 2
ENDMDL
MODEL 3
REMARK VINA RESULT:      -8.2      1.146      3.512
REMARK  Name = 
REMARK  2 active torsions:
REMARK  status: ('A' for Active; 'I' for Inactive)
REMARK    1  A    between atoms: C_2  and  C_4
REMARK    2  A    between atoms: C_7  and  C_9
REMARK                            x       y       z     vdW  Elec       q    Type
REMARK                         _______ _______ _______ _____ _____    ______ ____
ROOT
ATOM      1  C   UNL     1       7.273   5.581  17.660  0.00  0.00    +0.000 C 
ATOM      2  C   UNL     1       6.059   4.826  18.213  0.00  0.00    +0.000 C 
ATOM      3  N   UNL     1       5.142   4.358  17.159  0.00  0.00    +0.000 N 
ATOM      4  C   UNL     1       3.740   4.313  17.207  0.00  0.00    +0.000 C 
ATOM      5  O   UNL     1       3.087   3.876  16.257  0.00  0.00    +0.000 OA
ATOM      6  C   UNL     1       5.828   3.693  16.046  0.00  0.00    +0.000 C 
ATOM      7  C   UNL     1       7.037   4.510  15.571  0.00  0.00    +0.000 C 
ATOM      8  O   UNL     1       7.941   4.795  16.655  0.00  0.00    +0.000 OA
ENDROOT
BRANCH   4   9
ATOM      9  C   UNL     1       2.963   4.836  18.376  0.00  0.00    +0.000 A 
ATOM     10  C   UNL     1       2.723   6.210  18.449  0.00  0.00    +0.000 A 
ATOM     11  C   UNL     1       2.054   6.706  19.553  0.00  0.00    +0.000 A 
ATOM     12  N   UNL     1       1.641   5.969  20.586  0.00  0.00    +0.000 NA
ATOM     13  C   UNL     1       1.809   4.643  20.500  0.00  0.00    +0.000 A 
ATOM     14  C   UNL     1       1.364   3.873  21.566  0.00  0.00    +0.000 A 
ATOM     15  C   UNL     1       1.469   2.482  21.567  0.00  0.00    +0.000 A 
ATOM     16  C   UNL     1       1.966   1.835  20.448  0.00  0.00    +0.000 A 
ATOM     17  C   UNL     1       2.376   2.586  19.349  0.00  0.00    +0.000 A 
ATOM     18  C   UNL     1       2.403   4.001  19.385  0.00  0.00    +0.000 A 
ATOM     19  C   UNL     1       1.803   8.179  19.471  0.00  0.00    +0.000 C 
ATOM     20  C   UNL     1       2.432   8.566  18.131  0.00  0.00    +0.000 C 
ATOM     21  C   UNL     1       3.031   7.306  17.481  0.00  0.00    +0.000 C 
ENDBRANCH   4   9
BRANCH   1  23
ATOM     22  N   UNL     1       8.506   7.233  19.002  0.00  0.00    +0.000 N 
ATOM     23  C   UNL     1       8.177   5.919  18.858  0.00  0.00    +0.000 C 
ATOM     24  O   UNL     1       8.596   5.075  19.644  0.00  0.00    +0.000 OA
ATOM     25  H   UNL     1       9.125   7.504  19.754  0.00  0.00    +0.000 HD
ATOM     26  H   UNL     1       8.195   7.918  18.324  0.00  0.00    +0.000 HD
ENDBRANCH   1  23
TORSDOF 2
ENDMDL
MODEL 4
REMARK VINA RESULT:      -7.5      2.294      5.931
REMARK  Name = 
REMARK  2 active torsions:
REMARK  status: ('A' for Active; 'I' for Inactive)
REMARK    1  A    between atoms: C_2  and  C_4
REMARK    2  A    between atoms: C_7  and  C_9
REMARK                            x       y       z     vdW  Elec       q    Type
REMARK                         _______ _______ _______ _____ _____    ______ ____
ROOT
ATOM      1  C   UNL     1       2.349   5.775  19.728  0.00  0.00    +0.000 C 
ATOM      2  C   UNL     1       2.970   5.477  18.358  0.00  0.00    +0.000 C 
ATOM      3  N   UNL     1       3.140   4.036  18.104  0.00  0.00    +0.000 N 
ATOM      4  C   UNL     1       4.201   3.408  17.434  0.00  0.00    +0.000 C 
ATOM      5  O   UNL     1       4.213   2.186  17.269  0.00  0.00    +0.000 OA
ATOM      6  C   UNL     1       1.947   3.244  18.427  0.00  0.00    +0.000 C 
ATOM      7  C   UNL     1       1.387   3.622  19.805  0.00  0.00    +0.000 C 
ATOM      8  O   UNL     1       1.126   5.035  19.900  0.00  0.00    +0.000 OA
ENDROOT
BRANCH   4   9
ATOM      9  C   UNL     1       5.392   4.167  16.936  0.00  0.00    +0.000 A 
ATOM     10  C   UNL     1       6.175   4.854  17.867  0.00  0.00    +0.000 A 
ATOM     11  C   UNL     1       7.245   5.600  17.407  0.00  0.00    +0.000 A 
ATOM     12  N   UNL     1       7.574   5.746  16.122  0.00  0.00    +0.000 NA
ATOM     13  C   UNL     1       6.870   5.043  15.225  0.00  0.00    +0.000 A 
ATOM     14  C   UNL     1       7.222   5.180  13.888  0.00  0.00    +0.000 A 
ATOM     15  C   UNL     1       6.570   4.475  12.877  0.00  0.00    +0.000 A 
ATOM     16  C   UNL     1       5.588   3.557  13.210  0.00  0.00    +0.000 A 
ATOM     17  C   UNL     1       5.250   3.371  14.548  0.00  0.00    +0.000 A 
ATOM     18  C   UNL     1       5.805   4.176  15.573  0.00  0.00    +0.000 A 
ATOM     19  C   UNL     1       8.037   6.227  18.510  0.00  0.00    +0.000 C 
ATOM     20  C   UNL     1       7.300   5.773  19.772  0.00  0.00    +0.000 C 
ATOM     21  C   UNL     1       6.100   4.901  19.358  0.00  0.00    +0.000 C 
ENDBRANCH   4   9
BRANCH   1  23
ATOM     22  N   UNL     1       1.826   7.791  21.037  0.00  0.00    +0.000 N 
ATOM     23  C   UNL     1       2.147   7.298  19.809  0.00  0.00    +0.000 C 
ATOM     24  O   UNL     1       2.253   8.043  18.840  0.00  0.00    +0.000 OA
ATOM     25  H   UNL     1       1.651   8.781  21.138  0.00  0.00    +0.000 HD
ATOM     26  H   UNL     1       1.694   7.165  21.823  0.00  0.00    +0.000 HD
ENDBRANCH   1  23
TORSDOF 2
ENDMDL
MODEL 5
REMARK VINA RESULT:      -7.2      5.245      7.803
REMARK  Name = 
REMARK  2 active torsions:
REMARK  status: ('A' for Active; 'I' for Inactive)
REMARK    1  A    between atoms: C_2  and  C_4
REMARK    2  A    between atoms: C_7  and  C_9
REMARK                            x       y       z     vdW  Elec       q    Type
REMARK                         _______ _______ _______ _____ _____    ______ ____
ROOT
ATOM      1  C   UNL     1       2.304  14.539  20.555  0.00  0.00    +0.000 C 
ATOM      2  C   UNL     1       2.192  13.144  19.929  0.00  0.00    +0.000 C 
ATOM      3  N   UNL     1       0.964  12.967  19.135  0.00  0.00    +0.000 N 
ATOM      4  C   UNL     1       0.173  11.812  19.035  0.00  0.00    +0.000 C 
ATOM      5  O   UNL     1      -0.826  11.788  18.313  0.00  0.00    +0.000 OA
ATOM      6  C   UNL     1       0.701  14.080  18.215  0.00  0.00    +0.000 C 
ATOM      7  C   UNL     1       0.853  15.432  18.923  0.00  0.00    +0.000 C 
ATOM      8  O   UNL     1       2.144  15.558  19.551  0.00  0.00    +0.000 OA
ENDROOT
BRANCH   4   9
ATOM      9  C   UNL     1       0.461  10.575  19.829  0.00  0.00    +0.000 A 
ATOM     10  C   UNL     1      -0.027  10.500  21.135  0.00  0.00    +0.000 A 
ATOM     11  C   UNL     1       0.281   9.384  21.892  0.00  0.00    +0.000 A 
ATOM     12  N   UNL     1       1.047   8.373  21.478  0.00  0.00    +0.000 NA
ATOM     13  C   UNL     1       1.468   8.402  20.207  0.00  0.00    +0.000 A 
ATOM     14  C   UNL     1       2.250   7.341  19.769  0.00  0.00    +0.000 A 
ATOM     15  C   UNL     1       2.720   7.263  18.459  0.00  0.00    +0.000 A 
ATOM     16  C   UNL     1       2.346   8.228  17.541  0.00  0.00    +0.000 A 
ATOM     17  C   UNL     1       1.525   9.278  17.947  0.00  0.00    +0.000 A 
ATOM     18  C   UNL     1       1.152   9.446  19.303  0.00  0.00    +0.000 A 
ATOM     19  C   UNL     1      -0.359   9.400  23.245  0.00  0.00    +0.000 C 
ATOM     20  C   UNL     1      -1.131  10.722  23.250  0.00  0.00    +0.000 C 
ATOM     21  C   UNL     1      -0.909  11.432  21.902  0.00  0.00    +0.000 C 
ENDBRANCH   4   9
BRANCH   1  23
ATOM     22  N   UNL     1       4.485  15.627  20.891  0.00  0.00    +0.000 N 
ATOM     23  C   UNL     1       3.667  14.605  21.266  0.00  0.00    +0.000 C 
ATOM     24  O   UNL     1       4.023  13.793  22.115  0.00  0.00    +0.000 OA
ATOM     25  H   UNL     1       5.405  15.696  21.304  0.00  0.00    +0.000 HD
ATOM     26  H   UNL     1       4.205  16.266  20.157  0.00  0.00    +0.000 HD
ENDBRANCH   1  23
TORSDOF 2
ENDMDL
MODEL 6
REMARK VINA RESULT:      -6.9      2.864      5.657
REMARK  Name = 
REMARK  2 active torsions:
REMARK  status: ('A' for Active; 'I' for Inactive)
REMARK    1  A    between atoms: C_2  and  C_4
REMARK    2  A    between atoms: C_7  and  C_9
REMARK                            x       y       z     vdW  Elec       q    Type
REMARK                         _______ _______ _______ _____ _____    ______ ____
ROOT
ATOM      1  C   UNL     1       0.658   8.588  20.045  0.00  0.00    +0.000 C 
ATOM      2  C   UNL     1       2.102   8.218  19.687  0.00  0.00    +0.000 C 
ATOM      3  N   UNL     1       2.398   8.374  18.253  0.00  0.00    +0.000 N 
ATOM      4  C   UNL     1       3.211   7.553  17.456  0.00  0.00    +0.000 C 
ATOM      5  O   UNL     1       3.395   7.808  16.264  0.00  0.00    +0.000 OA
ATOM      6  C   UNL     1       1.932   9.650  17.698  0.00  0.00    +0.000 C 
ATOM      7  C   UNL     1       0.487   9.944  18.122  0.00  0.00    +0.000 C 
ATOM      8  O   UNL     1       0.337   9.902  19.555  0.00  0.00    +0.000 OA
ENDROOT
BRANCH   4   9
ATOM      9  C   UNL     1       3.851   6.307  17.985  0.00  0.00    +0.000 A 
ATOM     10  C   UNL     1       3.035   5.204  18.247  0.00  0.00    +0.000 A 
ATOM     11  C   UNL     1       3.612   4.069  18.786  0.00  0.00    +0.000 A 
ATOM     12  N   UNL     1       4.900   3.953  19.112  0.00  0.00    +0.000 NA
ATOM     13  C   UNL     1       5.705   4.979  18.808  0.00  0.00    +0.000 A 
ATOM     14  C   UNL     1       7.051   4.852  19.131  0.00  0.00    +0.000 A 
ATOM     15  C   UNL     1       7.977   5.852  18.836  0.00  0.00    +0.000 A 
ATOM     16  C   UNL     1       7.569   6.977  18.141  0.00  0.00    +0.000 A 
ATOM     17  C   UNL     1       6.233   7.104  17.767  0.00  0.00    +0.000 A 
ATOM     18  C   UNL     1       5.256   6.165  18.177  0.00  0.00    +0.000 A 
ATOM     19  C   UNL     1       2.640   2.943  18.953  0.00  0.00    +0.000 C 
ATOM     20  C   UNL     1       1.326   3.537  18.440  0.00  0.00    +0.000 C 
ATOM     21  C   UNL     1       1.577   4.990  17.998  0.00  0.00    +0.000 C 
ENDBRANCH   4   9
BRANCH   1  23
ATOM     22  N   UNL     1       1.659   8.722  22.288  0.00  0.00    +0.000 N 
ATOM     23  C   UNL     1       0.528   8.467  21.573  0.00  0.00    +0.000 C 
ATOM     24  O   UNL     1      -0.515   8.153  22.137  0.00  0.00    +0.000 OA
ATOM     25  H   UNL     1       1.636   8.625  23.294  0.00  0.00    +0.000 HD
ATOM     26  H   UNL     1       2.529   8.936  21.814  0.00  0.00    +0.000 HD
ENDBRANCH   1  23
TORSDOF 2
ENDMDL
MODEL 7
REMARK VINA RESULT:      -6.8      2.838      5.880
REMARK  Name = 
REMARK  2 active torsions:
REMARK  status: ('A' for Active; 'I' for Inactive)
REMARK    1  A    between atoms: C_2  and  C_4
REMARK    2  A    between atoms: C_7  and  C_9
REMARK                            x       y       z     vdW  Elec       q    Type
REMARK                         _______ _______ _______ _____ _____    ______ ____
ROOT
ATOM      1  C   UNL     1       0.802   8.631  20.172  0.00  0.00    +0.000 C 
ATOM      2  C   UNL     1       2.241   8.268  19.788  0.00  0.00    +0.000 C 
ATOM      3  N   UNL     1       2.468   8.274  18.333  0.00  0.00    +0.000 N 
ATOM      4  C   UNL     1       3.275   7.395  17.593  0.00  0.00    +0.000 C 
ATOM      5  O   UNL     1       3.397   7.522  16.373  0.00  0.00    +0.000 OA
ATOM      6  C   UNL     1       1.933   9.466  17.665  0.00  0.00    +0.000 C 
ATOM      7  C   UNL     1       0.499   9.760  18.123  0.00  0.00    +0.000 C 
ATOM      8  O   UNL     1       0.413   9.872  19.556  0.00  0.00    +0.000 OA
ENDROOT
BRANCH   4   9
ATOM      9  C   UNL     1       3.981   6.235  18.224  0.00  0.00    +0.000 A 
ATOM     10  C   UNL     1       5.378   6.243  18.245  0.00  0.00    +0.000 A 
ATOM     11  C   UNL     1       6.037   5.150  18.776  0.00  0.00    +0.000 A 
ATOM     12  N   UNL     1       5.436   4.056  19.249  0.00  0.00    +0.000 NA
ATOM     13  C   UNL     1       4.098   4.062  19.293  0.00  0.00    +0.000 A 
ATOM     14  C   UNL     1       3.470   2.931  19.802  0.00  0.00    +0.000 A 
ATOM     15  C   UNL     1       2.083   2.844  19.914  0.00  0.00    +0.000 A 
ATOM     16  C   UNL     1       1.302   3.936  19.576  0.00  0.00    +0.000 A 
ATOM     17  C   UNL     1       1.912   5.096  19.107  0.00  0.00    +0.000 A 
ATOM     18  C   UNL     1       3.306   5.153  18.859  0.00  0.00    +0.000 A 
ATOM     19  C   UNL     1       7.524   5.318  18.799  0.00  0.00    +0.000 C 
ATOM     20  C   UNL     1       7.728   6.703  18.181  0.00  0.00    +0.000 C 
ATOM     21  C   UNL     1       6.353   7.291  17.816  0.00  0.00    +0.000 C 
ENDBRANCH   4   9
BRANCH   1  23
ATOM     22  N   UNL     1       1.938   8.820  22.345  0.00  0.00    +0.000 N 
ATOM     23  C   UNL     1       0.743   8.676  21.708  0.00  0.00    +0.000 C 
ATOM     24  O   UNL     1      -0.302   8.582  22.344  0.00  0.00    +0.000 OA
ATOM     25  H   UNL     1       1.959   8.822  23.356  0.00  0.00    +0.000 HD
ATOM     26  H   UNL     1       2.802   8.850  21.816  0.00  0.00    +0.000 HD
ENDBRANCH   1  23
TORSDOF 2
ENDMDL
MODEL 8
REMARK VINA RESULT:      -6.7      3.101      5.779
REMARK  Name = 
REMARK  2 active torsions:
REMARK  status: ('A' for Active; 'I' for Inactive)
REMARK    1  A    between atoms: C_2  and  C_4
REMARK    2  A    between atoms: C_7  and  C_9
REMARK                            x       y       z     vdW  Elec       q    Type
REMARK                         _______ _______ _______ _____ _____    ______ ____
ROOT
ATOM      1  C   UNL     1       0.517   9.088  20.964  0.00  0.00    +0.000 C 
ATOM      2  C   UNL     1       1.862   8.676  20.353  0.00  0.00    +0.000 C 
ATOM      3  N   UNL     1       1.828   8.604  18.882  0.00  0.00    +0.000 N 
ATOM      4  C   UNL     1       2.480   7.673  18.059  0.00  0.00    +0.000 C 
ATOM      5  O   UNL     1       2.385   7.737  16.831  0.00  0.00    +0.000 OA
ATOM      6  C   UNL     1       1.197   9.773  18.257  0.00  0.00    +0.000 C 
ATOM      7  C   UNL     1      -0.130  10.121  18.944  0.00  0.00    +0.000 C 
ATOM      8  O   UNL     1       0.041  10.306  20.362  0.00  0.00    +0.000 OA
ENDROOT
BRANCH   4   9
ATOM      9  C   UNL     1       3.272   6.531  18.616  0.00  0.00    +0.000 A 
ATOM     10  C   UNL     1       2.602   5.566  19.370  0.00  0.00    +0.000 A 
ATOM     11  C   UNL     1       3.337   4.539  19.932  0.00  0.00    +0.000 A 
ATOM     12  N   UNL     1       4.662   4.412  19.838  0.00  0.00    +0.000 NA
ATOM     13  C   UNL     1       5.309   5.295  19.066  0.00  0.00    +0.000 A 
ATOM     14  C   UNL     1       6.687   5.154  18.952  0.00  0.00    +0.000 A 
ATOM     15  C   UNL     1       7.452   6.005  18.155  0.00  0.00    +0.000 A 
ATOM     16  C   UNL     1       6.824   6.978  17.397  0.00  0.00    +0.000 A 
ATOM     17  C   UNL     1       5.438   7.108  17.461  0.00  0.00    +0.000 A 
ATOM     18  C   UNL     1       4.662   6.344  18.366  0.00  0.00    +0.000 A 
ATOM     19  C   UNL     1       2.488   3.540  20.654  0.00  0.00    +0.000 C 
ATOM     20  C   UNL     1       1.072   4.093  20.478  0.00  0.00    +0.000 C 
ATOM     21  C   UNL     1       1.146   5.398  19.665  0.00  0.00    +0.000 C 
ENDBRANCH   4   9
BRANCH   1  23
ATOM     22  N   UNL     1      -0.393   9.167  23.248  0.00  0.00    +0.000 N 
ATOM     23  C   UNL     1       0.732   9.211  22.483  0.00  0.00    +0.000 C 
ATOM     24  O   UNL     1       1.838   9.351  22.996  0.00  0.00    +0.000 OA
ATOM     25  H   UNL     1      -0.310   9.277  24.249  0.00  0.00    +0.000 HD
ATOM     26  H   UNL     1      -1.306   9.098  22.815  0.00  0.00    +0.000 HD
ENDBRANCH   1  23
TORSDOF 2
ENDMDL
MODEL 9
REMARK VINA RESULT:      -6.5      7.304     10.042
REMARK  Name = 
REMARK  2 active torsions:
REMARK  status: ('A' for Active; 'I' for Inactive)
REMARK    1  A    between atoms: C_2  and  C_4
REMARK    2  A    between atoms: C_7  and  C_9
REMARK                            x       y       z     vdW  Elec       q    Type
REMARK                         _______ _______ _______ _____ _____    ______ ____
ROOT
ATOM      1  C   UNL     1      -4.723  10.875  18.206  0.00  0.00    +0.000 C 
ATOM      2  C   UNL     1      -3.660  11.793  18.823  0.00  0.00    +0.000 C 
ATOM      3  N   UNL     1      -2.323  11.601  18.235  0.00  0.00    +0.000 N 
ATOM      4  C   UNL     1      -1.087  11.646  18.898  0.00  0.00    +0.000 C 
ATOM      5  O   UNL     1      -0.031  11.489  18.281  0.00  0.00    +0.000 OA
ATOM      6  C   UNL     1      -2.332  11.566  16.768  0.00  0.00    +0.000 C 
ATOM      7  C   UNL     1      -3.436  10.638  16.243  0.00  0.00    +0.000 C 
ATOM      8  O   UNL     1      -4.726  10.999  16.773  0.00  0.00    +0.000 OA
ENDROOT
BRANCH   4   9
ATOM      9  C   UNL     1      -0.980  11.830  20.380  0.00  0.00    +0.000 A 
ATOM     10  C   UNL     1      -0.655  10.721  21.163  0.00  0.00    +0.000 A 
ATOM     11  C   UNL     1      -0.608  10.872  22.537  0.00  0.00    +0.000 A 
ATOM     12  N   UNL     1      -0.887  12.003  23.187  0.00  0.00    +0.000 NA
ATOM     13  C   UNL     1      -1.138  13.091  22.446  0.00  0.00    +0.000 A 
ATOM     14  C   UNL     1      -1.411  14.274  23.121  0.00  0.00    +0.000 A 
ATOM     15  C   UNL     1      -1.663  15.467  22.445  0.00  0.00    +0.000 A 
ATOM     16  C   UNL     1      -1.573  15.502  21.064  0.00  0.00    +0.000 A 
ATOM     17  C   UNL     1      -1.257  14.336  20.369  0.00  0.00    +0.000 A 
ATOM     18  C   UNL     1      -1.133  13.089  21.029  0.00  0.00    +0.000 A 
ATOM     19  C   UNL     1      -0.182   9.626  23.248  0.00  0.00    +0.000 C 
ATOM     20  C   UNL     1       0.034   8.629  22.107  0.00  0.00    +0.000 C 
ATOM     21  C   UNL     1      -0.280   9.328  20.771  0.00  0.00    +0.000 C 
ENDBRANCH   4   9
BRANCH   1  23
ATOM     22  N   UNL     1      -7.032  10.291  18.819  0.00  0.00    +0.000 N 
ATOM     23  C   UNL     1      -6.070  11.253  18.846  0.00  0.00    +0.000 C 
ATOM     24  O   UNL     1      -6.291  12.351  19.348  0.00  0.00    +0.000 OA
ATOM     25  H   UNL     1      -7.946  10.499  19.196  0.00  0.00    +0.000 HD
ATOM     26  H   UNL     1      -6.858   9.404  18.361  0.00  0.00    +0.000 HD
ENDBRANCH   1  23
TORSDOF 2
ENDMDL
