MODEL 1
REMARK VINA RESULT:      -7.4      0.000      0.000
REMARK  Name = 
REMARK  9 active torsions:
REMARK  status: ('A' for Active; 'I' for Inactive)
REMARK    1  A    between atoms: C_1  and  N_2
REMARK    2  A    between atoms: N_2  and  C_3
REMARK    3  A    between atoms: C_3  and  C_4
REMARK    4  A    between atoms: C_4  and  C_5
REMARK    5  A    between atoms: C_5  and  C_6
REMARK    6  A    between atoms: C_6  and  C_7
REMARK    7  A    between atoms: C_7  and  N_8
REMARK    8  A    between atoms: C_18  and  O_20
REMARK    9  A    between atoms: O_20  and  C_21
REMARK                            x       y       z     vdW  Elec       q    Type
REMARK                         _______ _______ _______ _____ _____    ______ ____
ROOT
ATOM      1  C   UNL     1       4.706   7.332  17.288  0.00  0.00    +0.000 C 
ENDROOT
BRANCH   1   2
ATOM      2  C   UNL     1       5.351   6.046  16.758  0.00  0.00    +0.000 C 
BRANCH   2   4
ATOM      3  C   UNL     1       7.196   5.595  18.405  0.00  0.00    +0.000 C 
ATOM      4  N   UNL     1       5.925   5.214  17.819  0.00  0.00    +0.000 N 
ATOM      5  C   UNL     1       5.199   4.223  18.471  0.00  0.00    +0.000 C 
ATOM      6  O   UNL     1       5.633   3.585  19.427  0.00  0.00    +0.000 OA
BRANCH   5   7
ATOM      7  O   UNL     1       3.919   4.084  17.959  0.00  0.00    +0.000 OA
BRANCH   7   8
ATOM      8  C   UNL     1       2.935   3.774  18.905  0.00  0.00    +0.000 A 
ATOM      9  C   UNL     1       2.404   4.761  19.744  0.00  0.00    +0.000 A 
ATOM     10  C   UNL     1       1.338   4.457  20.584  0.00  0.00    +0.000 A 
ATOM     11  C   UNL     1       0.793   3.173  20.567  0.00  0.00    +0.000 A 
ATOM     12  C   UNL     1       1.315   2.195  19.718  0.00  0.00    +0.000 A 
ATOM     13  C   UNL     1       2.388   2.495  18.877  0.00  0.00    +0.000 A 
ENDBRANCH   7   8
ENDBRANCH   5   7
ENDBRANCH   2   4
ENDBRANCH   1   2
BRANCH   1  14
ATOM     14  C   UNL     1       3.173   7.252  17.285  0.00  0.00    +0.000 C 
BRANCH  14  15
ATOM     15  C   UNL     1       2.547   8.546  17.820  0.00  0.00    +0.000 C 
BRANCH  15  16
ATOM     16  C   UNL     1       1.842   8.342  19.164  0.00  0.00    +0.000 C 
BRANCH  16  17
ATOM     17  N   UNL     1       0.905   9.420  19.463  0.00  0.00    +0.000 N 
ATOM     18  C   UNL     1       0.377  10.266  18.518  0.00  0.00    +0.000 A 
ATOM     19  C   UNL     1      -0.469  11.139  19.155  0.00  0.00    +0.000 A 
ATOM     20  C   UNL     1      -0.467  10.819  20.539  0.00  0.00    +0.000 A 
ATOM     21  C   UNL     1      -1.130  11.357  21.663  0.00  0.00    +0.000 A 
ATOM     22  C   UNL     1      -0.907  10.798  22.924  0.00  0.00    +0.000 A 
ATOM     23  C   UNL     1      -0.040   9.724  23.064  0.00  0.00    +0.000 A 
ATOM     24  F   UNL     1       0.160   9.204  24.283  0.00  0.00    +0.000 F 
ATOM     25  C   UNL     1       0.632   9.169  21.975  0.00  0.00    +0.000 A 
ATOM     26  C   UNL     1       0.402   9.736  20.712  0.00  0.00    +0.000 A 
ENDBRANCH  16  17
ENDBRANCH  15  16
ENDBRANCH  14  15
ENDBRANCH   1  14
TORSDOF 8
ENDMDL
MODEL 2
REMARK VINA RESULT:      -7.4      5.947      7.656
REMARK  Name = 
REMARK  9 active torsions:
REMARK  status: ('A' for Active; 'I' for Inactive)
REMARK    1  A    between atoms: C_1  and  N_2
REMARK    2  A    between atoms: N_2  and  C_3
REMARK    3  A    between atoms: C_3  and  C_4
REMARK    4  A    between atoms: C_4  and  C_5
REMARK    5  A    between atoms: C_5  and  C_6
REMARK    6  A    between atoms: C_6  and  C_7
REMARK    7  A    between atoms: C_7  and  N_8
REMARK    8  A    between atoms: C_18  and  O_20
REMARK    9  A    between atoms: O_20  and  C_21
REMARK                            x       y       z     vdW  Elec       q    Type
REMARK                         _______ _______ _______ _____ _____    ______ ____
ROOT
ATOM      1  C   UNL     1       7.836   7.473  18.023  0.00  0.00    +0.000 C 
ENDROOT
BRANCH   1   2
ATOM      2  C   UNL     1       6.517   6.763  17.691  0.00  0.00    +0.000 C 
BRANCH   2   4
ATOM      3  C   UNL     1       7.735   4.567  17.796  0.00  0.00    +0.000 C 
ATOM      4  N   UNL     1       6.532   5.339  18.037  0.00  0.00    +0.000 N 
ATOM      5  C   UNL     1       5.544   4.746  18.817  0.00  0.00    +0.000 C 
ATOM      6  O   UNL     1       5.593   3.579  19.197  0.00  0.00    +0.000 OA
BRANCH   5   7
ATOM      7  O   UNL     1       4.540   5.636  19.161  0.00  0.00    +0.000 OA
BRANCH   7   8
ATOM      8  C   UNL     1       3.261   5.074  19.261  0.00  0.00    +0.000 A 
ATOM      9  C   UNL     1       2.623   4.529  18.141  0.00  0.00    +0.000 A 
ATOM     10  C   UNL     1       1.412   3.862  18.289  0.00  0.00    +0.000 A 
ATOM     11  C   UNL     1       0.854   3.722  19.560  0.00  0.00    +0.000 A 
ATOM     12  C   UNL     1       1.501   4.253  20.678  0.00  0.00    +0.000 A 
ATOM     13  C   UNL     1       2.715   4.928  20.532  0.00  0.00    +0.000 A 
ENDBRANCH   7   8
ENDBRANCH   5   7
ENDBRANCH   2   4
ENDBRANCH   1   2
BRANCH   1  14
ATOM     14  C   UNL     1       7.775   8.976  17.710  0.00  0.00    +0.000 C 
BRANCH  14  15
ATOM     15  C   UNL     1       8.940   9.728  18.366  0.00  0.00    +0.000 C 
BRANCH  15  16
ATOM     16  C   UNL     1       8.620  11.207  18.603  0.00  0.00    +0.000 C 
BRANCH  16  17
ATOM     17  N   UNL     1       9.674  12.084  18.106  0.00  0.00    +0.000 N 
ATOM     18  C   UNL     1      10.922  11.651  17.727  0.00  0.00    +0.000 A 
ATOM     19  C   UNL     1      11.639  12.742  17.304  0.00  0.00    +0.000 A 
ATOM     20  C   UNL     1      10.806  13.887  17.421  0.00  0.00    +0.000 A 
ATOM     21  C   UNL     1      10.991  15.257  17.140  0.00  0.00    +0.000 A 
ATOM     22  C   UNL     1       9.943  16.152  17.370  0.00  0.00    +0.000 A 
ATOM     23  C   UNL     1       8.733  15.691  17.871  0.00  0.00    +0.000 A 
ATOM     24  F   UNL     1       7.741  16.568  18.086  0.00  0.00    +0.000 F 
ATOM     25  C   UNL     1       8.517  14.344  18.161  0.00  0.00    +0.000 A 
ATOM     26  C   UNL     1       9.575  13.452  17.926  0.00  0.00    +0.000 A 
ENDBRANCH  16  17
ENDBRANCH  15  16
ENDBRANCH  14  15
ENDBRANCH   1  14
TORSDOF 8
ENDMDL
MODEL 3
REMARK VINA RESULT:      -7.3      1.448      4.144
REMARK  Name = 
REMARK  9 active torsions:
REMARK  status: ('A' for Active; 'I' for Inactive)
REMARK    1  A    between atoms: C_1  and  N_2
REMARK    2  A    between atoms: N_2  and  C_3
REMARK    3  A    between atoms: C_3  and  C_4
REMARK    4  A    between atoms: C_4  and  C_5
REMARK    5  A    between atoms: C_5  and  C_6
REMARK    6  A    between atoms: C_6  and  C_7
REMARK    7  A    between atoms: C_7  and  N_8
REMARK    8  A    between atoms: C_18  and  O_20
REMARK    9  A    between atoms: O_20  and  C_21
REMARK                            x       y       z     vdW  Elec       q    Type
REMARK                         _______ _______ _______ _____ _____    ______ ____
ROOT
ATOM      1  C   UNL     1       2.149   2.737  20.552  0.00  0.00    +0.000 C 
ENDROOT
BRANCH   1   2
ATOM      2  C   UNL     1       3.502   3.336  20.149  0.00  0.00    +0.000 C 
BRANCH   2   4
ATOM      3  C   UNL     1       3.774   1.510  18.443  0.00  0.00    +0.000 C 
ATOM      4  N   UNL     1       3.950   2.898  18.824  0.00  0.00    +0.000 N 
ATOM      5  C   UNL     1       4.302   3.792  17.818  0.00  0.00    +0.000 C 
ATOM      6  O   UNL     1       4.584   3.445  16.674  0.00  0.00    +0.000 OA
BRANCH   5   7
ATOM      7  O   UNL     1       4.238   5.111  18.238  0.00  0.00    +0.000 OA
BRANCH   7   8
ATOM      8  C   UNL     1       5.469   5.774  18.291  0.00  0.00    +0.000 A 
ATOM      9  C   UNL     1       6.472   5.365  19.178  0.00  0.00    +0.000 A 
ATOM     10  C   UNL     1       7.730   5.955  19.121  0.00  0.00    +0.000 A 
ATOM     11  C   UNL     1       7.988   6.938  18.165  0.00  0.00    +0.000 A 
ATOM     12  C   UNL     1       6.989   7.333  17.272  0.00  0.00    +0.000 A 
ATOM     13  C   UNL     1       5.724   6.746  17.328  0.00  0.00    +0.000 A 
ENDBRANCH   7   8
ENDBRANCH   5   7
ENDBRANCH   2   4
ENDBRANCH   1   2
BRANCH   1  14
ATOM     14  C   UNL     1       1.052   3.807  20.652  0.00  0.00    +0.000 C 
BRANCH  14  15
ATOM     15  C   UNL     1       1.441   5.077  19.884  0.00  0.00    +0.000 C 
BRANCH  15  16
ATOM     16  C   UNL     1       1.807   6.234  20.817  0.00  0.00    +0.000 C 
BRANCH  16  17
ATOM     17  N   UNL     1       1.658   7.532  20.168  0.00  0.00    +0.000 N 
ATOM     18  C   UNL     1       2.113   7.818  18.904  0.00  0.00    +0.000 A 
ATOM     19  C   UNL     1       1.787   9.121  18.620  0.00  0.00    +0.000 A 
ATOM     20  C   UNL     1       1.104   9.657  19.745  0.00  0.00    +0.000 A 
ATOM     21  C   UNL     1       0.539  10.918  20.029  0.00  0.00    +0.000 A 
ATOM     22  C   UNL     1      -0.081  11.129  21.263  0.00  0.00    +0.000 A 
ATOM     23  C   UNL     1      -0.138  10.104  22.197  0.00  0.00    +0.000 A 
ATOM     24  F   UNL     1      -0.737  10.328  23.375  0.00  0.00    +0.000 F 
ATOM     25  C   UNL     1       0.412   8.846  21.949  0.00  0.00    +0.000 A 
ATOM     26  C   UNL     1       1.032   8.642  20.706  0.00  0.00    +0.000 A 
ENDBRANCH  16  17
ENDBRANCH  15  16
ENDBRANCH  14  15
ENDBRANCH   1  14
TORSDOF 8
ENDMDL
MODEL 4
REMARK VINA RESULT:      -7.2      6.053      7.610
REMARK  Name = 
REMARK  9 active torsions:
REMARK  status: ('A' for Active; 'I' for Inactive)
REMARK    1  A    between atoms: C_1  and  N_2
REMARK    2  A    between atoms: N_2  and  C_3
REMARK    3  A    between atoms: C_3  and  C_4
REMARK    4  A    between atoms: C_4  and  C_5
REMARK    5  A    between atoms: C_5  and  C_6
REMARK    6  A    between atoms: C_6  and  C_7
REMARK    7  A    between atoms: C_7  and  N_8
REMARK    8  A    between atoms: C_18  and  O_20
REMARK    9  A    between atoms: O_20  and  C_21
REMARK                            x       y       z     vdW  Elec       q    Type
REMARK                         _______ _______ _______ _____ _____    ______ ____
ROOT
ATOM      1  C   UNL     1       7.585   7.336  17.364  0.00  0.00    +0.000 C 
ENDROOT
BRANCH   1   2
ATOM      2  C   UNL     1       6.269   6.648  17.746  0.00  0.00    +0.000 C 
BRANCH   2   4
ATOM      3  C   UNL     1       7.700   5.287  19.301  0.00  0.00    +0.000 C 
ATOM      4  N   UNL     1       6.466   5.443  18.555  0.00  0.00    +0.000 N 
ATOM      5  C   UNL     1       5.433   4.559  18.848  0.00  0.00    +0.000 C 
ATOM      6  O   UNL     1       5.559   3.598  19.604  0.00  0.00    +0.000 OA
BRANCH   5   7
ATOM      7  O   UNL     1       4.241   4.921  18.242  0.00  0.00    +0.000 OA
BRANCH   7   8
ATOM      8  C   UNL     1       3.093   4.361  18.815  0.00  0.00    +0.000 A 
ATOM      9  C   UNL     1       2.505   4.926  19.952  0.00  0.00    +0.000 A 
ATOM     10  C   UNL     1       1.295   4.431  20.426  0.00  0.00    +0.000 A 
ATOM     11  C   UNL     1       0.666   3.386  19.748  0.00  0.00    +0.000 A 
ATOM     12  C   UNL     1       1.248   2.835  18.605  0.00  0.00    +0.000 A 
ATOM     13  C   UNL     1       2.465   3.326  18.129  0.00  0.00    +0.000 A 
ENDBRANCH   7   8
ENDBRANCH   5   7
ENDBRANCH   2   4
ENDBRANCH   1   2
BRANCH   1  14
ATOM     14  C   UNL     1       7.516   8.858  17.550  0.00  0.00    +0.000 C 
BRANCH  14  15
ATOM     15  C   UNL     1       8.571   9.345  18.552  0.00  0.00    +0.000 C 
BRANCH  15  16
ATOM     16  C   UNL     1       9.295  10.606  18.072  0.00  0.00    +0.000 C 
BRANCH  16  17
ATOM     17  N   UNL     1       9.630  11.501  19.174  0.00  0.00    +0.000 N 
ATOM     18  C   UNL     1       9.487  11.176  20.501  0.00  0.00    +0.000 A 
ATOM     19  C   UNL     1       9.910  12.248  21.248  0.00  0.00    +0.000 A 
ATOM     20  C   UNL     1      10.333  13.266  20.353  0.00  0.00    +0.000 A 
ATOM     21  C   UNL     1      10.858  14.564  20.534  0.00  0.00    +0.000 A 
ATOM     22  C   UNL     1      11.184  15.334  19.415  0.00  0.00    +0.000 A 
ATOM     23  C   UNL     1      10.993  14.822  18.139  0.00  0.00    +0.000 A 
ATOM     24  F   UNL     1      11.312  15.578  17.079  0.00  0.00    +0.000 F 
ATOM     25  C   UNL     1      10.475  13.544  17.925  0.00  0.00    +0.000 A 
ATOM     26  C   UNL     1      10.151  12.777  19.054  0.00  0.00    +0.000 A 
ENDBRANCH  16  17
ENDBRANCH  15  16
ENDBRANCH  14  15
ENDBRANCH   1  14
TORSDOF 8
ENDMDL
MODEL 5
REMARK VINA RESULT:      -7.2      6.022      7.571
REMARK  Name = 
REMARK  9 active torsions:
REMARK  status: ('A' for Active; 'I' for Inactive)
REMARK    1  A    between atoms: C_1  and  N_2
REMARK    2  A    between atoms: N_2  and  C_3
REMARK    3  A    between atoms: C_3  and  C_4
REMARK    4  A    between atoms: C_4  and  C_5
REMARK    5  A    between atoms: C_5  and  C_6
REMARK    6  A    between atoms: C_6  and  C_7
REMARK    7  A    between atoms: C_7  and  N_8
REMARK    8  A    between atoms: C_18  and  O_20
REMARK    9  A    between atoms: O_20  and  C_21
REMARK                            x       y       z     vdW  Elec       q    Type
REMARK                         _______ _______ _______ _____ _____    ______ ____
ROOT
ATOM      1  C   UNL     1       7.670   7.460  17.232  0.00  0.00    +0.000 C 
ENDROOT
BRANCH   1   2
ATOM      2  C   UNL     1       6.306   6.869  17.609  0.00  0.00    +0.000 C 
BRANCH   2   4
ATOM      3  C   UNL     1       7.667   4.794  18.005  0.00  0.00    +0.000 C 
ATOM      4  N   UNL     1       6.388   5.476  18.054  0.00  0.00    +0.000 N 
ATOM      5  C   UNL     1       5.364   4.852  18.758  0.00  0.00    +0.000 C 
ATOM      6  O   UNL     1       5.456   3.718  19.222  0.00  0.00    +0.000 OA
BRANCH   5   7
ATOM      7  O   UNL     1       4.261   5.673  18.923  0.00  0.00    +0.000 OA
BRANCH   7   8
ATOM      8  C   UNL     1       3.057   5.003  19.174  0.00  0.00    +0.000 A 
ATOM      9  C   UNL     1       2.390   4.313  18.155  0.00  0.00    +0.000 A 
ATOM     10  C   UNL     1       1.268   3.548  18.456  0.00  0.00    +0.000 A 
ATOM     11  C   UNL     1       0.828   3.460  19.777  0.00  0.00    +0.000 A 
ATOM     12  C   UNL     1       1.505   4.139  20.793  0.00  0.00    +0.000 A 
ATOM     13  C   UNL     1       2.630   4.910  20.495  0.00  0.00    +0.000 A 
ENDBRANCH   7   8
ENDBRANCH   5   7
ENDBRANCH   2   4
ENDBRANCH   1   2
BRANCH   1  14
ATOM     14  C   UNL     1       8.277   8.285  18.376  0.00  0.00    +0.000 C 
BRANCH  14  15
ATOM     15  C   UNL     1       8.240   9.786  18.059  0.00  0.00    +0.000 C 
BRANCH  15  16
ATOM     16  C   UNL     1       9.616  10.445  18.194  0.00  0.00    +0.000 C 
BRANCH  16  17
ATOM     17  N   UNL     1       9.681  11.354  19.333  0.00  0.00    +0.000 N 
ATOM     18  C   UNL     1       9.296  11.019  20.609  0.00  0.00    +0.000 A 
ATOM     19  C   UNL     1       9.508  12.110  21.415  0.00  0.00    +0.000 A 
ATOM     20  C   UNL     1      10.045  13.151  20.612  0.00  0.00    +0.000 A 
ATOM     21  C   UNL     1      10.454  14.475  20.882  0.00  0.00    +0.000 A 
ATOM     22  C   UNL     1      10.953  15.264  19.842  0.00  0.00    +0.000 A 
ATOM     23  C   UNL     1      11.043  14.745  18.558  0.00  0.00    +0.000 A 
ATOM     24  F   UNL     1      11.524  15.520  17.575  0.00  0.00    +0.000 F 
ATOM     25  C   UNL     1      10.646  13.442  18.257  0.00  0.00    +0.000 A 
ATOM     26  C   UNL     1      10.147  12.656  19.307  0.00  0.00    +0.000 A 
ENDBRANCH  16  17
ENDBRANCH  15  16
ENDBRANCH  14  15
ENDBRANCH   1  14
TORSDOF 8
ENDMDL
MODEL 6
REMARK VINA RESULT:      -7.2      2.832      4.570
REMARK  Name = 
REMARK  9 active torsions:
REMARK  status: ('A' for Active; 'I' for Inactive)
REMARK    1  A    between atoms: C_1  and  N_2
REMARK    2  A    between atoms: N_2  and  C_3
REMARK    3  A    between atoms: C_3  and  C_4
REMARK    4  A    between atoms: C_4  and  C_5
REMARK    5  A    between atoms: C_5  and  C_6
REMARK    6  A    between atoms: C_6  and  C_7
REMARK    7  A    between atoms: C_7  and  N_8
REMARK    8  A    between atoms: C_18  and  O_20
REMARK    9  A    between atoms: O_20  and  C_21
REMARK                            x       y       z     vdW  Elec       q    Type
REMARK                         _______ _______ _______ _____ _____    ______ ____
ROOT
ATOM      1  C   UNL     1       4.312   6.824  17.194  0.00  0.00    +0.000 C 
ENDROOT
BRANCH   1   2
ATOM      2  C   UNL     1       5.818   7.105  17.236  0.00  0.00    +0.000 C 
BRANCH   2   4
ATOM      3  C   UNL     1       6.396   5.303  18.890  0.00  0.00    +0.000 C 
ATOM      4  N   UNL     1       6.611   5.928  17.599  0.00  0.00    +0.000 N 
ATOM      5  C   UNL     1       7.376   5.225  16.675  0.00  0.00    +0.000 C 
ATOM      6  O   UNL     1       7.967   4.181  16.941  0.00  0.00    +0.000 OA
BRANCH   5   7
ATOM      7  O   UNL     1       7.345   5.802  15.416  0.00  0.00    +0.000 OA
BRANCH   7   8
ATOM      8  C   UNL     1       6.908   4.957  14.389  0.00  0.00    +0.000 A 
ATOM      9  C   UNL     1       5.657   4.333  14.451  0.00  0.00    +0.000 A 
ATOM     10  C   UNL     1       5.191   3.603  13.363  0.00  0.00    +0.000 A 
ATOM     11  C   UNL     1       5.969   3.518  12.207  0.00  0.00    +0.000 A 
ATOM     12  C   UNL     1       7.210   4.154  12.143  0.00  0.00    +0.000 A 
ATOM     13  C   UNL     1       7.683   4.884  13.236  0.00  0.00    +0.000 A 
ENDBRANCH   7   8
ENDBRANCH   5   7
ENDBRANCH   2   4
ENDBRANCH   1   2
BRANCH   1  14
ATOM     14  C   UNL     1       3.481   8.098  17.402  0.00  0.00    +0.000 C 
BRANCH  14  15
ATOM     15  C   UNL     1       2.206   7.807  18.205  0.00  0.00    +0.000 C 
BRANCH  15  16
ATOM     16  C   UNL     1       1.398   9.075  18.498  0.00  0.00    +0.000 C 
BRANCH  16  17
ATOM     17  N   UNL     1       1.038   9.184  19.907  0.00  0.00    +0.000 N 
ATOM     18  C   UNL     1       1.524   8.359  20.893  0.00  0.00    +0.000 A 
ATOM     19  C   UNL     1       0.982   8.762  22.088  0.00  0.00    +0.000 A 
ATOM     20  C   UNL     1       0.137   9.874  21.833  0.00  0.00    +0.000 A 
ATOM     21  C   UNL     1      -0.667  10.693  22.655  0.00  0.00    +0.000 A 
ATOM     22  C   UNL     1      -1.397  11.736  22.079  0.00  0.00    +0.000 A 
ATOM     23  C   UNL     1      -1.328  11.960  20.711  0.00  0.00    +0.000 A 
ATOM     24  F   UNL     1      -2.037  12.967  20.180  0.00  0.00    +0.000 F 
ATOM     25  C   UNL     1      -0.544  11.170  19.871  0.00  0.00    +0.000 A 
ATOM     26  C   UNL     1       0.186  10.125  20.457  0.00  0.00    +0.000 A 
ENDBRANCH  16  17
ENDBRANCH  15  16
ENDBRANCH  14  15
ENDBRANCH   1  14
TORSDOF 8
ENDMDL
MODEL 7
REMARK VINA RESULT:      -7.2      1.449      3.465
REMARK  Name = 
REMARK  9 active torsions:
REMARK  status: ('A' for Active; 'I' for Inactive)
REMARK    1  A    between atoms: C_1  and  N_2
REMARK    2  A    between atoms: N_2  and  C_3
REMARK    3  A    between atoms: C_3  and  C_4
REMARK    4  A    between atoms: C_4  and  C_5
REMARK    5  A    between atoms: C_5  and  C_6
REMARK    6  A    between atoms: C_6  and  C_7
REMARK    7  A    between atoms: C_7  and  N_8
REMARK    8  A    between atoms: C_18  and  O_20
REMARK    9  A    between atoms: O_20  and  C_21
REMARK                            x       y       z     vdW  Elec       q    Type
REMARK                         _______ _______ _______ _____ _____    ______ ____
ROOT
ATOM      1  C   UNL     1       1.588   4.039  17.876  0.00  0.00    +0.000 C 
ENDROOT
BRANCH   1   2
ATOM      2  C   UNL     1       1.748   2.668  18.544  0.00  0.00    +0.000 C 
BRANCH   2   4
ATOM      3  C   UNL     1       2.438   2.355  20.941  0.00  0.00    +0.000 C 
ATOM      4  N   UNL     1       2.797   2.650  19.567  0.00  0.00    +0.000 N 
ATOM      5  C   UNL     1       4.152   2.649  19.253  0.00  0.00    +0.000 C 
ATOM      6  O   UNL     1       5.041   2.535  20.093  0.00  0.00    +0.000 OA
BRANCH   5   7
ATOM      7  O   UNL     1       4.377   2.730  17.888  0.00  0.00    +0.000 OA
BRANCH   7   8
ATOM      8  C   UNL     1       4.963   3.925  17.456  0.00  0.00    +0.000 A 
ATOM      9  C   UNL     1       4.907   4.313  16.113  0.00  0.00    +0.000 A 
ATOM     10  C   UNL     1       5.381   5.563  15.731  0.00  0.00    +0.000 A 
ATOM     11  C   UNL     1       5.891   6.430  16.697  0.00  0.00    +0.000 A 
ATOM     12  C   UNL     1       5.932   6.047  18.039  0.00  0.00    +0.000 A 
ATOM     13  C   UNL     1       5.461   4.791  18.426  0.00  0.00    +0.000 A 
ENDBRANCH   7   8
ENDBRANCH   5   7
ENDBRANCH   2   4
ENDBRANCH   1   2
BRANCH   1  14
ATOM     14  C   UNL     1       1.634   5.187  18.895  0.00  0.00    +0.000 C 
BRANCH  14  15
ATOM     15  C   UNL     1       2.214   6.462  18.272  0.00  0.00    +0.000 C 
BRANCH  15  16
ATOM     16  C   UNL     1       2.537   7.531  19.321  0.00  0.00    +0.000 C 
BRANCH  16  17
ATOM     17  N   UNL     1       1.588   8.638  19.287  0.00  0.00    +0.000 N 
ATOM     18  C   UNL     1       1.189   9.277  18.138  0.00  0.00    +0.000 A 
ATOM     19  C   UNL     1       0.287  10.251  18.486  0.00  0.00    +0.000 A 
ATOM     20  C   UNL     1       0.119  10.211  19.895  0.00  0.00    +0.000 A 
ATOM     21  C   UNL     1      -0.665  10.954  20.803  0.00  0.00    +0.000 A 
ATOM     22  C   UNL     1      -0.602  10.657  22.167  0.00  0.00    +0.000 A 
ATOM     23  C   UNL     1       0.226   9.638  22.619  0.00  0.00    +0.000 A 
ATOM     24  F   UNL     1       0.271   9.370  23.932  0.00  0.00    +0.000 F 
ATOM     25  C   UNL     1       1.014   8.885  21.749  0.00  0.00    +0.000 A 
ATOM     26  C   UNL     1       0.945   9.190  20.381  0.00  0.00    +0.000 A 
ENDBRANCH  16  17
ENDBRANCH  15  16
ENDBRANCH  14  15
ENDBRANCH   1  14
TORSDOF 8
ENDMDL
MODEL 8
REMARK VINA RESULT:      -7.1      5.215      6.712
REMARK  Name = 
REMARK  9 active torsions:
REMARK  status: ('A' for Active; 'I' for Inactive)
REMARK    1  A    between atoms: C_1  and  N_2
REMARK    2  A    between atoms: N_2  and  C_3
REMARK    3  A    between atoms: C_3  and  C_4
REMARK    4  A    between atoms: C_4  and  C_5
REMARK    5  A    between atoms: C_5  and  C_6
REMARK    6  A    between atoms: C_6  and  C_7
REMARK    7  A    between atoms: C_7  and  N_8
REMARK    8  A    between atoms: C_18  and  O_20
REMARK    9  A    between atoms: O_20  and  C_21
REMARK                            x       y       z     vdW  Elec       q    Type
REMARK                         _______ _______ _______ _____ _____    ______ ____
ROOT
ATOM      1  C   UNL     1       6.450   7.452  17.468  0.00  0.00    +0.000 C 
ENDROOT
BRANCH   1   2
ATOM      2  C   UNL     1       6.235   6.110  16.758  0.00  0.00    +0.000 C 
BRANCH   2   4
ATOM      3  C   UNL     1       7.787   4.654  18.093  0.00  0.00    +0.000 C 
ATOM      4  N   UNL     1       6.445   4.957  17.637  0.00  0.00    +0.000 N 
ATOM      5  C   UNL     1       5.397   4.290  18.262  0.00  0.00    +0.000 C 
ATOM      6  O   UNL     1       5.562   3.385  19.077  0.00  0.00    +0.000 OA
BRANCH   5   7
ATOM      7  O   UNL     1       4.159   4.800  17.906  0.00  0.00    +0.000 OA
BRANCH   7   8
ATOM      8  C   UNL     1       3.111   4.464  18.770  0.00  0.00    +0.000 A 
ATOM      9  C   UNL     1       2.957   5.106  20.004  0.00  0.00    +0.000 A 
ATOM     10  C   UNL     1       1.837   4.847  20.786  0.00  0.00    +0.000 A 
ATOM     11  C   UNL     1       0.863   3.962  20.322  0.00  0.00    +0.000 A 
ATOM     12  C   UNL     1       1.012   3.334  19.083  0.00  0.00    +0.000 A 
ATOM     13  C   UNL     1       2.137   3.589  18.297  0.00  0.00    +0.000 A 
ENDBRANCH   7   8
ENDBRANCH   5   7
ENDBRANCH   2   4
ENDBRANCH   1   2
BRANCH   1  14
ATOM     14  C   UNL     1       7.927   7.873  17.470  0.00  0.00    +0.000 C 
BRANCH  14  15
ATOM     15  C   UNL     1       8.082   9.361  17.811  0.00  0.00    +0.000 C 
BRANCH  15  16
ATOM     16  C   UNL     1       9.075   9.599  18.952  0.00  0.00    +0.000 C 
BRANCH  16  17
ATOM     17  N   UNL     1       9.628  10.949  18.927  0.00  0.00    +0.000 N 
ATOM     18  C   UNL     1      10.213  11.521  17.824  0.00  0.00    +0.000 A 
ATOM     19  C   UNL     1      10.602  12.794  18.163  0.00  0.00    +0.000 A 
ATOM     20  C   UNL     1      10.240  13.016  19.519  0.00  0.00    +0.000 A 
ATOM     21  C   UNL     1      10.379  14.113  20.395  0.00  0.00    +0.000 A 
ATOM     22  C   UNL     1       9.904  14.010  21.705  0.00  0.00    +0.000 A 
ATOM     23  C   UNL     1       9.301  12.836  22.134  0.00  0.00    +0.000 A 
ATOM     24  F   UNL     1       8.852  12.758  23.395  0.00  0.00    +0.000 F 
ATOM     25  C   UNL     1       9.148  11.732  21.295  0.00  0.00    +0.000 A 
ATOM     26  C   UNL     1       9.628  11.845  19.981  0.00  0.00    +0.000 A 
ENDBRANCH  16  17
ENDBRANCH  15  16
ENDBRANCH  14  15
ENDBRANCH   1  14
TORSDOF 8
ENDMDL
MODEL 9
REMARK VINA RESULT:      -7.1      5.639      7.486
REMARK  Name = 
REMARK  9 active torsions:
REMARK  status: ('A' for Active; 'I' for Inactive)
REMARK    1  A    between atoms: C_1  and  N_2
REMARK    2  A    between atoms: N_2  and  C_3
REMARK    3  A    between atoms: C_3  and  C_4
REMARK    4  A    between atoms: C_4  and  C_5
REMARK    5  A    between atoms: C_5  and  C_6
REMARK    6  A    between atoms: C_6  and  C_7
REMARK    7  A    between atoms: C_7  and  N_8
REMARK    8  A    between atoms: C_18  and  O_20
REMARK    9  A    between atoms: O_20  and  C_21
REMARK                            x       y       z     vdW  Elec       q    Type
REMARK                         _______ _______ _______ _____ _____    ______ ____
ROOT
ATOM      1  C   UNL     1       7.473   7.587  17.465  0.00  0.00    +0.000 C 
ENDROOT
BRANCH   1   2
ATOM      2  C   UNL     1       6.966   6.241  17.998  0.00  0.00    +0.000 C 
BRANCH   2   4
ATOM      3  C   UNL     1       6.230   5.421  15.740  0.00  0.00    +0.000 C 
ATOM      4  N   UNL     1       5.941   5.637  17.144  0.00  0.00    +0.000 N 
ATOM      5  C   UNL     1       4.801   5.027  17.657  0.00  0.00    +0.000 C 
ATOM      6  O   UNL     1       3.982   4.431  16.961  0.00  0.00    +0.000 OA
BRANCH   5   7
ATOM      7  O   UNL     1       4.730   5.118  19.037  0.00  0.00    +0.000 OA
BRANCH   7   8
ATOM      8  C   UNL     1       3.589   4.543  19.609  0.00  0.00    +0.000 A 
ATOM      9  C   UNL     1       3.590   3.212  20.042  0.00  0.00    +0.000 A 
ATOM     10  C   UNL     1       2.490   2.703  20.723  0.00  0.00    +0.000 A 
ATOM     11  C   UNL     1       1.400   3.533  20.989  0.00  0.00    +0.000 A 
ATOM     12  C   UNL     1       1.408   4.865  20.569  0.00  0.00    +0.000 A 
ATOM     13  C   UNL     1       2.509   5.378  19.881  0.00  0.00    +0.000 A 
ENDBRANCH   7   8
ENDBRANCH   5   7
ENDBRANCH   2   4
ENDBRANCH   1   2
BRANCH   1  14
ATOM     14  C   UNL     1       8.432   8.273  18.449  0.00  0.00    +0.000 C 
BRANCH  14  15
ATOM     15  C   UNL     1       8.564   9.770  18.146  0.00  0.00    +0.000 C 
BRANCH  15  16
ATOM     16  C   UNL     1       9.366  10.515  19.218  0.00  0.00    +0.000 C 
BRANCH  16  17
ATOM     17  N   UNL     1      10.149  11.610  18.657  0.00  0.00    +0.000 N 
ATOM     18  C   UNL     1      11.452  11.491  18.240  0.00  0.00    +0.000 A 
ATOM     19  C   UNL     1      11.858  12.712  17.760  0.00  0.00    +0.000 A 
ATOM     20  C   UNL     1      10.767  13.614  17.881  0.00  0.00    +0.000 A 
ATOM     21  C   UNL     1      10.592  14.977  17.558  0.00  0.00    +0.000 A 
ATOM     22  C   UNL     1       9.361  15.588  17.807  0.00  0.00    +0.000 A 
ATOM     23  C   UNL     1       8.323  14.857  18.368  0.00  0.00    +0.000 A 
ATOM     24  F   UNL     1       7.150  15.463  18.599  0.00  0.00    +0.000 F 
ATOM     25  C   UNL     1       8.463  13.509  18.700  0.00  0.00    +0.000 A 
ATOM     26  C   UNL     1       9.702  12.903  18.446  0.00  0.00    +0.000 A 
ENDBRANCH  16  17
ENDBRANCH  15  16
ENDBRANCH  14  15
ENDBRANCH   1  14
TORSDOF 8
ENDMDL
