MODEL 1
REMARK VINA RESULT:      -7.6      0.000      0.000
REMARK  Name = 
REMARK  7 active torsions:
REMARK  status: ('A' for Active; 'I' for Inactive)
REMARK    1  A    between atoms: C_1  and  O_2
REMARK    2  A    between atoms: O_2  and  C_3
REMARK    3  A    between atoms: C_7  and  N_8
REMARK    4  A    between atoms: C_9  and  C_11
REMARK    5  A    between atoms: C_11  and  C_12
REMARK    6  A    between atoms: C_12  and  N_13
REMARK    7  A    between atoms: N_16  and  C_17
REMARK                            x       y       z     vdW  Elec       q    Type
REMARK                         _______ _______ _______ _____ _____    ______ ____
ROOT
ATOM      1  C   UNL     1       8.150   7.510  18.121  0.00  0.00    +0.000 C 
ENDROOT
BRANCH   1   2
ATOM      2  N   UNL     1       7.619   6.572  17.103  0.00  0.00    +0.000 NA
ATOM      3  C   UNL     1       7.525   5.172  17.598  0.00  0.00    +0.000 C 
ATOM      4  C   UNL     1       6.502   4.978  18.729  0.00  0.00    +0.000 C 
ATOM      5  N   UNL     1       5.185   5.463  18.302  0.00  0.00    +0.000 N 
ATOM      6  C   UNL     1       5.119   6.790  17.671  0.00  0.00    +0.000 C 
ATOM      7  C   UNL     1       6.266   6.980  16.647  0.00  0.00    +0.000 C 
BRANCH   5   8
ATOM      8  C   UNL     1       4.059   4.677  18.410  0.00  0.00    +0.000 A 
ATOM      9  C   UNL     1       2.781   5.244  18.530  0.00  0.00    +0.000 A 
ATOM     10  C   UNL     1       1.637   4.446  18.627  0.00  0.00    +0.000 A 
ATOM     11  C   UNL     1       1.755   3.061  18.603  0.00  0.00    +0.000 A 
ATOM     12 CL   UNL     1       0.353   2.074  18.711  0.00  0.00    +0.000 Cl
ATOM     13  C   UNL     1       3.007   2.471  18.483  0.00  0.00    +0.000 A 
ATOM     14  C   UNL     1       4.143   3.276  18.390  0.00  0.00    +0.000 A 
ENDBRANCH   5   8
ENDBRANCH   1   2
BRANCH   1  15
ATOM     15  C   UNL     1       8.056   8.985  17.701  0.00  0.00    +0.000 C 
BRANCH  15  17
ATOM     16  N   UNL     1       9.374  11.027  17.820  0.00  0.00    +0.000 N 
ATOM     17  C   UNL     1       8.886   9.958  18.534  0.00  0.00    +0.000 C 
ATOM     18  O   UNL     1       9.103   9.719  19.720  0.00  0.00    +0.000 OA
ATOM     19  H   UNL     1       9.042  11.097  16.856  0.00  0.00    +0.000 HD
BRANCH  16  24
ATOM     20  C   UNL     1      10.611  14.462  18.255  0.00  0.00    +0.000 A 
ATOM     21  C   UNL     1      11.759  14.253  19.022  0.00  0.00    +0.000 A 
ATOM     22  C   UNL     1      12.145  12.959  19.376  0.00  0.00    +0.000 A 
ATOM     23  C   UNL     1      11.371  11.866  18.990  0.00  0.00    +0.000 A 
ATOM     24  C   UNL     1      10.212  12.066  18.246  0.00  0.00    +0.000 A 
ATOM     25  C   UNL     1       9.840  13.366  17.872  0.00  0.00    +0.000 A 
BRANCH  20  27
ATOM     26  C   UNL     1       8.947  16.071  17.769  0.00  0.00    +0.000 C 
ATOM     27  O   UNL     1      10.324  15.767  17.966  0.00  0.00    +0.000 OA
ENDBRANCH  20  27
ENDBRANCH  16  24
ENDBRANCH  15  17
ENDBRANCH   1  15
TORSDOF 6
ENDMDL
MODEL 2
REMARK VINA RESULT:      -7.5      1.070      1.180
REMARK  Name = 
REMARK  7 active torsions:
REMARK  status: ('A' for Active; 'I' for Inactive)
REMARK    1  A    between atoms: C_1  and  O_2
REMARK    2  A    between atoms: O_2  and  C_3
REMARK    3  A    between atoms: C_7  and  N_8
REMARK    4  A    between atoms: C_9  and  C_11
REMARK    5  A    between atoms: C_11  and  C_12
REMARK    6  A    between atoms: C_12  and  N_13
REMARK    7  A    between atoms: N_16  and  C_17
REMARK                            x       y       z     vdW  Elec       q    Type
REMARK                         _______ _______ _______ _____ _____    ______ ____
ROOT
ATOM      1  C   UNL     1       8.082   7.718  18.495  0.00  0.00    +0.000 C 
ENDROOT
BRANCH   1   2
ATOM      2  N   UNL     1       7.782   6.548  17.636  0.00  0.00    +0.000 NA
ATOM      3  C   UNL     1       7.587   5.294  18.411  0.00  0.00    +0.000 C 
ATOM      4  C   UNL     1       6.347   5.308  19.319  0.00  0.00    +0.000 C 
ATOM      5  N   UNL     1       5.151   5.616  18.528  0.00  0.00    +0.000 N 
ATOM      6  C   UNL     1       5.218   6.760  17.607  0.00  0.00    +0.000 C 
ATOM      7  C   UNL     1       6.557   6.772  16.827  0.00  0.00    +0.000 C 
BRANCH   5   8
ATOM      8  C   UNL     1       4.028   4.818  18.580  0.00  0.00    +0.000 A 
ATOM      9  C   UNL     1       2.879   5.125  17.837  0.00  0.00    +0.000 A 
ATOM     10  C   UNL     1       1.744   4.309  17.881  0.00  0.00    +0.000 A 
ATOM     11  C   UNL     1       1.746   3.164  18.670  0.00  0.00    +0.000 A 
ATOM     12 CL   UNL     1       0.360   2.151  18.719  0.00  0.00    +0.000 Cl
ATOM     13  C   UNL     1       2.870   2.833  19.414  0.00  0.00    +0.000 A 
ATOM     14  C   UNL     1       3.996   3.657  19.367  0.00  0.00    +0.000 A 
ENDBRANCH   5   8
ENDBRANCH   1   2
BRANCH   1  15
ATOM     15  C   UNL     1       8.132   9.046  17.725  0.00  0.00    +0.000 C 
BRANCH  15  17
ATOM     16  N   UNL     1       8.803  11.386  17.756  0.00  0.00    +0.000 N 
ATOM     17  C   UNL     1       8.842  10.193  18.440  0.00  0.00    +0.000 C 
ATOM     18  O   UNL     1       9.423   9.986  19.503  0.00  0.00    +0.000 OA
ATOM     19  H   UNL     1       8.222  11.388  16.916  0.00  0.00    +0.000 HD
BRANCH  16  24
ATOM     20  C   UNL     1       9.031  14.881  18.872  0.00  0.00    +0.000 A 
ATOM     21  C   UNL     1      10.406  15.113  18.794  0.00  0.00    +0.000 A 
ATOM     22  C   UNL     1      11.265  14.111  18.339  0.00  0.00    +0.000 A 
ATOM     23  C   UNL     1      10.760  12.860  17.987  0.00  0.00    +0.000 A 
ATOM     24  C   UNL     1       9.395  12.612  18.085  0.00  0.00    +0.000 A 
ATOM     25  C   UNL     1       8.531  13.629  18.520  0.00  0.00    +0.000 A 
BRANCH  20  27
ATOM     26  C   UNL     1       7.719  15.768  20.628  0.00  0.00    +0.000 C 
ATOM     27  O   UNL     1       8.282  15.929  19.331  0.00  0.00    +0.000 OA
ENDBRANCH  20  27
ENDBRANCH  16  24
ENDBRANCH  15  17
ENDBRANCH   1  15
TORSDOF 6
ENDMDL
MODEL 3
REMARK VINA RESULT:      -7.4      2.044      2.189
REMARK  Name = 
REMARK  7 active torsions:
REMARK  status: ('A' for Active; 'I' for Inactive)
REMARK    1  A    between atoms: C_1  and  O_2
REMARK    2  A    between atoms: O_2  and  C_3
REMARK    3  A    between atoms: C_7  and  N_8
REMARK    4  A    between atoms: C_9  and  C_11
REMARK    5  A    between atoms: C_11  and  C_12
REMARK    6  A    between atoms: C_12  and  N_13
REMARK    7  A    between atoms: N_16  and  C_17
REMARK                            x       y       z     vdW  Elec       q    Type
REMARK                         _______ _______ _______ _____ _____    ______ ____
ROOT
ATOM      1  C   UNL     1       7.566   7.663  17.353  0.00  0.00    +0.000 C 
ENDROOT
BRANCH   1   2
ATOM      2  N   UNL     1       7.547   6.194  17.158  0.00  0.00    +0.000 NA
ATOM      3  C   UNL     1       7.264   5.446  18.412  0.00  0.00    +0.000 C 
ATOM      4  C   UNL     1       5.852   5.679  18.973  0.00  0.00    +0.000 C 
ATOM      5  N   UNL     1       4.849   5.366  17.949  0.00  0.00    +0.000 N 
ATOM      6  C   UNL     1       5.049   5.928  16.605  0.00  0.00    +0.000 C 
ATOM      7  C   UNL     1       6.526   5.796  16.157  0.00  0.00    +0.000 C 
BRANCH   5   8
ATOM      8  C   UNL     1       3.800   4.511  18.207  0.00  0.00    +0.000 A 
ATOM      9  C   UNL     1       2.497   4.803  17.776  0.00  0.00    +0.000 A 
ATOM     10  C   UNL     1       1.434   3.930  18.027  0.00  0.00    +0.000 A 
ATOM     11  C   UNL     1       1.662   2.743  18.714  0.00  0.00    +0.000 A 
ATOM     12 CL   UNL     1       0.364   1.660  19.017  0.00  0.00    +0.000 Cl
ATOM     13  C   UNL     1       2.941   2.426  19.151  0.00  0.00    +0.000 A 
ATOM     14  C   UNL     1       3.995   3.306  18.899  0.00  0.00    +0.000 A 
ENDBRANCH   5   8
ENDBRANCH   1   2
BRANCH   1  15
ATOM     15  C   UNL     1       8.453   8.114  18.523  0.00  0.00    +0.000 C 
BRANCH  15  17
ATOM     16  N   UNL     1       9.487   9.988  19.682  0.00  0.00    +0.000 N 
ATOM     17  C   UNL     1       8.745   9.610  18.587  0.00  0.00    +0.000 C 
ATOM     18  O   UNL     1       8.282  10.362  17.732  0.00  0.00    +0.000 OA
ATOM     19  H   UNL     1       9.838   9.220  20.257  0.00  0.00    +0.000 HD
BRANCH  16  24
ATOM     20  C   UNL     1       9.336  13.220  21.428  0.00  0.00    +0.000 A 
ATOM     21  C   UNL     1      10.514  13.830  20.995  0.00  0.00    +0.000 A 
ATOM     22  C   UNL     1      11.356  13.177  20.093  0.00  0.00    +0.000 A 
ATOM     23  C   UNL     1      11.040  11.897  19.638  0.00  0.00    +0.000 A 
ATOM     24  C   UNL     1       9.880  11.272  20.083  0.00  0.00    +0.000 A 
ATOM     25  C   UNL     1       9.024  11.940  20.972  0.00  0.00    +0.000 A 
BRANCH  20  27
ATOM     26  C   UNL     1       8.379  13.348  23.587  0.00  0.00    +0.000 C 
ATOM     27  O   UNL     1       8.587  13.946  22.312  0.00  0.00    +0.000 OA
ENDBRANCH  20  27
ENDBRANCH  16  24
ENDBRANCH  15  17
ENDBRANCH   1  15
TORSDOF 6
ENDMDL
MODEL 4
REMARK VINA RESULT:      -7.3      2.152      2.554
REMARK  Name = 
REMARK  7 active torsions:
REMARK  status: ('A' for Active; 'I' for Inactive)
REMARK    1  A    between atoms: C_1  and  O_2
REMARK    2  A    between atoms: O_2  and  C_3
REMARK    3  A    between atoms: C_7  and  N_8
REMARK    4  A    between atoms: C_9  and  C_11
REMARK    5  A    between atoms: C_11  and  C_12
REMARK    6  A    between atoms: C_12  and  N_13
REMARK    7  A    between atoms: N_16  and  C_17
REMARK                            x       y       z     vdW  Elec       q    Type
REMARK                         _______ _______ _______ _____ _____    ______ ____
ROOT
ATOM      1  C   UNL     1       7.192   7.616  17.025  0.00  0.00    +0.000 C 
ENDROOT
BRANCH   1   2
ATOM      2  N   UNL     1       6.953   6.162  16.864  0.00  0.00    +0.000 NA
ATOM      3  C   UNL     1       7.214   5.390  18.108  0.00  0.00    +0.000 C 
ATOM      4  C   UNL     1       6.246   5.715  19.258  0.00  0.00    +0.000 C 
ATOM      5  N   UNL     1       4.861   5.524  18.814  0.00  0.00    +0.000 N 
ATOM      6  C   UNL     1       4.468   6.121  17.529  0.00  0.00    +0.000 C 
ATOM      7  C   UNL     1       5.554   5.888  16.449  0.00  0.00    +0.000 C 
BRANCH   5   8
ATOM      8  C   UNL     1       3.976   4.748  19.530  0.00  0.00    +0.000 A 
ATOM      9  C   UNL     1       4.191   3.373  19.711  0.00  0.00    +0.000 A 
ATOM     10  C   UNL     1       3.300   2.587  20.448  0.00  0.00    +0.000 A 
ATOM     11  C   UNL     1       2.175   3.170  21.021  0.00  0.00    +0.000 A 
ATOM     12 CL   UNL     1       1.081   2.214  21.937  0.00  0.00    +0.000 Cl
ATOM     13  C   UNL     1       1.937   4.529  20.862  0.00  0.00    +0.000 A 
ATOM     14  C   UNL     1       2.831   5.304  20.121  0.00  0.00    +0.000 A 
ENDBRANCH   5   8
ENDBRANCH   1   2
BRANCH   1  15
ATOM     15  C   UNL     1       8.240   7.950  18.097  0.00  0.00    +0.000 C 
BRANCH  15  17
ATOM     16  N   UNL     1       9.421   9.700  19.308  0.00  0.00    +0.000 N 
ATOM     17  C   UNL     1       8.508   9.436  18.313  0.00  0.00    +0.000 C 
ATOM     18  O   UNL     1       7.888  10.272  17.658  0.00  0.00    +0.000 OA
ATOM     19  H   UNL     1       9.881   8.879  19.705  0.00  0.00    +0.000 HD
BRANCH  16  24
ATOM     20  C   UNL     1       9.575  12.622  21.533  0.00  0.00    +0.000 A 
ATOM     21  C   UNL     1      10.593  13.373  20.943  0.00  0.00    +0.000 A 
ATOM     22  C   UNL     1      11.218  12.922  19.779  0.00  0.00    +0.000 A 
ATOM     23  C   UNL     1      10.848  11.703  19.211  0.00  0.00    +0.000 A 
ATOM     24  C   UNL     1       9.852  10.936  19.806  0.00  0.00    +0.000 A 
ATOM     25  C   UNL     1       9.209  11.404  20.964  0.00  0.00    +0.000 A 
BRANCH  20  27
ATOM     26  C   UNL     1       8.466  14.454  22.537  0.00  0.00    +0.000 C 
ATOM     27  O   UNL     1       9.033  13.155  22.670  0.00  0.00    +0.000 OA
ENDBRANCH  20  27
ENDBRANCH  16  24
ENDBRANCH  15  17
ENDBRANCH   1  15
TORSDOF 6
ENDMDL
MODEL 5
REMARK VINA RESULT:      -7.3      0.517      1.013
REMARK  Name = 
REMARK  7 active torsions:
REMARK  status: ('A' for Active; 'I' for Inactive)
REMARK    1  A    between atoms: C_1  and  O_2
REMARK    2  A    between atoms: O_2  and  C_3
REMARK    3  A    between atoms: C_7  and  N_8
REMARK    4  A    between atoms: C_9  and  C_11
REMARK    5  A    between atoms: C_11  and  C_12
REMARK    6  A    between atoms: C_12  and  N_13
REMARK    7  A    between atoms: N_16  and  C_17
REMARK                            x       y       z     vdW  Elec       q    Type
REMARK                         _______ _______ _______ _____ _____    ______ ____
ROOT
ATOM      1  C   UNL     1       8.130   7.427  17.729  0.00  0.00    +0.000 C 
ENDROOT
BRANCH   1   2
ATOM      2  N   UNL     1       7.455   6.632  16.676  0.00  0.00    +0.000 NA
ATOM      3  C   UNL     1       7.384   5.183  17.000  0.00  0.00    +0.000 C 
ATOM      4  C   UNL     1       6.500   4.857  18.215  0.00  0.00    +0.000 C 
ATOM      5  N   UNL     1       5.155   5.407  18.018  0.00  0.00    +0.000 N 
ATOM      6  C   UNL     1       5.049   6.804  17.571  0.00  0.00    +0.000 C 
ATOM      7  C   UNL     1       6.069   7.110  16.445  0.00  0.00    +0.000 C 
BRANCH   5   8
ATOM      8  C   UNL     1       4.029   4.627  18.165  0.00  0.00    +0.000 A 
ATOM      9  C   UNL     1       3.938   3.358  17.575  0.00  0.00    +0.000 A 
ATOM     10  C   UNL     1       2.800   2.561  17.734  0.00  0.00    +0.000 A 
ATOM     11  C   UNL     1       1.733   3.023  18.495  0.00  0.00    +0.000 A 
ATOM     12 CL   UNL     1       0.336   2.045  18.706  0.00  0.00    +0.000 Cl
ATOM     13  C   UNL     1       1.796   4.275  19.095  0.00  0.00    +0.000 A 
ATOM     14  C   UNL     1       2.934   5.065  18.926  0.00  0.00    +0.000 A 
ENDBRANCH   5   8
ENDBRANCH   1   2
BRANCH   1  15
ATOM     15  C   UNL     1       7.796   8.925  17.674  0.00  0.00    +0.000 C 
BRANCH  15  17
ATOM     16  N   UNL     1       9.231  10.891  17.680  0.00  0.00    +0.000 N 
ATOM     17  C   UNL     1       8.756   9.840  18.430  0.00  0.00    +0.000 C 
ATOM     18  O   UNL     1       9.074   9.573  19.586  0.00  0.00    +0.000 OA
ATOM     19  H   UNL     1       8.811  10.992  16.755  0.00  0.00    +0.000 HD
BRANCH  16  24
ATOM     20  C   UNL     1      10.581  14.254  18.298  0.00  0.00    +0.000 A 
ATOM     21  C   UNL     1      11.884  13.964  18.710  0.00  0.00    +0.000 A 
ATOM     22  C   UNL     1      12.331  12.643  18.756  0.00  0.00    +0.000 A 
ATOM     23  C   UNL     1      11.470  11.598  18.419  0.00  0.00    +0.000 A 
ATOM     24  C   UNL     1      10.163  11.876  18.032  0.00  0.00    +0.000 A 
ATOM     25  C   UNL     1       9.724  13.208  17.964  0.00  0.00    +0.000 A 
BRANCH  20  27
ATOM     26  C   UNL     1       9.231  15.969  19.210  0.00  0.00    +0.000 C 
ATOM     27  O   UNL     1      10.247  15.580  18.292  0.00  0.00    +0.000 OA
ENDBRANCH  20  27
ENDBRANCH  16  24
ENDBRANCH  15  17
ENDBRANCH   1  15
TORSDOF 6
ENDMDL
MODEL 6
REMARK VINA RESULT:      -7.2      6.763      8.243
REMARK  Name = 
REMARK  7 active torsions:
REMARK  status: ('A' for Active; 'I' for Inactive)
REMARK    1  A    between atoms: C_1  and  O_2
REMARK    2  A    between atoms: O_2  and  C_3
REMARK    3  A    between atoms: C_7  and  N_8
REMARK    4  A    between atoms: C_9  and  C_11
REMARK    5  A    between atoms: C_11  and  C_12
REMARK    6  A    between atoms: C_12  and  N_13
REMARK    7  A    between atoms: N_16  and  C_17
REMARK                            x       y       z     vdW  Elec       q    Type
REMARK                         _______ _______ _______ _____ _____    ______ ____
ROOT
ATOM      1  C   UNL     1       2.402   2.658  20.252  0.00  0.00    +0.000 C 
ENDROOT
BRANCH   1   2
ATOM      2  N   UNL     1       3.675   2.033  19.820  0.00  0.00    +0.000 NA
ATOM      3  C   UNL     1       3.632   1.538  18.419  0.00  0.00    +0.000 C 
ATOM      4  C   UNL     1       3.488   2.651  17.368  0.00  0.00    +0.000 C 
ATOM      5  N   UNL     1       4.562   3.637  17.533  0.00  0.00    +0.000 N 
ATOM      6  C   UNL     1       4.823   4.139  18.891  0.00  0.00    +0.000 C 
ATOM      7  C   UNL     1       4.808   2.987  19.926  0.00  0.00    +0.000 C 
BRANCH   5   8
ATOM      8  C   UNL     1       5.355   4.022  16.474  0.00  0.00    +0.000 A 
ATOM      9  C   UNL     1       4.903   3.924  15.150  0.00  0.00    +0.000 A 
ATOM     10  C   UNL     1       5.703   4.326  14.076  0.00  0.00    +0.000 A 
ATOM     11  C   UNL     1       6.973   4.840  14.314  0.00  0.00    +0.000 A 
ATOM     12 CL   UNL     1       7.957   5.347  13.001  0.00  0.00    +0.000 Cl
ATOM     13  C   UNL     1       7.446   4.952  15.615  0.00  0.00    +0.000 A 
ATOM     14  C   UNL     1       6.641   4.544  16.680  0.00  0.00    +0.000 A 
ENDBRANCH   5   8
ENDBRANCH   1   2
BRANCH   1  15
ATOM     15  C   UNL     1       2.584   4.052  20.871  0.00  0.00    +0.000 C 
BRANCH  15  17
ATOM     16  N   UNL     1       2.177   6.441  20.650  0.00  0.00    +0.000 N 
ATOM     17  C   UNL     1       1.981   5.206  20.076  0.00  0.00    +0.000 C 
ATOM     18  O   UNL     1       1.345   4.977  19.050  0.00  0.00    +0.000 OA
ATOM     19  H   UNL     1       2.782   6.449  21.473  0.00  0.00    +0.000 HD
BRANCH  16  24
ATOM     20  C   UNL     1       0.390   9.651  20.797  0.00  0.00    +0.000 A 
ATOM     21  C   UNL     1       0.713  10.211  19.559  0.00  0.00    +0.000 A 
ATOM     22  C   UNL     1       1.509   9.507  18.653  0.00  0.00    +0.000 A 
ATOM     23  C   UNL     1       2.010   8.250  18.988  0.00  0.00    +0.000 A 
ATOM     24  C   UNL     1       1.713   7.695  20.229  0.00  0.00    +0.000 A 
ATOM     25  C   UNL     1       0.894   8.395  21.129  0.00  0.00    +0.000 A 
BRANCH  20  27
ATOM     26  C   UNL     1      -0.455  10.029  22.973  0.00  0.00    +0.000 C 
ATOM     27  O   UNL     1      -0.392  10.426  21.607  0.00  0.00    +0.000 OA
ENDBRANCH  20  27
ENDBRANCH  16  24
ENDBRANCH  15  17
ENDBRANCH   1  15
TORSDOF 6
ENDMDL
MODEL 7
REMARK VINA RESULT:      -7.1      2.040      2.200
REMARK  Name = 
REMARK  7 active torsions:
REMARK  status: ('A' for Active; 'I' for Inactive)
REMARK    1  A    between atoms: C_1  and  O_2
REMARK    2  A    between atoms: O_2  and  C_3
REMARK    3  A    between atoms: C_7  and  N_8
REMARK    4  A    between atoms: C_9  and  C_11
REMARK    5  A    between atoms: C_11  and  C_12
REMARK    6  A    between atoms: C_12  and  N_13
REMARK    7  A    between atoms: N_16  and  C_17
REMARK                            x       y       z     vdW  Elec       q    Type
REMARK                         _______ _______ _______ _____ _____    ______ ____
ROOT
ATOM      1  C   UNL     1       7.758   7.831  17.472  0.00  0.00    +0.000 C 
ENDROOT
BRANCH   1   2
ATOM      2  N   UNL     1       7.781   6.357  17.311  0.00  0.00    +0.000 NA
ATOM      3  C   UNL     1       7.459   5.631  18.568  0.00  0.00    +0.000 C 
ATOM      4  C   UNL     1       6.018   5.843  19.060  0.00  0.00    +0.000 C 
ATOM      5  N   UNL     1       5.069   5.484  18.000  0.00  0.00    +0.000 N 
ATOM      6  C   UNL     1       5.317   6.020  16.654  0.00  0.00    +0.000 C 
ATOM      7  C   UNL     1       6.815   5.913  16.275  0.00  0.00    +0.000 C 
BRANCH   5   8
ATOM      8  C   UNL     1       4.029   4.610  18.231  0.00  0.00    +0.000 A 
ATOM      9  C   UNL     1       3.924   3.902  19.438  0.00  0.00    +0.000 A 
ATOM     10  C   UNL     1       2.861   3.025  19.677  0.00  0.00    +0.000 A 
ATOM     11  C   UNL     1       1.881   2.846  18.708  0.00  0.00    +0.000 A 
ATOM     12 CL   UNL     1       0.567   1.779  18.999  0.00  0.00    +0.000 Cl
ATOM     13  C   UNL     1       1.957   3.535  17.505  0.00  0.00    +0.000 A 
ATOM     14  C   UNL     1       3.024   4.406  17.274  0.00  0.00    +0.000 A 
ENDBRANCH   5   8
ENDBRANCH   1   2
BRANCH   1  15
ATOM     15  C   UNL     1       8.557   8.326  18.686  0.00  0.00    +0.000 C 
BRANCH  15  17
ATOM     16  N   UNL     1       9.525  10.239  19.837  0.00  0.00    +0.000 N 
ATOM     17  C   UNL     1       8.840   9.825  18.719  0.00  0.00    +0.000 C 
ATOM     18  O   UNL     1       8.417  10.548  17.819  0.00  0.00    +0.000 OA
ATOM     19  H   UNL     1       9.850   9.491  20.452  0.00  0.00    +0.000 HD
BRANCH  16  24
ATOM     20  C   UNL     1       9.306  13.499  21.523  0.00  0.00    +0.000 A 
ATOM     21  C   UNL     1      10.477  14.121  21.088  0.00  0.00    +0.000 A 
ATOM     22  C   UNL     1      11.337  13.467  20.203  0.00  0.00    +0.000 A 
ATOM     23  C   UNL     1      11.046  12.174  19.769  0.00  0.00    +0.000 A 
ATOM     24  C   UNL     1       9.893  11.537  20.218  0.00  0.00    +0.000 A 
ATOM     25  C   UNL     1       9.020  12.206  21.089  0.00  0.00    +0.000 A 
BRANCH  20  27
ATOM     26  C   UNL     1       9.211  15.271  23.087  0.00  0.00    +0.000 C 
ATOM     27  O   UNL     1       8.539  14.228  22.389  0.00  0.00    +0.000 OA
ENDBRANCH  20  27
ENDBRANCH  16  24
ENDBRANCH  15  17
ENDBRANCH   1  15
TORSDOF 6
ENDMDL
MODEL 8
REMARK VINA RESULT:      -6.9      7.611     10.714
REMARK  Name = 
REMARK  7 active torsions:
REMARK  status: ('A' for Active; 'I' for Inactive)
REMARK    1  A    between atoms: C_1  and  O_2
REMARK    2  A    between atoms: O_2  and  C_3
REMARK    3  A    between atoms: C_7  and  N_8
REMARK    4  A    between atoms: C_9  and  C_11
REMARK    5  A    between atoms: C_11  and  C_12
REMARK    6  A    between atoms: C_12  and  N_13
REMARK    7  A    between atoms: N_16  and  C_17
REMARK                            x       y       z     vdW  Elec       q    Type
REMARK                         _______ _______ _______ _____ _____    ______ ____
ROOT
ATOM      1  C   UNL     1       0.510  10.216  18.431  0.00  0.00    +0.000 C 
ENDROOT
BRANCH   1   2
ATOM      2  N   UNL     1       0.585  11.594  18.971  0.00  0.00    +0.000 NA
ATOM      3  C   UNL     1      -0.546  12.453  18.528  0.00  0.00    +0.000 C 
ATOM      4  C   UNL     1      -1.916  12.007  19.066  0.00  0.00    +0.000 C 
ATOM      5  N   UNL     1      -1.875  11.925  20.530  0.00  0.00    +0.000 N 
ATOM      6  C   UNL     1      -0.743  11.212  21.141  0.00  0.00    +0.000 C 
ATOM      7  C   UNL     1       0.594  11.593  20.455  0.00  0.00    +0.000 C 
BRANCH   5   8
ATOM      8  C   UNL     1      -2.815  12.558  21.313  0.00  0.00    +0.000 A 
ATOM      9  C   UNL     1      -2.711  12.572  22.712  0.00  0.00    +0.000 A 
ATOM     10  C   UNL     1      -3.659  13.225  23.506  0.00  0.00    +0.000 A 
ATOM     11  C   UNL     1      -4.729  13.880  22.908  0.00  0.00    +0.000 A 
ATOM     12 CL   UNL     1      -5.891  14.694  23.876  0.00  0.00    +0.000 Cl
ATOM     13  C   UNL     1      -4.857  13.885  21.525  0.00  0.00    +0.000 A 
ATOM     14  C   UNL     1      -3.908  13.227  20.741  0.00  0.00    +0.000 A 
ENDBRANCH   5   8
ENDBRANCH   1   2
BRANCH   1  15
ATOM     15  C   UNL     1       1.878   9.636  18.042  0.00  0.00    +0.000 C 
BRANCH  15  17
ATOM     16  N   UNL     1       2.845   7.419  17.772  0.00  0.00    +0.000 N 
ATOM     17  C   UNL     1       2.209   8.273  18.643  0.00  0.00    +0.000 C 
ATOM     18  O   UNL     1       1.861   8.010  19.792  0.00  0.00    +0.000 OA
ATOM     19  H   UNL     1       3.110   7.829  16.874  0.00  0.00    +0.000 HD
BRANCH  16  24
ATOM     20  C   UNL     1       5.074   4.573  18.439  0.00  0.00    +0.000 A 
ATOM     21  C   UNL     1       4.182   3.499  18.394  0.00  0.00    +0.000 A 
ATOM     22  C   UNL     1       2.832   3.715  18.112  0.00  0.00    +0.000 A 
ATOM     23  C   UNL     1       2.358   5.009  17.900  0.00  0.00    +0.000 A 
ATOM     24  C   UNL     1       3.235   6.087  17.967  0.00  0.00    +0.000 A 
ATOM     25  C   UNL     1       4.596   5.864  18.228  0.00  0.00    +0.000 A 
BRANCH  20  27
ATOM     26  C   UNL     1       7.353   4.785  17.845  0.00  0.00    +0.000 C 
ATOM     27  O   UNL     1       6.371   4.249  18.725  0.00  0.00    +0.000 OA
ENDBRANCH  20  27
ENDBRANCH  16  24
ENDBRANCH  15  17
ENDBRANCH   1  15
TORSDOF 6
ENDMDL
MODEL 9
REMARK VINA RESULT:      -6.9      6.615      8.606
REMARK  Name = 
REMARK  7 active torsions:
REMARK  status: ('A' for Active; 'I' for Inactive)
REMARK    1  A    between atoms: C_1  and  O_2
REMARK    2  A    between atoms: O_2  and  C_3
REMARK    3  A    between atoms: C_7  and  N_8
REMARK    4  A    between atoms: C_9  and  C_11
REMARK    5  A    between atoms: C_11  and  C_12
REMARK    6  A    between atoms: C_12  and  N_13
REMARK    7  A    between atoms: N_16  and  C_17
REMARK                            x       y       z     vdW  Elec       q    Type
REMARK                         _______ _______ _______ _____ _____    ______ ____
ROOT
ATOM      1  C   UNL     1       4.066   4.405  18.568  0.00  0.00    +0.000 C 
ENDROOT
BRANCH   1   2
ATOM      2  N   UNL     1       2.687   4.823  18.220  0.00  0.00    +0.000 NA
ATOM      3  C   UNL     1       1.759   4.785  19.381  0.00  0.00    +0.000 C 
ATOM      4  C   UNL     1       2.098   5.801  20.484  0.00  0.00    +0.000 C 
ATOM      5  N   UNL     1       2.158   7.153  19.917  0.00  0.00    +0.000 N 
ATOM      6  C   UNL     1       2.938   7.341  18.685  0.00  0.00    +0.000 C 
ATOM      7  C   UNL     1       2.664   6.202  17.671  0.00  0.00    +0.000 C 
BRANCH   5   8
ATOM      8  C   UNL     1       1.447   8.197  20.468  0.00  0.00    +0.000 A 
ATOM      9  C   UNL     1       0.916   9.220  19.669  0.00  0.00    +0.000 A 
ATOM     10  C   UNL     1       0.184  10.273  20.227  0.00  0.00    +0.000 A 
ATOM     11  C   UNL     1      -0.031  10.315  21.600  0.00  0.00    +0.000 A 
ATOM     12 CL   UNL     1      -0.939  11.599  22.291  0.00  0.00    +0.000 Cl
ATOM     13  C   UNL     1       0.480   9.314  22.415  0.00  0.00    +0.000 A 
ATOM     14  C   UNL     1       1.213   8.270  21.850  0.00  0.00    +0.000 A 
ENDBRANCH   5   8
ENDBRANCH   1   2
BRANCH   1  15
ATOM     15  C   UNL     1       5.143   5.396  18.102  0.00  0.00    +0.000 C 
BRANCH  15  17
ATOM     16  N   UNL     1       5.580   5.146  15.721  0.00  0.00    +0.000 N 
ATOM     17  C   UNL     1       6.057   4.897  16.987  0.00  0.00    +0.000 C 
ATOM     18  O   UNL     1       7.087   4.288  17.266  0.00  0.00    +0.000 OA
ATOM     19  H   UNL     1       4.735   5.719  15.678  0.00  0.00    +0.000 HD
BRANCH  16  24
ATOM     20  C   UNL     1       5.829   3.465  12.461  0.00  0.00    +0.000 A 
ATOM     21  C   UNL     1       7.050   3.948  11.987  0.00  0.00    +0.000 A 
ATOM     22  C   UNL     1       7.815   4.818  12.766  0.00  0.00    +0.000 A 
ATOM     23  C   UNL     1       7.351   5.234  14.014  0.00  0.00    +0.000 A 
ATOM     24  C   UNL     1       6.124   4.778  14.483  0.00  0.00    +0.000 A 
ATOM     25  C   UNL     1       5.368   3.885  13.707  0.00  0.00    +0.000 A 
BRANCH  20  27
ATOM     26  C   UNL     1       3.893   3.078  11.158  0.00  0.00    +0.000 C 
ATOM     27  O   UNL     1       5.161   2.622  11.617  0.00  0.00    +0.000 OA
ENDBRANCH  20  27
ENDBRANCH  16  24
ENDBRANCH  15  17
ENDBRANCH   1  15
TORSDOF 6
ENDMDL
