MODEL 1
REMARK VINA RESULT:      -7.9      0.000      0.000
REMARK  Name = 
REMARK  8 active torsions:
REMARK  status: ('A' for Active; 'I' for Inactive)
REMARK    1  A    between atoms: C_1  and  C_2
REMARK    2  A    between atoms: C_2  and  N_3
REMARK    3  A    between atoms: N_3  and  C_4
REMARK    4  A    between atoms: N_3  and  C_24
REMARK    5  A    between atoms: C_4  and  C_5
REMARK    6  A    between atoms: C_5  and  N_6
REMARK    7  A    between atoms: C_7  and  C_9
REMARK    8  A    between atoms: C_13  and  C_14
REMARK                            x       y       z     vdW  Elec       q    Type
REMARK                         _______ _______ _______ _____ _____    ______ ____
ROOT
ATOM      1  C   UNL     1       7.035   5.936  16.694  0.00  0.00    +0.000 A 
ATOM      2  N   UNL     1       7.569   5.769  15.421  0.00  0.00    +0.000 NA
ATOM      3  C   UNL     1       6.756   4.902  14.860  0.00  0.00    +0.000 A 
ATOM      4  O   UNL     1       5.686   4.531  15.616  0.00  0.00    +0.000 OA
ATOM      5  C   UNL     1       5.845   5.223  16.792  0.00  0.00    +0.000 A 
ENDROOT
BRANCH   5   6
ATOM      6  C   UNL     1       4.750   5.117  17.749  0.00  0.00    +0.000 A 
ATOM      7  C   UNL     1       3.942   6.230  18.030  0.00  0.00    +0.000 A 
ATOM      8  C   UNL     1       2.847   6.128  18.892  0.00  0.00    +0.000 A 
ATOM      9  C   UNL     1       2.537   4.906  19.474  0.00  0.00    +0.000 A 
ATOM     10  C   UNL     1       3.324   3.786  19.197  0.00  0.00    +0.000 A 
ATOM     11  C   UNL     1       4.433   3.892  18.355  0.00  0.00    +0.000 A 
ATOM     12  O   UNL     1       3.057   2.541  19.712  0.00  0.00    +0.000 OA
ATOM     13  C   UNL     1       1.709   2.462  20.188  0.00  0.00    +0.000 C 
ATOM     14  C   UNL     1       1.367   3.669  21.046  0.00  0.00    +0.000 C 
ATOM     15  O   UNL     1       1.432   4.878  20.284  0.00  0.00    +0.000 OA
ENDBRANCH   5   6
BRANCH   1  17
ATOM     16  N   UNL     1       7.916   8.055  17.359  0.00  0.00    +0.000 N 
ATOM     17  C   UNL     1       7.637   6.753  17.732  0.00  0.00    +0.000 C 
ATOM     18  O   UNL     1       7.842   6.339  18.872  0.00  0.00    +0.000 OA
ATOM     19  H   UNL     1       7.623   8.350  16.434  0.00  0.00    +0.000 HD
BRANCH  16  20
ATOM     20  C   UNL     1       8.280   9.037  18.364  0.00  0.00    +0.000 C 
BRANCH  20  21
ATOM     21  C   UNL     1       8.942  10.310  17.782  0.00  0.00    +0.000 C 
BRANCH  21  22
ATOM     22  N   UNL     1       8.995  11.429  18.754  0.00  0.00    +0.000 NA
BRANCH  22  23
ATOM     23  C   UNL     1       9.594  10.993  20.042  0.00  0.00    +0.000 C 
ATOM     24  C   UNL     1      10.345  11.980  20.898  0.00  0.00    +0.000 C 
ATOM     25  C   UNL     1       9.001  11.489  21.336  0.00  0.00    +0.000 C 
ENDBRANCH  22  23
BRANCH  22  27
ATOM     26  C   UNL     1      10.940  12.260  17.344  0.00  0.00    +0.000 C 
ATOM     27  C   UNL     1       9.749  12.590  18.235  0.00  0.00    +0.000 C 
ENDBRANCH  22  27
ENDBRANCH  21  22
ENDBRANCH  20  21
ENDBRANCH  16  20
ENDBRANCH   1  17
TORSDOF 7
ENDMDL
MODEL 2
REMARK VINA RESULT:      -7.7      0.520      1.523
REMARK  Name = 
REMARK  8 active torsions:
REMARK  status: ('A' for Active; 'I' for Inactive)
REMARK    1  A    between atoms: C_1  and  C_2
REMARK    2  A    between atoms: C_2  and  N_3
REMARK    3  A    between atoms: N_3  and  C_4
REMARK    4  A    between atoms: N_3  and  C_24
REMARK    5  A    between atoms: C_4  and  C_5
REMARK    6  A    between atoms: C_5  and  N_6
REMARK    7  A    between atoms: C_7  and  C_9
REMARK    8  A    between atoms: C_13  and  C_14
REMARK                            x       y       z     vdW  Elec       q    Type
REMARK                         _______ _______ _______ _____ _____    ______ ____
ROOT
ATOM      1  C   UNL     1       6.898   5.785  16.480  0.00  0.00    +0.000 A 
ATOM      2  N   UNL     1       7.426   5.686  15.198  0.00  0.00    +0.000 NA
ATOM      3  C   UNL     1       6.586   4.883  14.583  0.00  0.00    +0.000 A 
ATOM      4  O   UNL     1       5.505   4.498  15.315  0.00  0.00    +0.000 OA
ATOM      5  C   UNL     1       5.685   5.105  16.533  0.00  0.00    +0.000 A 
ENDROOT
BRANCH   5   6
ATOM      6  C   UNL     1       4.588   4.971  17.483  0.00  0.00    +0.000 A 
ATOM      7  C   UNL     1       3.773   6.073  17.789  0.00  0.00    +0.000 A 
ATOM      8  C   UNL     1       2.675   5.945  18.643  0.00  0.00    +0.000 A 
ATOM      9  C   UNL     1       2.370   4.708  19.195  0.00  0.00    +0.000 A 
ATOM     10  C   UNL     1       3.163   3.598  18.894  0.00  0.00    +0.000 A 
ATOM     11  C   UNL     1       4.274   3.730  18.058  0.00  0.00    +0.000 A 
ATOM     12  O   UNL     1       2.901   2.340  19.378  0.00  0.00    +0.000 OA
ATOM     13  C   UNL     1       1.551   2.243  19.847  0.00  0.00    +0.000 C 
ATOM     14  C   UNL     1       1.200   3.427  20.732  0.00  0.00    +0.000 C 
ATOM     15  O   UNL     1       1.262   4.654  20.000  0.00  0.00    +0.000 OA
ENDBRANCH   5   6
BRANCH   1  17
ATOM     16  N   UNL     1       7.868   7.819  17.273  0.00  0.00    +0.000 N 
ATOM     17  C   UNL     1       7.525   6.512  17.568  0.00  0.00    +0.000 C 
ATOM     18  O   UNL     1       7.697   6.025  18.685  0.00  0.00    +0.000 OA
ATOM     19  H   UNL     1       7.600   8.180  16.364  0.00  0.00    +0.000 HD
BRANCH  16  20
ATOM     20  C   UNL     1       8.266   8.724  18.336  0.00  0.00    +0.000 C 
BRANCH  20  21
ATOM     21  C   UNL     1       8.397  10.200  17.883  0.00  0.00    +0.000 C 
BRANCH  21  22
ATOM     22  N   UNL     1       9.638  10.846  18.377  0.00  0.00    +0.000 NA
BRANCH  22  23
ATOM     23  C   UNL     1       9.583  12.320  18.199  0.00  0.00    +0.000 C 
ATOM     24  C   UNL     1      10.760  13.172  18.595  0.00  0.00    +0.000 C 
ATOM     25  C   UNL     1      10.445  12.967  17.147  0.00  0.00    +0.000 C 
ENDBRANCH  22  23
BRANCH  22  27
ATOM     26  C   UNL     1       9.135  11.372  20.813  0.00  0.00    +0.000 C 
ATOM     27  C   UNL     1       9.905  10.536  19.798  0.00  0.00    +0.000 C 
ENDBRANCH  22  27
ENDBRANCH  21  22
ENDBRANCH  20  21
ENDBRANCH  16  20
ENDBRANCH   1  17
TORSDOF 7
ENDMDL
MODEL 3
REMARK VINA RESULT:      -7.6      4.790      7.357
REMARK  Name = 
REMARK  8 active torsions:
REMARK  status: ('A' for Active; 'I' for Inactive)
REMARK    1  A    between atoms: C_1  and  C_2
REMARK    2  A    between atoms: C_2  and  N_3
REMARK    3  A    between atoms: N_3  and  C_4
REMARK    4  A    between atoms: N_3  and  C_24
REMARK    5  A    between atoms: C_4  and  C_5
REMARK    6  A    between atoms: C_5  and  N_6
REMARK    7  A    between atoms: C_7  and  C_9
REMARK    8  A    between atoms: C_13  and  C_14
REMARK                            x       y       z     vdW  Elec       q    Type
REMARK                         _______ _______ _______ _____ _____    ______ ____
ROOT
ATOM      1  C   UNL     1       2.620   4.800  20.267  0.00  0.00    +0.000 A 
ATOM      2  N   UNL     1       2.116   4.026  21.305  0.00  0.00    +0.000 NA
ATOM      3  C   UNL     1       2.745   2.880  21.165  0.00  0.00    +0.000 A 
ATOM      4  O   UNL     1       3.677   2.844  20.174  0.00  0.00    +0.000 OA
ATOM      5  C   UNL     1       3.623   4.095  19.610  0.00  0.00    +0.000 A 
ENDROOT
BRANCH   5   6
ATOM      6  C   UNL     1       4.628   4.383  18.594  0.00  0.00    +0.000 A 
ATOM      7  C   UNL     1       5.909   4.825  18.966  0.00  0.00    +0.000 A 
ATOM      8  C   UNL     1       6.904   5.039  18.010  0.00  0.00    +0.000 A 
ATOM      9  C   UNL     1       6.637   4.801  16.668  0.00  0.00    +0.000 A 
ATOM     10  C   UNL     1       5.372   4.351  16.281  0.00  0.00    +0.000 A 
ATOM     11  C   UNL     1       4.369   4.160  17.234  0.00  0.00    +0.000 A 
ATOM     12  O   UNL     1       5.049   4.066  14.978  0.00  0.00    +0.000 OA
ATOM     13  C   UNL     1       6.227   3.888  14.184  0.00  0.00    +0.000 C 
ATOM     14  C   UNL     1       7.222   5.010  14.436  0.00  0.00    +0.000 C 
ATOM     15  O   UNL     1       7.672   5.005  15.793  0.00  0.00    +0.000 OA
ENDBRANCH   5   6
BRANCH   1  17
ATOM     16  N   UNL     1       1.642   6.844  21.025  0.00  0.00    +0.000 N 
ATOM     17  C   UNL     1       2.166   6.143  19.954  0.00  0.00    +0.000 C 
ATOM     18  O   UNL     1       2.279   6.642  18.836  0.00  0.00    +0.000 OA
ATOM     19  H   UNL     1       1.677   6.401  21.937  0.00  0.00    +0.000 HD
BRANCH  16  20
ATOM     20  C   UNL     1       1.388   8.268  20.908  0.00  0.00    +0.000 C 
BRANCH  20  21
ATOM     21  C   UNL     1      -0.060   8.677  21.274  0.00  0.00    +0.000 C 
BRANCH  21  22
ATOM     22  N   UNL     1      -0.421  10.027  20.778  0.00  0.00    +0.000 NA
BRANCH  22  23
ATOM     23  C   UNL     1       0.147  11.088  21.649  0.00  0.00    +0.000 C 
ATOM     24  C   UNL     1      -0.006  12.539  21.269  0.00  0.00    +0.000 C 
ATOM     25  C   UNL     1      -0.786  11.986  22.420  0.00  0.00    +0.000 C 
ENDBRANCH  22  23
BRANCH  22  27
ATOM     26  C   UNL     1      -1.089  10.403  18.354  0.00  0.00    +0.000 C 
ATOM     27  C   UNL     1       0.022  10.251  19.385  0.00  0.00    +0.000 C 
ENDBRANCH  22  27
ENDBRANCH  21  22
ENDBRANCH  20  21
ENDBRANCH  16  20
ENDBRANCH   1  17
TORSDOF 7
ENDMDL
MODEL 4
REMARK VINA RESULT:      -7.6      4.749      7.426
REMARK  Name = 
REMARK  8 active torsions:
REMARK  status: ('A' for Active; 'I' for Inactive)
REMARK    1  A    between atoms: C_1  and  C_2
REMARK    2  A    between atoms: C_2  and  N_3
REMARK    3  A    between atoms: N_3  and  C_4
REMARK    4  A    between atoms: N_3  and  C_24
REMARK    5  A    between atoms: C_4  and  C_5
REMARK    6  A    between atoms: C_5  and  N_6
REMARK    7  A    between atoms: C_7  and  C_9
REMARK    8  A    between atoms: C_13  and  C_14
REMARK                            x       y       z     vdW  Elec       q    Type
REMARK                         _______ _______ _______ _____ _____    ______ ____
ROOT
ATOM      1  C   UNL     1       3.102   4.398  19.591  0.00  0.00    +0.000 A 
ATOM      2  N   UNL     1       2.763   3.610  20.684  0.00  0.00    +0.000 NA
ATOM      3  C   UNL     1       3.544   2.560  20.558  0.00  0.00    +0.000 A 
ATOM      4  O   UNL     1       4.426   2.609  19.523  0.00  0.00    +0.000 OA
ATOM      5  C   UNL     1       4.167   3.812  18.912  0.00  0.00    +0.000 A 
ENDROOT
BRANCH   5   6
ATOM      6  C   UNL     1       5.073   4.192  17.835  0.00  0.00    +0.000 A 
ATOM      7  C   UNL     1       6.351   4.695  18.126  0.00  0.00    +0.000 A 
ATOM      8  C   UNL     1       7.257   4.998  17.107  0.00  0.00    +0.000 A 
ATOM      9  C   UNL     1       6.901   4.790  15.781  0.00  0.00    +0.000 A 
ATOM     10  C   UNL     1       5.637   4.280  15.474  0.00  0.00    +0.000 A 
ATOM     11  C   UNL     1       4.722   3.999  16.491  0.00  0.00    +0.000 A 
ATOM     12  O   UNL     1       5.231   4.020  14.189  0.00  0.00    +0.000 OA
ATOM     13  C   UNL     1       6.353   3.937  13.303  0.00  0.00    +0.000 C 
ATOM     14  C   UNL     1       7.300   5.106  13.521  0.00  0.00    +0.000 C 
ATOM     15  O   UNL     1       7.852   5.083  14.840  0.00  0.00    +0.000 OA
ENDBRANCH   5   6
BRANCH   1  17
ATOM     16  N   UNL     1       2.288   6.529  20.300  0.00  0.00    +0.000 N 
ATOM     17  C   UNL     1       2.445   5.646  19.248  0.00  0.00    +0.000 C 
ATOM     18  O   UNL     1       2.096   5.923  18.101  0.00  0.00    +0.000 OA
ATOM     19  H   UNL     1       2.695   6.270  21.193  0.00  0.00    +0.000 HD
BRANCH  16  20
ATOM     20  C   UNL     1       1.881   7.898  20.046  0.00  0.00    +0.000 C 
BRANCH  20  21
ATOM     21  C   UNL     1       1.021   8.514  21.177  0.00  0.00    +0.000 C 
BRANCH  21  22
ATOM     22  N   UNL     1       0.655   9.928  20.918  0.00  0.00    +0.000 NA
BRANCH  22  23
ATOM     23  C   UNL     1      -0.273  10.040  19.764  0.00  0.00    +0.000 C 
ATOM     24  C   UNL     1      -1.171  11.243  19.631  0.00  0.00    +0.000 C 
ATOM     25  C   UNL     1      -0.008  11.078  18.703  0.00  0.00    +0.000 C 
ENDBRANCH  22  23
BRANCH  22  27
ATOM     26  C   UNL     1      -0.495   9.633  23.166  0.00  0.00    +0.000 C 
ATOM     27  C   UNL     1       0.045  10.577  22.099  0.00  0.00    +0.000 C 
ENDBRANCH  22  27
ENDBRANCH  21  22
ENDBRANCH  20  21
ENDBRANCH  16  20
ENDBRANCH   1  17
TORSDOF 7
ENDMDL
MODEL 5
REMARK VINA RESULT:      -7.6      0.984      1.236
REMARK  Name = 
REMARK  8 active torsions:
REMARK  status: ('A' for Active; 'I' for Inactive)
REMARK    1  A    between atoms: C_1  and  C_2
REMARK    2  A    between atoms: C_2  and  N_3
REMARK    3  A    between atoms: N_3  and  C_4
REMARK    4  A    between atoms: N_3  and  C_24
REMARK    5  A    between atoms: C_4  and  C_5
REMARK    6  A    between atoms: C_5  and  N_6
REMARK    7  A    between atoms: C_7  and  C_9
REMARK    8  A    between atoms: C_13  and  C_14
REMARK                            x       y       z     vdW  Elec       q    Type
REMARK                         _______ _______ _______ _____ _____    ______ ____
ROOT
ATOM      1  C   UNL     1       7.150   6.042  16.808  0.00  0.00    +0.000 A 
ATOM      2  N   UNL     1       7.604   5.863  15.507  0.00  0.00    +0.000 NA
ATOM      3  C   UNL     1       6.817   4.920  15.036  0.00  0.00    +0.000 A 
ATOM      4  O   UNL     1       5.832   4.508  15.879  0.00  0.00    +0.000 OA
ATOM      5  C   UNL     1       6.022   5.254  17.016  0.00  0.00    +0.000 A 
ENDROOT
BRANCH   5   6
ATOM      6  C   UNL     1       5.008   5.110  18.053  0.00  0.00    +0.000 A 
ATOM      7  C   UNL     1       4.095   6.148  18.303  0.00  0.00    +0.000 A 
ATOM      8  C   UNL     1       3.074   6.001  19.244  0.00  0.00    +0.000 A 
ATOM      9  C   UNL     1       2.943   4.807  19.940  0.00  0.00    +0.000 A 
ATOM     10  C   UNL     1       3.834   3.760  19.697  0.00  0.00    +0.000 A 
ATOM     11  C   UNL     1       4.870   3.914  18.773  0.00  0.00    +0.000 A 
ATOM     12  O   UNL     1       3.744   2.542  20.325  0.00  0.00    +0.000 OA
ATOM     13  C   UNL     1       2.445   2.356  20.899  0.00  0.00    +0.000 C 
ATOM     14  C   UNL     1       2.020   3.588  21.681  0.00  0.00    +0.000 C 
ATOM     15  O   UNL     1       1.899   4.727  20.825  0.00  0.00    +0.000 OA
ENDBRANCH   5   6
BRANCH   1  17
ATOM     16  N   UNL     1       7.900   8.245  17.345  0.00  0.00    +0.000 N 
ATOM     17  C   UNL     1       7.763   6.937  17.772  0.00  0.00    +0.000 C 
ATOM     18  O   UNL     1       8.095   6.577  18.901  0.00  0.00    +0.000 OA
ATOM     19  H   UNL     1       7.509   8.486  16.441  0.00  0.00    +0.000 HD
BRANCH  16  20
ATOM     20  C   UNL     1       8.261   9.285  18.291  0.00  0.00    +0.000 C 
BRANCH  20  21
ATOM     21  C   UNL     1       9.348  10.256  17.769  0.00  0.00    +0.000 C 
BRANCH  21  22
ATOM     22  N   UNL     1       9.743  11.273  18.773  0.00  0.00    +0.000 NA
BRANCH  22  23
ATOM     23  C   UNL     1      11.086  11.832  18.471  0.00  0.00    +0.000 C 
ATOM     24  C   UNL     1      11.660  12.927  19.334  0.00  0.00    +0.000 C 
ATOM     25  C   UNL     1      12.231  11.546  19.408  0.00  0.00    +0.000 C 
ENDBRANCH  22  23
BRANCH  22  27
ATOM     26  C   UNL     1       8.324  12.988  17.544  0.00  0.00    +0.000 C 
ATOM     27  C   UNL     1       8.766  12.379  18.869  0.00  0.00    +0.000 C 
ENDBRANCH  22  27
ENDBRANCH  21  22
ENDBRANCH  20  21
ENDBRANCH  16  20
ENDBRANCH   1  17
TORSDOF 7
ENDMDL
MODEL 6
REMARK VINA RESULT:      -7.5      1.019      1.673
REMARK  Name = 
REMARK  8 active torsions:
REMARK  status: ('A' for Active; 'I' for Inactive)
REMARK    1  A    between atoms: C_1  and  C_2
REMARK    2  A    between atoms: C_2  and  N_3
REMARK    3  A    between atoms: N_3  and  C_4
REMARK    4  A    between atoms: N_3  and  C_24
REMARK    5  A    between atoms: C_4  and  C_5
REMARK    6  A    between atoms: C_5  and  N_6
REMARK    7  A    between atoms: C_7  and  C_9
REMARK    8  A    between atoms: C_13  and  C_14
REMARK                            x       y       z     vdW  Elec       q    Type
REMARK                         _______ _______ _______ _____ _____    ______ ____
ROOT
ATOM      1  C   UNL     1       6.830   5.506  16.165  0.00  0.00    +0.000 A 
ATOM      2  N   UNL     1       7.433   5.479  14.913  0.00  0.00    +0.000 NA
ATOM      3  C   UNL     1       6.801   4.508  14.291  0.00  0.00    +0.000 A 
ATOM      4  O   UNL     1       5.782   3.935  14.986  0.00  0.00    +0.000 OA
ATOM      5  C   UNL     1       5.775   4.599  16.189  0.00  0.00    +0.000 A 
ENDROOT
BRANCH   5   6
ATOM      6  C   UNL     1       4.678   4.274  17.093  0.00  0.00    +0.000 A 
ATOM      7  C   UNL     1       4.302   2.937  17.301  0.00  0.00    +0.000 A 
ATOM      8  C   UNL     1       3.300   2.603  18.215  0.00  0.00    +0.000 A 
ATOM      9  C   UNL     1       2.669   3.602  18.944  0.00  0.00    +0.000 A 
ATOM     10  C   UNL     1       3.038   4.936  18.759  0.00  0.00    +0.000 A 
ATOM     11  C   UNL     1       4.023   5.273  17.827  0.00  0.00    +0.000 A 
ATOM     12  O   UNL     1       2.480   5.971  19.468  0.00  0.00    +0.000 OA
ATOM     13  C   UNL     1       1.826   5.489  20.647  0.00  0.00    +0.000 C 
ATOM     14  C   UNL     1       0.942   4.295  20.325  0.00  0.00    +0.000 C 
ATOM     15  O   UNL     1       1.717   3.195  19.843  0.00  0.00    +0.000 OA
ENDBRANCH   5   6
BRANCH   1  17
ATOM     16  N   UNL     1       7.343   7.712  16.924  0.00  0.00    +0.000 N 
ATOM     17  C   UNL     1       7.244   6.372  17.253  0.00  0.00    +0.000 C 
ATOM     18  O   UNL     1       7.446   5.961  18.395  0.00  0.00    +0.000 OA
ATOM     19  H   UNL     1       7.060   7.987  15.990  0.00  0.00    +0.000 HD
BRANCH  16  20
ATOM     20  C   UNL     1       7.499   8.708  17.968  0.00  0.00    +0.000 C 
BRANCH  20  21
ATOM     21  C   UNL     1       8.853   9.458  17.919  0.00  0.00    +0.000 C 
BRANCH  21  22
ATOM     22  N   UNL     1       8.837  10.726  18.689  0.00  0.00    +0.000 NA
BRANCH  22  23
ATOM     23  C   UNL     1       9.626  10.603  19.941  0.00  0.00    +0.000 C 
ATOM     24  C   UNL     1      10.441  11.769  20.438  0.00  0.00    +0.000 C 
ATOM     25  C   UNL     1       9.193  11.373  21.163  0.00  0.00    +0.000 C 
ENDBRANCH  22  23
BRANCH  22  27
ATOM     26  C   UNL     1       8.340  12.969  17.599  0.00  0.00    +0.000 C 
ATOM     27  C   UNL     1       9.350  11.868  17.901  0.00  0.00    +0.000 C 
ENDBRANCH  22  27
ENDBRANCH  21  22
ENDBRANCH  20  21
ENDBRANCH  16  20
ENDBRANCH   1  17
TORSDOF 7
ENDMDL
MODEL 7
REMARK VINA RESULT:      -7.5      3.030      6.116
REMARK  Name = 
REMARK  8 active torsions:
REMARK  status: ('A' for Active; 'I' for Inactive)
REMARK    1  A    between atoms: C_1  and  C_2
REMARK    2  A    between atoms: C_2  and  N_3
REMARK    3  A    between atoms: N_3  and  C_4
REMARK    4  A    between atoms: N_3  and  C_24
REMARK    5  A    between atoms: C_4  and  C_5
REMARK    6  A    between atoms: C_5  and  N_6
REMARK    7  A    between atoms: C_7  and  C_9
REMARK    8  A    between atoms: C_13  and  C_14
REMARK                            x       y       z     vdW  Elec       q    Type
REMARK                         _______ _______ _______ _____ _____    ______ ____
ROOT
ATOM      1  C   UNL     1       3.378   3.873  19.960  0.00  0.00    +0.000 A 
ATOM      2  N   UNL     1       2.953   2.814  20.752  0.00  0.00    +0.000 NA
ATOM      3  C   UNL     1       2.048   3.361  21.533  0.00  0.00    +0.000 A 
ATOM      4  O   UNL     1       1.776   4.670  21.284  0.00  0.00    +0.000 OA
ATOM      5  C   UNL     1       2.611   4.999  20.244  0.00  0.00    +0.000 A 
ENDROOT
BRANCH   5   6
ATOM      6  C   UNL     1       2.432   6.329  19.676  0.00  0.00    +0.000 A 
ATOM      7  C   UNL     1       2.843   6.601  18.360  0.00  0.00    +0.000 A 
ATOM      8  C   UNL     1       2.616   7.850  17.777  0.00  0.00    +0.000 A 
ATOM      9  C   UNL     1       1.963   8.841  18.497  0.00  0.00    +0.000 A 
ATOM     10  C   UNL     1       1.537   8.585  19.802  0.00  0.00    +0.000 A 
ATOM     11  C   UNL     1       1.784   7.344  20.395  0.00  0.00    +0.000 A 
ATOM     12  O   UNL     1       0.857   9.506  20.560  0.00  0.00    +0.000 OA
ATOM     13  C   UNL     1       0.301  10.537  19.736  0.00  0.00    +0.000 C 
ATOM     14  C   UNL     1       1.335  11.057  18.751  0.00  0.00    +0.000 C 
ATOM     15  O   UNL     1       1.750  10.029  17.848  0.00  0.00    +0.000 OA
ENDBRANCH   5   6
BRANCH   1  17
ATOM     16  N   UNL     1       5.614   4.429  19.331  0.00  0.00    +0.000 N 
ATOM     17  C   UNL     1       4.443   3.784  18.978  0.00  0.00    +0.000 C 
ATOM     18  O   UNL     1       4.336   3.145  17.932  0.00  0.00    +0.000 OA
ATOM     19  H   UNL     1       5.659   4.846  20.254  0.00  0.00    +0.000 HD
BRANCH  16  20
ATOM     20  C   UNL     1       6.827   4.208  18.564  0.00  0.00    +0.000 C 
BRANCH  20  21
ATOM     21  C   UNL     1       7.648   5.495  18.307  0.00  0.00    +0.000 C 
BRANCH  21  22
ATOM     22  N   UNL     1       7.350   6.116  16.994  0.00  0.00    +0.000 NA
BRANCH  22  23
ATOM     23  C   UNL     1       6.371   5.305  16.226  0.00  0.00    +0.000 C 
ATOM     24  C   UNL     1       5.488   5.963  15.197  0.00  0.00    +0.000 C 
ATOM     25  C   UNL     1       6.603   5.068  14.756  0.00  0.00    +0.000 C 
ENDBRANCH  22  23
BRANCH  22  27
ATOM     26  C   UNL     1       7.826   8.517  17.685  0.00  0.00    +0.000 C 
ATOM     27  C   UNL     1       6.839   7.498  17.127  0.00  0.00    +0.000 C 
ENDBRANCH  22  27
ENDBRANCH  21  22
ENDBRANCH  20  21
ENDBRANCH  16  20
ENDBRANCH   1  17
TORSDOF 7
ENDMDL
MODEL 8
REMARK VINA RESULT:      -7.5      4.812      7.544
REMARK  Name = 
REMARK  8 active torsions:
REMARK  status: ('A' for Active; 'I' for Inactive)
REMARK    1  A    between atoms: C_1  and  C_2
REMARK    2  A    between atoms: C_2  and  N_3
REMARK    3  A    between atoms: N_3  and  C_4
REMARK    4  A    between atoms: N_3  and  C_24
REMARK    5  A    between atoms: C_4  and  C_5
REMARK    6  A    between atoms: C_5  and  N_6
REMARK    7  A    between atoms: C_7  and  C_9
REMARK    8  A    between atoms: C_13  and  C_14
REMARK                            x       y       z     vdW  Elec       q    Type
REMARK                         _______ _______ _______ _____ _____    ______ ____
ROOT
ATOM      1  C   UNL     1       2.590   5.039  20.222  0.00  0.00    +0.000 A 
ATOM      2  N   UNL     1       2.012   4.293  21.243  0.00  0.00    +0.000 NA
ATOM      3  C   UNL     1       2.532   3.097  21.078  0.00  0.00    +0.000 A 
ATOM      4  O   UNL     1       3.459   2.994  20.088  0.00  0.00    +0.000 OA
ATOM      5  C   UNL     1       3.525   4.256  19.551  0.00  0.00    +0.000 A 
ENDROOT
BRANCH   5   6
ATOM      6  C   UNL     1       4.555   4.470  18.542  0.00  0.00    +0.000 A 
ATOM      7  C   UNL     1       5.870   4.785  18.925  0.00  0.00    +0.000 A 
ATOM      8  C   UNL     1       6.884   4.924  17.975  0.00  0.00    +0.000 A 
ATOM      9  C   UNL     1       6.601   4.738  16.628  0.00  0.00    +0.000 A 
ATOM     10  C   UNL     1       5.302   4.413  16.231  0.00  0.00    +0.000 A 
ATOM     11  C   UNL     1       4.281   4.297  17.178  0.00  0.00    +0.000 A 
ATOM     12  O   UNL     1       4.958   4.184  14.921  0.00  0.00    +0.000 OA
ATOM     13  C   UNL     1       6.118   3.913  14.127  0.00  0.00    +0.000 C 
ATOM     14  C   UNL     1       7.210   4.934  14.401  0.00  0.00    +0.000 C 
ATOM     15  O   UNL     1       7.653   4.863  15.759  0.00  0.00    +0.000 OA
ENDBRANCH   5   6
BRANCH   1  17
ATOM     16  N   UNL     1       1.745   7.131  21.006  0.00  0.00    +0.000 N 
ATOM     17  C   UNL     1       2.266   6.425  19.937  0.00  0.00    +0.000 C 
ATOM     18  O   UNL     1       2.479   6.950  18.845  0.00  0.00    +0.000 OA
ATOM     19  H   UNL     1       1.695   6.657  21.901  0.00  0.00    +0.000 HD
BRANCH  16  20
ATOM     20  C   UNL     1       1.616   8.574  20.930  0.00  0.00    +0.000 C 
BRANCH  20  21
ATOM     21  C   UNL     1       0.151   9.067  20.841  0.00  0.00    +0.000 C 
BRANCH  21  22
ATOM     22  N   UNL     1       0.035  10.434  20.275  0.00  0.00    +0.000 NA
BRANCH  22  23
ATOM     23  C   UNL     1      -1.221  10.589  19.499  0.00  0.00    +0.000 C 
ATOM     24  C   UNL     1      -1.376  11.737  18.534  0.00  0.00    +0.000 C 
ATOM     25  C   UNL     1      -1.204  10.345  18.012  0.00  0.00    +0.000 C 
ENDBRANCH  22  23
BRANCH  22  27
ATOM     26  C   UNL     1      -0.908  11.341  22.455  0.00  0.00    +0.000 C 
ATOM     27  C   UNL     1       0.097  11.481  21.318  0.00  0.00    +0.000 C 
ENDBRANCH  22  27
ENDBRANCH  21  22
ENDBRANCH  20  21
ENDBRANCH  16  20
ENDBRANCH   1  17
TORSDOF 7
ENDMDL
MODEL 9
REMARK VINA RESULT:      -7.4      4.756      7.234
REMARK  Name = 
REMARK  8 active torsions:
REMARK  status: ('A' for Active; 'I' for Inactive)
REMARK    1  A    between atoms: C_1  and  C_2
REMARK    2  A    between atoms: C_2  and  N_3
REMARK    3  A    between atoms: N_3  and  C_4
REMARK    4  A    between atoms: N_3  and  C_24
REMARK    5  A    between atoms: C_4  and  C_5
REMARK    6  A    between atoms: C_5  and  N_6
REMARK    7  A    between atoms: C_7  and  C_9
REMARK    8  A    between atoms: C_13  and  C_14
REMARK                            x       y       z     vdW  Elec       q    Type
REMARK                         _______ _______ _______ _____ _____    ______ ____
ROOT
ATOM      1  C   UNL     1       2.655   5.160  20.145  0.00  0.00    +0.000 A 
ATOM      2  N   UNL     1       2.098   4.459  21.207  0.00  0.00    +0.000 NA
ATOM      3  C   UNL     1       2.658   3.273  21.118  0.00  0.00    +0.000 A 
ATOM      4  O   UNL     1       3.594   3.142  20.139  0.00  0.00    +0.000 OA
ATOM      5  C   UNL     1       3.620   4.371  19.526  0.00  0.00    +0.000 A 
ENDROOT
BRANCH   5   6
ATOM      6  C   UNL     1       4.648   4.558  18.510  0.00  0.00    +0.000 A 
ATOM      7  C   UNL     1       5.964   4.880  18.881  0.00  0.00    +0.000 A 
ATOM      8  C   UNL     1       6.976   4.994  17.925  0.00  0.00    +0.000 A 
ATOM      9  C   UNL     1       6.688   4.776  16.584  0.00  0.00    +0.000 A 
ATOM     10  C   UNL     1       5.388   4.444  16.198  0.00  0.00    +0.000 A 
ATOM     11  C   UNL     1       4.370   4.352  17.151  0.00  0.00    +0.000 A 
ATOM     12  O   UNL     1       5.040   4.183  14.896  0.00  0.00    +0.000 OA
ATOM     13  C   UNL     1       6.197   3.891  14.105  0.00  0.00    +0.000 C 
ATOM     14  C   UNL     1       7.292   4.916  14.352  0.00  0.00    +0.000 C 
ATOM     15  O   UNL     1       7.739   4.877  15.710  0.00  0.00    +0.000 OA
ENDBRANCH   5   6
BRANCH   1  17
ATOM     16  N   UNL     1       1.754   7.272  20.802  0.00  0.00    +0.000 N 
ATOM     17  C   UNL     1       2.285   6.514  19.775  0.00  0.00    +0.000 C 
ATOM     18  O   UNL     1       2.471   6.973  18.649  0.00  0.00    +0.000 OA
ATOM     19  H   UNL     1       1.729   6.857  21.727  0.00  0.00    +0.000 HD
BRANCH  16  20
ATOM     20  C   UNL     1       1.580   8.703  20.635  0.00  0.00    +0.000 C 
BRANCH  20  21
ATOM     21  C   UNL     1       1.059   9.422  21.903  0.00  0.00    +0.000 C 
BRANCH  21  22
ATOM     22  N   UNL     1       0.869  10.880  21.703  0.00  0.00    +0.000 NA
BRANCH  22  23
ATOM     23  C   UNL     1       0.889  11.231  20.260  0.00  0.00    +0.000 C 
ATOM     24  C   UNL     1      -0.001  12.328  19.737  0.00  0.00    +0.000 C 
ATOM     25  C   UNL     1       1.475  12.552  19.831  0.00  0.00    +0.000 C 
ENDBRANCH  22  23
BRANCH  22  27
ATOM     26  C   UNL     1      -1.128  10.378  23.195  0.00  0.00    +0.000 C 
ATOM     27  C   UNL     1      -0.390  11.370  22.306  0.00  0.00    +0.000 C 
ENDBRANCH  22  27
ENDBRANCH  21  22
ENDBRANCH  20  21
ENDBRANCH  16  20
ENDBRANCH   1  17
TORSDOF 7
ENDMDL
