MODEL 1
REMARK VINA RESULT:      -6.8      0.000      0.000
REMARK  Name = 
REMARK  10 active torsions:
REMARK  status: ('A' for Active; 'I' for Inactive)
REMARK    1  A    between atoms: N_1  and  CA_2
REMARK    2  A    between atoms: CA_2  and  C_3
REMARK    3  A    between atoms: CA_2  and  C_19
REMARK    4  A    between atoms: C_3  and  C_4
REMARK    5  A    between atoms: C_4  and  C_5
REMARK    6  A    between atoms: N_13  and  C_14
REMARK    7  A    between atoms: C_14  and  P_15
REMARK    8  A    between atoms: P_15  and  O_17
REMARK    9  A    between atoms: P_15  and  O_18
REMARK   10  A    between atoms: C_19  and  OXT_21
REMARK                            x       y       z     vdW  Elec       q    Type
REMARK                         _______ _______ _______ _____ _____    ______ ____
ROOT
ATOM      1  C   UNL     1       3.918   4.710  19.318  0.00  0.00    +0.000 A 
ATOM      2  N   UNL     1       3.001   5.310  20.044  0.00  0.00    +0.000 NA
ATOM      3  C   UNL     1       2.749   6.499  19.434  0.00  0.00    +0.000 A 
ATOM      4  C   UNL     1       1.852   7.503  19.831  0.00  0.00    +0.000 A 
ATOM      5  C   UNL     1       1.713   8.635  19.032  0.00  0.00    +0.000 A 
ATOM      6  C   UNL     1       2.454   8.761  17.859  0.00  0.00    +0.000 A 
ATOM      7  C   UNL     1       3.378   7.772  17.453  0.00  0.00    +0.000 A 
ATOM      8  C   UNL     1       3.518   6.644  18.276  0.00  0.00    +0.000 A 
ATOM      9  N   UNL     1       4.320   5.511  18.261  0.00  0.00    +0.000 N 
ENDROOT
BRANCH   1  10
ATOM     10  C   UNL     1       4.420   3.341  19.616  0.00  0.00    +0.000 C 
BRANCH  10  11
ATOM     11  C   UNL     1       3.322   2.522  20.312  0.00  0.00    +0.000 C 
BRANCH  11  12
ATOM     12  CA  UNL     1       2.376   1.787  19.359  0.00  0.00    +0.000 C 
BRANCH  12  13
ATOM     13  N   UNL     1       2.919   1.669  17.996  0.00  0.00    +0.000 NA
ATOM     14  H1  UNL     1       3.895   1.373  18.040  0.00  0.00    +0.000 HD
ATOM     15  H2  UNL     1       2.930   2.597  17.565  0.00  0.00    +0.000 HD
ENDBRANCH  12  13
BRANCH  12  16
ATOM     16  C   UNL     1       0.987   2.457  19.317  0.00  0.00    +0.000 C 
ATOM     17  O   UNL     1       0.171   2.304  18.417  0.00  0.00    +0.000 OA
BRANCH  16  18
ATOM     18  OXT UNL     1       0.725   3.253  20.380  0.00  0.00    +0.000 OA
ATOM     19  HXT UNL     1      -0.174   3.152  20.738  0.00  0.00    +0.000 HD
ENDBRANCH  16  18
ENDBRANCH  12  16
ENDBRANCH  11  12
ENDBRANCH  10  11
ENDBRANCH   1  10
BRANCH   9  20
ATOM     20  C   UNL     1       5.471   5.258  17.387  0.00  0.00    +0.000 C 
BRANCH  20  21
ATOM     21  P   UNL     1       6.951   6.032  18.135  0.00  0.00    +0.000 P 
ATOM     22  O   UNL     1       7.529   4.642  18.393  0.00  0.00    +0.000 OA
BRANCH  21  23
ATOM     23  O   UNL     1       7.515   6.542  16.693  0.00  0.00    +0.000 OA
ATOM     24  H   UNL     1       7.828   7.473  16.757  0.00  0.00    +0.000 HD
ENDBRANCH  21  23
BRANCH  21  25
ATOM     25  O   UNL     1       8.350   6.764  18.841  0.00  0.00    +0.000 OA
ATOM     26  H   UNL     1       8.985   7.060  18.165  0.00  0.00    +0.000 HD
ENDBRANCH  21  25
ENDBRANCH  20  21
ENDBRANCH   9  20
TORSDOF 10
ENDMDL
MODEL 2
REMARK VINA RESULT:      -6.7      2.598      5.470
REMARK  Name = 
REMARK  10 active torsions:
REMARK  status: ('A' for Active; 'I' for Inactive)
REMARK    1  A    between atoms: N_1  and  CA_2
REMARK    2  A    between atoms: CA_2  and  C_3
REMARK    3  A    between atoms: CA_2  and  C_19
REMARK    4  A    between atoms: C_3  and  C_4
REMARK    5  A    between atoms: C_4  and  C_5
REMARK    6  A    between atoms: N_13  and  C_14
REMARK    7  A    between atoms: C_14  and  P_15
REMARK    8  A    between atoms: P_15  and  O_17
REMARK    9  A    between atoms: P_15  and  O_18
REMARK   10  A    between atoms: C_19  and  OXT_21
REMARK                            x       y       z     vdW  Elec       q    Type
REMARK                         _______ _______ _______ _____ _____    ______ ____
ROOT
ATOM      1  C   UNL     1       3.977   5.298  18.030  0.00  0.00    +0.000 A 
ATOM      2  N   UNL     1       3.849   6.434  17.379  0.00  0.00    +0.000 NA
ATOM      3  C   UNL     1       3.004   7.204  18.117  0.00  0.00    +0.000 A 
ATOM      4  C   UNL     1       2.549   8.501  17.837  0.00  0.00    +0.000 A 
ATOM      5  C   UNL     1       1.714   9.133  18.756  0.00  0.00    +0.000 A 
ATOM      6  C   UNL     1       1.343   8.482  19.930  0.00  0.00    +0.000 A 
ATOM      7  C   UNL     1       1.772   7.168  20.220  0.00  0.00    +0.000 A 
ATOM      8  C   UNL     1       2.602   6.538  19.278  0.00  0.00    +0.000 A 
ATOM      9  N   UNL     1       3.180   5.282  19.165  0.00  0.00    +0.000 N 
ENDROOT
BRANCH   1  10
ATOM     10  C   UNL     1       4.880   4.204  17.582  0.00  0.00    +0.000 C 
BRANCH  10  11
ATOM     11  C   UNL     1       5.225   4.388  16.096  0.00  0.00    +0.000 C 
BRANCH  11  12
ATOM     12  CA  UNL     1       6.702   4.684  15.818  0.00  0.00    +0.000 C 
BRANCH  12  13
ATOM     13  N   UNL     1       7.135   5.983  16.357  0.00  0.00    +0.000 NA
ATOM     14  H1  UNL     1       7.965   6.302  15.856  0.00  0.00    +0.000 HD
ATOM     15  H2  UNL     1       7.430   5.853  17.329  0.00  0.00    +0.000 HD
ENDBRANCH  12  13
BRANCH  12  16
ATOM     16  C   UNL     1       7.017   4.608  14.310  0.00  0.00    +0.000 C 
ATOM     17  O   UNL     1       7.756   5.383  13.716  0.00  0.00    +0.000 OA
BRANCH  16  18
ATOM     18  OXT UNL     1       6.397   3.590  13.667  0.00  0.00    +0.000 OA
ATOM     19  HXT UNL     1       6.159   2.843  14.244  0.00  0.00    +0.000 HD
ENDBRANCH  16  18
ENDBRANCH  12  16
ENDBRANCH  11  12
ENDBRANCH  10  11
ENDBRANCH   1  10
BRANCH   9  20
ATOM     20  C   UNL     1       2.906   4.106  19.998  0.00  0.00    +0.000 C 
BRANCH  20  21
ATOM     21  P   UNL     1       1.527   3.167  19.243  0.00  0.00    +0.000 P 
ATOM     22  O   UNL     1       2.430   1.937  19.163  0.00  0.00    +0.000 OA
BRANCH  21  23
ATOM     23  O   UNL     1       0.704   3.086  20.646  0.00  0.00    +0.000 OA
ATOM     24  H   UNL     1       0.205   2.240  20.703  0.00  0.00    +0.000 HD
ENDBRANCH  21  23
BRANCH  21  25
ATOM     25  O   UNL     1       0.225   2.280  18.529  0.00  0.00    +0.000 OA
ATOM     26  H   UNL     1      -0.479   2.869  18.206  0.00  0.00    +0.000 HD
ENDBRANCH  21  25
ENDBRANCH  20  21
ENDBRANCH   9  20
TORSDOF 10
ENDMDL
MODEL 3
REMARK VINA RESULT:      -6.7      2.284      5.321
REMARK  Name = 
REMARK  10 active torsions:
REMARK  status: ('A' for Active; 'I' for Inactive)
REMARK    1  A    between atoms: N_1  and  CA_2
REMARK    2  A    between atoms: CA_2  and  C_3
REMARK    3  A    between atoms: CA_2  and  C_19
REMARK    4  A    between atoms: C_3  and  C_4
REMARK    5  A    between atoms: C_4  and  C_5
REMARK    6  A    between atoms: N_13  and  C_14
REMARK    7  A    between atoms: C_14  and  P_15
REMARK    8  A    between atoms: P_15  and  O_17
REMARK    9  A    between atoms: P_15  and  O_18
REMARK   10  A    between atoms: C_19  and  OXT_21
REMARK                            x       y       z     vdW  Elec       q    Type
REMARK                         _______ _______ _______ _____ _____    ______ ____
ROOT
ATOM      1  C   UNL     1       3.680   5.608  18.404  0.00  0.00    +0.000 A 
ATOM      2  N   UNL     1       3.461   6.691  17.691  0.00  0.00    +0.000 NA
ATOM      3  C   UNL     1       2.636   7.476  18.435  0.00  0.00    +0.000 A 
ATOM      4  C   UNL     1       2.107   8.733  18.105  0.00  0.00    +0.000 A 
ATOM      5  C   UNL     1       1.311   9.395  19.036  0.00  0.00    +0.000 A 
ATOM      6  C   UNL     1       1.049   8.811  20.274  0.00  0.00    +0.000 A 
ATOM      7  C   UNL     1       1.552   7.536  20.618  0.00  0.00    +0.000 A 
ATOM      8  C   UNL     1       2.342   6.876  19.663  0.00  0.00    +0.000 A 
ATOM      9  N   UNL     1       2.964   5.638  19.591  0.00  0.00    +0.000 N 
ENDROOT
BRANCH   1  10
ATOM     10  C   UNL     1       4.597   4.521  17.965  0.00  0.00    +0.000 C 
BRANCH  10  11
ATOM     11  C   UNL     1       5.450   5.004  16.782  0.00  0.00    +0.000 C 
BRANCH  11  12
ATOM     12  CA  UNL     1       6.692   5.807  17.180  0.00  0.00    +0.000 C 
BRANCH  12  13
ATOM     13  N   UNL     1       7.505   6.209  16.021  0.00  0.00    +0.000 NA
ATOM     14  H1  UNL     1       8.496   6.158  16.263  0.00  0.00    +0.000 HD
ATOM     15  H2  UNL     1       7.321   7.195  15.817  0.00  0.00    +0.000 HD
ENDBRANCH  12  13
BRANCH  12  16
ATOM     16  C   UNL     1       7.562   5.034  18.192  0.00  0.00    +0.000 C 
ATOM     17  O   UNL     1       7.629   5.290  19.387  0.00  0.00    +0.000 OA
BRANCH  16  18
ATOM     18  OXT UNL     1       8.271   4.018  17.647  0.00  0.00    +0.000 OA
ATOM     19  HXT UNL     1       9.050   4.306  17.138  0.00  0.00    +0.000 HD
ENDBRANCH  16  18
ENDBRANCH  12  16
ENDBRANCH  11  12
ENDBRANCH  10  11
ENDBRANCH   1  10
BRANCH   9  20
ATOM     20  C   UNL     1       2.798   4.512  20.516  0.00  0.00    +0.000 C 
BRANCH  20  21
ATOM     21  P   UNL     1       1.381   3.500  19.951  0.00  0.00    +0.000 P 
ATOM     22  O   UNL     1       2.359   2.436  19.455  0.00  0.00    +0.000 OA
BRANCH  21  23
ATOM     23  O   UNL     1       0.949   3.106  21.471  0.00  0.00    +0.000 OA
ATOM     24  H   UNL     1       0.007   3.343  21.633  0.00  0.00    +0.000 HD
ENDBRANCH  21  23
BRANCH  21  25
ATOM     25  O   UNL     1       0.042   2.543  19.416  0.00  0.00    +0.000 OA
ATOM     26  H   UNL     1      -0.625   2.432  20.116  0.00  0.00    +0.000 HD
ENDBRANCH  21  25
ENDBRANCH  20  21
ENDBRANCH   9  20
TORSDOF 10
ENDMDL
MODEL 4
REMARK VINA RESULT:      -6.7      3.180      5.022
REMARK  Name = 
REMARK  10 active torsions:
REMARK  status: ('A' for Active; 'I' for Inactive)
REMARK    1  A    between atoms: N_1  and  CA_2
REMARK    2  A    between atoms: CA_2  and  C_3
REMARK    3  A    between atoms: CA_2  and  C_19
REMARK    4  A    between atoms: C_3  and  C_4
REMARK    5  A    between atoms: C_4  and  C_5
REMARK    6  A    between atoms: N_13  and  C_14
REMARK    7  A    between atoms: C_14  and  P_15
REMARK    8  A    between atoms: P_15  and  O_17
REMARK    9  A    between atoms: P_15  and  O_18
REMARK   10  A    between atoms: C_19  and  OXT_21
REMARK                            x       y       z     vdW  Elec       q    Type
REMARK                         _______ _______ _______ _____ _____    ______ ____
ROOT
ATOM      1  C   UNL     1       5.018   4.027  16.853  0.00  0.00    +0.000 A 
ATOM      2  N   UNL     1       3.943   3.347  17.187  0.00  0.00    +0.000 NA
ATOM      3  C   UNL     1       3.292   4.096  18.118  0.00  0.00    +0.000 A 
ATOM      4  C   UNL     1       2.096   3.796  18.788  0.00  0.00    +0.000 A 
ATOM      5  C   UNL     1       1.572   4.729  19.679  0.00  0.00    +0.000 A 
ATOM      6  C   UNL     1       2.229   5.938  19.895  0.00  0.00    +0.000 A 
ATOM      7  C   UNL     1       3.445   6.250  19.248  0.00  0.00    +0.000 A 
ATOM      8  C   UNL     1       3.969   5.294  18.363  0.00  0.00    +0.000 A 
ATOM      9  N   UNL     1       5.119   5.196  17.593  0.00  0.00    +0.000 N 
ENDROOT
BRANCH   1  10
ATOM     10  C   UNL     1       5.968   3.575  15.802  0.00  0.00    +0.000 C 
BRANCH  10  11
ATOM     11  C   UNL     1       5.812   4.447  14.547  0.00  0.00    +0.000 C 
BRANCH  11  12
ATOM     12  CA  UNL     1       6.780   4.106  13.411  0.00  0.00    +0.000 C 
BRANCH  12  13
ATOM     13  N   UNL     1       7.431   5.297  12.840  0.00  0.00    +0.000 NA
ATOM     14  H1  UNL     1       7.481   5.207  11.825  0.00  0.00    +0.000 HD
ATOM     15  H2  UNL     1       8.402   5.326  13.163  0.00  0.00    +0.000 HD
ENDBRANCH  12  13
BRANCH  12  16
ATOM     16  C   UNL     1       6.080   3.303  12.295  0.00  0.00    +0.000 C 
ATOM     17  O   UNL     1       4.906   3.440  11.975  0.00  0.00    +0.000 OA
BRANCH  16  18
ATOM     18  OXT UNL     1       6.881   2.406  11.674  0.00  0.00    +0.000 OA
ATOM     19  HXT UNL     1       6.439   1.567  11.452  0.00  0.00    +0.000 HD
ENDBRANCH  16  18
ENDBRANCH  12  16
ENDBRANCH  11  12
ENDBRANCH  10  11
ENDBRANCH   1  10
BRANCH   9  20
ATOM     20  C   UNL     1       6.291   6.076  17.642  0.00  0.00    +0.000 C 
BRANCH  20  21
ATOM     21  P   UNL     1       7.262   5.670  19.140  0.00  0.00    +0.000 P 
ATOM     22  O   UNL     1       7.865   4.474  18.407  0.00  0.00    +0.000 OA
BRANCH  21  23
ATOM     23  O   UNL     1       8.266   6.936  18.933  0.00  0.00    +0.000 OA
ATOM     24  H   UNL     1       8.382   7.129  17.975  0.00  0.00    +0.000 HD
ENDBRANCH  21  23
BRANCH  21  25
ATOM     25  O   UNL     1       8.178   5.287  20.556  0.00  0.00    +0.000 OA
ATOM     26  H   UNL     1       9.136   5.368  20.400  0.00  0.00    +0.000 HD
ENDBRANCH  21  25
ENDBRANCH  20  21
ENDBRANCH   9  20
TORSDOF 10
ENDMDL
MODEL 5
REMARK VINA RESULT:      -6.6      2.290      5.020
REMARK  Name = 
REMARK  10 active torsions:
REMARK  status: ('A' for Active; 'I' for Inactive)
REMARK    1  A    between atoms: N_1  and  CA_2
REMARK    2  A    between atoms: CA_2  and  C_3
REMARK    3  A    between atoms: CA_2  and  C_19
REMARK    4  A    between atoms: C_3  and  C_4
REMARK    5  A    between atoms: C_4  and  C_5
REMARK    6  A    between atoms: N_13  and  C_14
REMARK    7  A    between atoms: C_14  and  P_15
REMARK    8  A    between atoms: P_15  and  O_17
REMARK    9  A    between atoms: P_15  and  O_18
REMARK   10  A    between atoms: C_19  and  OXT_21
REMARK                            x       y       z     vdW  Elec       q    Type
REMARK                         _______ _______ _______ _____ _____    ______ ____
ROOT
ATOM      1  C   UNL     1       4.030   5.085  17.246  0.00  0.00    +0.000 A 
ATOM      2  N   UNL     1       3.890   6.390  17.331  0.00  0.00    +0.000 NA
ATOM      3  C   UNL     1       3.068   6.617  18.391  0.00  0.00    +0.000 A 
ATOM      4  C   UNL     1       2.610   7.849  18.882  0.00  0.00    +0.000 A 
ATOM      5  C   UNL     1       1.802   7.862  20.017  0.00  0.00    +0.000 A 
ATOM      6  C   UNL     1       1.460   6.667  20.648  0.00  0.00    +0.000 A 
ATOM      7  C   UNL     1       1.892   5.416  20.156  0.00  0.00    +0.000 A 
ATOM      8  C   UNL     1       2.694   5.418  19.003  0.00  0.00    +0.000 A 
ATOM      9  N   UNL     1       3.265   4.438  18.203  0.00  0.00    +0.000 N 
ENDROOT
BRANCH   1  10
ATOM     10  C   UNL     1       4.918   4.429  16.248  0.00  0.00    +0.000 C 
BRANCH  10  11
ATOM     11  C   UNL     1       6.095   5.356  15.907  0.00  0.00    +0.000 C 
BRANCH  11  12
ATOM     12  CA  UNL     1       7.256   5.303  16.904  0.00  0.00    +0.000 C 
BRANCH  12  13
ATOM     13  N   UNL     1       7.126   4.202  17.872  0.00  0.00    +0.000 NA
ATOM     14  H1  UNL     1       7.571   3.363  17.499  0.00  0.00    +0.000 HD
ATOM     15  H2  UNL     1       6.134   3.968  17.972  0.00  0.00    +0.000 HD
ENDBRANCH  12  13
BRANCH  12  16
ATOM     16  C   UNL     1       7.420   6.644  17.649  0.00  0.00    +0.000 C 
ATOM     17  O   UNL     1       8.092   6.796  18.661  0.00  0.00    +0.000 OA
BRANCH  16  18
ATOM     18  OXT UNL     1       6.745   7.674  17.087  0.00  0.00    +0.000 OA
ATOM     19  HXT UNL     1       6.601   8.427  17.686  0.00  0.00    +0.000 HD
ENDBRANCH  16  18
ENDBRANCH  12  16
ENDBRANCH  11  12
ENDBRANCH  10  11
ENDBRANCH   1  10
BRANCH   9  20
ATOM     20  C   UNL     1       3.008   2.995  18.258  0.00  0.00    +0.000 C 
BRANCH  20  21
ATOM     21  P   UNL     1       4.210   2.233  19.410  0.00  0.00    +0.000 P 
ATOM     22  O   UNL     1       3.130   2.202  20.490  0.00  0.00    +0.000 OA
BRANCH  21  23
ATOM     23  O   UNL     1       4.174   0.802  18.633  0.00  0.00    +0.000 OA
ATOM     24  H   UNL     1       4.909   0.747  17.980  0.00  0.00    +0.000 HD
ENDBRANCH  21  23
BRANCH  21  25
ATOM     25  O   UNL     1       5.345   1.514  20.499  0.00  0.00    +0.000 OA
ATOM     26  H   UNL     1       5.991   2.163  20.828  0.00  0.00    +0.000 HD
ENDBRANCH  21  25
ENDBRANCH  20  21
ENDBRANCH   9  20
TORSDOF 10
ENDMDL
MODEL 6
REMARK VINA RESULT:      -6.6      2.145      5.147
REMARK  Name = 
REMARK  10 active torsions:
REMARK  status: ('A' for Active; 'I' for Inactive)
REMARK    1  A    between atoms: N_1  and  CA_2
REMARK    2  A    between atoms: CA_2  and  C_3
REMARK    3  A    between atoms: CA_2  and  C_19
REMARK    4  A    between atoms: C_3  and  C_4
REMARK    5  A    between atoms: C_4  and  C_5
REMARK    6  A    between atoms: N_13  and  C_14
REMARK    7  A    between atoms: C_14  and  P_15
REMARK    8  A    between atoms: P_15  and  O_17
REMARK    9  A    between atoms: P_15  and  O_18
REMARK   10  A    between atoms: C_19  and  OXT_21
REMARK                            x       y       z     vdW  Elec       q    Type
REMARK                         _______ _______ _______ _____ _____    ______ ____
ROOT
ATOM      1  C   UNL     1       3.975   5.394  18.233  0.00  0.00    +0.000 A 
ATOM      2  N   UNL     1       3.840   6.496  17.528  0.00  0.00    +0.000 NA
ATOM      3  C   UNL     1       2.967   7.282  18.214  0.00  0.00    +0.000 A 
ATOM      4  C   UNL     1       2.493   8.556  17.867  0.00  0.00    +0.000 A 
ATOM      5  C   UNL     1       1.629   9.214  18.739  0.00  0.00    +0.000 A 
ATOM      6  C   UNL     1       1.247   8.610  19.935  0.00  0.00    +0.000 A 
ATOM      7  C   UNL     1       1.694   7.318  20.293  0.00  0.00    +0.000 A 
ATOM      8  C   UNL     1       2.554   6.662  19.397  0.00  0.00    +0.000 A 
ATOM      9  N   UNL     1       3.157   5.414  19.352  0.00  0.00    +0.000 N 
ENDROOT
BRANCH   1  10
ATOM     10  C   UNL     1       4.907   4.298  17.852  0.00  0.00    +0.000 C 
BRANCH  10  11
ATOM     11  C   UNL     1       4.715   3.941  16.371  0.00  0.00    +0.000 C 
BRANCH  11  12
ATOM     12  CA  UNL     1       5.769   4.535  15.431  0.00  0.00    +0.000 C 
BRANCH  12  13
ATOM     13  N   UNL     1       6.244   3.571  14.425  0.00  0.00    +0.000 NA
ATOM     14  H1  UNL     1       5.578   3.526  13.653  0.00  0.00    +0.000 HD
ATOM     15  H2  UNL     1       6.248   2.637  14.842  0.00  0.00    +0.000 HD
ENDBRANCH  12  13
BRANCH  12  16
ATOM     16  C   UNL     1       6.965   5.109  16.218  0.00  0.00    +0.000 C 
ATOM     17  O   UNL     1       7.906   4.444  16.631  0.00  0.00    +0.000 OA
BRANCH  16  18
ATOM     18  OXT UNL     1       6.898   6.445  16.426  0.00  0.00    +0.000 OA
ATOM     19  HXT UNL     1       6.169   6.719  17.010  0.00  0.00    +0.000 HD
ENDBRANCH  16  18
ENDBRANCH  12  16
ENDBRANCH  11  12
ENDBRANCH  10  11
ENDBRANCH   1  10
BRANCH   9  20
ATOM     20  C   UNL     1       2.888   4.272  20.232  0.00  0.00    +0.000 C 
BRANCH  20  21
ATOM     21  P   UNL     1       1.540   3.275  19.497  0.00  0.00    +0.000 P 
ATOM     22  O   UNL     1       2.517   2.113  19.321  0.00  0.00    +0.000 OA
BRANCH  21  23
ATOM     23  O   UNL     1       0.791   3.078  20.930  0.00  0.00    +0.000 OA
ATOM     24  H   UNL     1       1.436   3.159  21.669  0.00  0.00    +0.000 HD
ENDBRANCH  21  23
BRANCH  21  25
ATOM     25  O   UNL     1       0.267   2.333  18.801  0.00  0.00    +0.000 OA
ATOM     26  H   UNL     1       0.209   2.458  17.838  0.00  0.00    +0.000 HD
ENDBRANCH  21  25
ENDBRANCH  20  21
ENDBRANCH   9  20
TORSDOF 10
ENDMDL
MODEL 7
REMARK VINA RESULT:      -6.6      2.371      4.929
REMARK  Name = 
REMARK  10 active torsions:
REMARK  status: ('A' for Active; 'I' for Inactive)
REMARK    1  A    between atoms: N_1  and  CA_2
REMARK    2  A    between atoms: CA_2  and  C_3
REMARK    3  A    between atoms: CA_2  and  C_19
REMARK    4  A    between atoms: C_3  and  C_4
REMARK    5  A    between atoms: C_4  and  C_5
REMARK    6  A    between atoms: N_13  and  C_14
REMARK    7  A    between atoms: C_14  and  P_15
REMARK    8  A    between atoms: P_15  and  O_17
REMARK    9  A    between atoms: P_15  and  O_18
REMARK   10  A    between atoms: C_19  and  OXT_21
REMARK                            x       y       z     vdW  Elec       q    Type
REMARK                         _______ _______ _______ _____ _____    ______ ____
ROOT
ATOM      1  C   UNL     1       3.932   5.216  17.341  0.00  0.00    +0.000 A 
ATOM      2  N   UNL     1       3.700   6.505  17.457  0.00  0.00    +0.000 NA
ATOM      3  C   UNL     1       2.920   6.655  18.562  0.00  0.00    +0.000 A 
ATOM      4  C   UNL     1       2.399   7.841  19.098  0.00  0.00    +0.000 A 
ATOM      5  C   UNL     1       1.653   7.778  20.274  0.00  0.00    +0.000 A 
ATOM      6  C   UNL     1       1.435   6.553  20.900  0.00  0.00    +0.000 A 
ATOM      7  C   UNL     1       1.932   5.344  20.363  0.00  0.00    +0.000 A 
ATOM      8  C   UNL     1       2.670   5.423  19.171  0.00  0.00    +0.000 A 
ATOM      9  N   UNL     1       3.268   4.500  18.325  0.00  0.00    +0.000 N 
ENDROOT
BRANCH   1  10
ATOM     10  C   UNL     1       4.812   4.643  16.287  0.00  0.00    +0.000 C 
BRANCH  10  11
ATOM     11  C   UNL     1       5.792   5.714  15.786  0.00  0.00    +0.000 C 
BRANCH  11  12
ATOM     12  CA  UNL     1       7.185   5.648  16.420  0.00  0.00    +0.000 C 
BRANCH  12  13
ATOM     13  N   UNL     1       7.459   4.352  17.060  0.00  0.00    +0.000 NA
ATOM     14  H1  UNL     1       7.658   3.652  16.344  0.00  0.00    +0.000 HD
ATOM     15  H2  UNL     1       6.608   4.031  17.531  0.00  0.00    +0.000 HD
ENDBRANCH  12  13
BRANCH  12  16
ATOM     16  C   UNL     1       7.396   6.792  17.433  0.00  0.00    +0.000 C 
ATOM     17  O   UNL     1       7.415   7.981  17.142  0.00  0.00    +0.000 OA
BRANCH  16  18
ATOM     18  OXT UNL     1       7.566   6.374  18.709  0.00  0.00    +0.000 OA
ATOM     19  HXT UNL     1       6.810   6.563  19.292  0.00  0.00    +0.000 HD
ENDBRANCH  16  18
ENDBRANCH  12  16
ENDBRANCH  11  12
ENDBRANCH  10  11
ENDBRANCH   1  10
BRANCH   9  20
ATOM     20  C   UNL     1       3.123   3.041  18.367  0.00  0.00    +0.000 C 
BRANCH  20  21
ATOM     21  P   UNL     1       4.141   2.394  19.743  0.00  0.00    +0.000 P 
ATOM     22  O   UNL     1       4.138   1.018  19.079  0.00  0.00    +0.000 OA
BRANCH  21  23
ATOM     23  O   UNL     1       5.474   3.183  19.240  0.00  0.00    +0.000 OA
ATOM     24  H   UNL     1       6.256   2.585  19.259  0.00  0.00    +0.000 HD
ENDBRANCH  21  23
BRANCH  21  25
ATOM     25  O   UNL     1       5.103   1.782  21.045  0.00  0.00    +0.000 OA
ATOM     26  H   UNL     1       5.965   2.230  21.099  0.00  0.00    +0.000 HD
ENDBRANCH  21  25
ENDBRANCH  20  21
ENDBRANCH   9  20
TORSDOF 10
ENDMDL
MODEL 8
REMARK VINA RESULT:      -6.6      2.033      5.337
REMARK  Name = 
REMARK  10 active torsions:
REMARK  status: ('A' for Active; 'I' for Inactive)
REMARK    1  A    between atoms: N_1  and  CA_2
REMARK    2  A    between atoms: CA_2  and  C_3
REMARK    3  A    between atoms: CA_2  and  C_19
REMARK    4  A    between atoms: C_3  and  C_4
REMARK    5  A    between atoms: C_4  and  C_5
REMARK    6  A    between atoms: N_13  and  C_14
REMARK    7  A    between atoms: C_14  and  P_15
REMARK    8  A    between atoms: P_15  and  O_17
REMARK    9  A    between atoms: P_15  and  O_18
REMARK   10  A    between atoms: C_19  and  OXT_21
REMARK                            x       y       z     vdW  Elec       q    Type
REMARK                         _______ _______ _______ _____ _____    ______ ____
ROOT
ATOM      1  C   UNL     1       4.045   5.364  17.900  0.00  0.00    +0.000 A 
ATOM      2  N   UNL     1       3.793   6.493  17.276  0.00  0.00    +0.000 NA
ATOM      3  C   UNL     1       2.970   7.206  18.093  0.00  0.00    +0.000 A 
ATOM      4  C   UNL     1       2.414   8.474  17.869  0.00  0.00    +0.000 A 
ATOM      5  C   UNL     1       1.626   9.049  18.863  0.00  0.00    +0.000 A 
ATOM      6  C   UNL     1       1.400   8.369  20.059  0.00  0.00    +0.000 A 
ATOM      7  C   UNL     1       1.932   7.082  20.295  0.00  0.00    +0.000 A 
ATOM      8  C   UNL     1       2.713   6.510  19.277  0.00  0.00    +0.000 A 
ATOM      9  N   UNL     1       3.354   5.292  19.100  0.00  0.00    +0.000 N 
ENDROOT
BRANCH   1  10
ATOM     10  C   UNL     1       4.971   4.331  17.363  0.00  0.00    +0.000 C 
BRANCH  10  11
ATOM     11  C   UNL     1       5.817   4.927  16.228  0.00  0.00    +0.000 C 
BRANCH  11  12
ATOM     12  CA  UNL     1       7.264   5.248  16.615  0.00  0.00    +0.000 C 
BRANCH  12  13
ATOM     13  N   UNL     1       7.923   4.141  17.326  0.00  0.00    +0.000 NA
ATOM     14  H1  UNL     1       7.750   3.265  16.831  0.00  0.00    +0.000 HD
ATOM     15  H2  UNL     1       7.482   4.032  18.244  0.00  0.00    +0.000 HD
ENDBRANCH  12  13
BRANCH  12  16
ATOM     16  C   UNL     1       7.349   6.539  17.455  0.00  0.00    +0.000 C 
ATOM     17  O   UNL     1       7.948   6.636  18.519  0.00  0.00    +0.000 OA
BRANCH  16  18
ATOM     18  OXT UNL     1       6.693   7.593  16.915  0.00  0.00    +0.000 OA
ATOM     19  HXT UNL     1       6.151   7.367  16.139  0.00  0.00    +0.000 HD
ENDBRANCH  16  18
ENDBRANCH  12  16
ENDBRANCH  11  12
ENDBRANCH  10  11
ENDBRANCH   1  10
BRANCH   9  20
ATOM     20  C   UNL     1       3.226   4.097  19.941  0.00  0.00    +0.000 C 
BRANCH  20  21
ATOM     21  P   UNL     1       1.624   3.294  19.569  0.00  0.00    +0.000 P 
ATOM     22  O   UNL     1       2.366   1.997  19.249  0.00  0.00    +0.000 OA
BRANCH  21  23
ATOM     23  O   UNL     1       1.192   3.241  21.139  0.00  0.00    +0.000 OA
ATOM     24  H   UNL     1       0.828   4.110  21.424  0.00  0.00    +0.000 HD
ENDBRANCH  21  23
BRANCH  21  25
ATOM     25  O   UNL     1       0.110   2.534  19.218  0.00  0.00    +0.000 OA
ATOM     26  H   UNL     1      -0.392   3.024  18.543  0.00  0.00    +0.000 HD
ENDBRANCH  21  25
ENDBRANCH  20  21
ENDBRANCH   9  20
TORSDOF 10
ENDMDL
MODEL 9
REMARK VINA RESULT:      -6.6      2.360      4.889
REMARK  Name = 
REMARK  10 active torsions:
REMARK  status: ('A' for Active; 'I' for Inactive)
REMARK    1  A    between atoms: N_1  and  CA_2
REMARK    2  A    between atoms: CA_2  and  C_3
REMARK    3  A    between atoms: CA_2  and  C_19
REMARK    4  A    between atoms: C_3  and  C_4
REMARK    5  A    between atoms: C_4  and  C_5
REMARK    6  A    between atoms: N_13  and  C_14
REMARK    7  A    between atoms: C_14  and  P_15
REMARK    8  A    between atoms: P_15  and  O_17
REMARK    9  A    between atoms: P_15  and  O_18
REMARK   10  A    between atoms: C_19  and  OXT_21
REMARK                            x       y       z     vdW  Elec       q    Type
REMARK                         _______ _______ _______ _____ _____    ______ ____
ROOT
ATOM      1  C   UNL     1       3.891   5.355  17.386  0.00  0.00    +0.000 A 
ATOM      2  N   UNL     1       3.630   6.633  17.548  0.00  0.00    +0.000 NA
ATOM      3  C   UNL     1       2.847   6.725  18.657  0.00  0.00    +0.000 A 
ATOM      4  C   UNL     1       2.299   7.879  19.236  0.00  0.00    +0.000 A 
ATOM      5  C   UNL     1       1.554   7.756  20.407  0.00  0.00    +0.000 A 
ATOM      6  C   UNL     1       1.363   6.504  20.987  0.00  0.00    +0.000 A 
ATOM      7  C   UNL     1       1.887   5.327  20.407  0.00  0.00    +0.000 A 
ATOM      8  C   UNL     1       2.623   5.466  19.220  0.00  0.00    +0.000 A 
ATOM      9  N   UNL     1       3.243   4.588  18.342  0.00  0.00    +0.000 N 
ENDROOT
BRANCH   1  10
ATOM     10  C   UNL     1       4.784   4.840  16.312  0.00  0.00    +0.000 C 
BRANCH  10  11
ATOM     11  C   UNL     1       5.928   5.835  16.064  0.00  0.00    +0.000 C 
BRANCH  11  12
ATOM     12  CA  UNL     1       6.729   6.208  17.314  0.00  0.00    +0.000 C 
BRANCH  12  13
ATOM     13  N   UNL     1       7.533   7.428  17.132  0.00  0.00    +0.000 NA
ATOM     14  H1  UNL     1       7.567   7.950  18.009  0.00  0.00    +0.000 HD
ATOM     15  H2  UNL     1       7.055   8.040  16.465  0.00  0.00    +0.000 HD
ENDBRANCH  12  13
BRANCH  12  16
ATOM     16  C   UNL     1       7.632   5.045  17.772  0.00  0.00    +0.000 C 
ATOM     17  O   UNL     1       8.111   4.203  17.024  0.00  0.00    +0.000 OA
BRANCH  16  18
ATOM     18  OXT UNL     1       7.866   5.020  19.105  0.00  0.00    +0.000 OA
ATOM     19  HXT UNL     1       7.061   5.070  19.650  0.00  0.00    +0.000 HD
ENDBRANCH  16  18
ENDBRANCH  12  16
ENDBRANCH  11  12
ENDBRANCH  10  11
ENDBRANCH   1  10
BRANCH   9  20
ATOM     20  C   UNL     1       3.130   3.126  18.329  0.00  0.00    +0.000 C 
BRANCH  20  21
ATOM     21  P   UNL     1       4.083   2.457  19.742  0.00  0.00    +0.000 P 
ATOM     22  O   UNL     1       4.040   1.073  19.096  0.00  0.00    +0.000 OA
BRANCH  21  23
ATOM     23  O   UNL     1       5.460   3.184  19.265  0.00  0.00    +0.000 OA
ATOM     24  H   UNL     1       5.371   3.516  18.342  0.00  0.00    +0.000 HD
ENDBRANCH  21  23
BRANCH  21  25
ATOM     25  O   UNL     1       4.983   1.824  21.077  0.00  0.00    +0.000 OA
ATOM     26  H   UNL     1       5.262   2.527  21.691  0.00  0.00    +0.000 HD
ENDBRANCH  21  25
ENDBRANCH  20  21
ENDBRANCH   9  20
TORSDOF 10
ENDMDL
