MODEL 1
REMARK VINA RESULT:      -7.1      0.000      0.000
REMARK  Name = 
REMARK  6 active torsions:
REMARK  status: ('A' for Active; 'I' for Inactive)
REMARK    1  A    between atoms: C_1  and  C_2
REMARK    2  A    between atoms: C_7  and  C_8
REMARK    3  A    between atoms: C_10  and  N_11
REMARK    4  A    between atoms: C_12  and  C_14
REMARK    5  A    between atoms: C_14  and  C_15
REMARK    6  A    between atoms: C_15  and  C_16
REMARK                            x       y       z     vdW  Elec       q    Type
REMARK                         _______ _______ _______ _____ _____    ______ ____
ROOT
ATOM      1  C   UNL     1       7.246   5.747  19.177  0.00  0.00    +0.000 C 
ATOM      2  C   UNL     1       6.468   5.255  17.987  0.00  0.00    +0.000 A 
ATOM      3  C   UNL     1       7.112   5.283  16.731  0.00  0.00    +0.000 A 
ATOM      4  C   UNL     1       6.493   4.780  15.592  0.00  0.00    +0.000 A 
ATOM      5 CL   UNL     1       7.317   4.813  14.083  0.00  0.00    +0.000 Cl
ATOM      6  C   UNL     1       5.220   4.237  15.670  0.00  0.00    +0.000 A 
ATOM      7  C   UNL     1       4.564   4.185  16.907  0.00  0.00    +0.000 A 
ATOM      8  C   UNL     1       5.172   4.700  18.076  0.00  0.00    +0.000 A 
ENDROOT
BRANCH   8   9
ATOM      9  N   UNL     1       4.484   4.574  19.321  0.00  0.00    +0.000 N 
ATOM     10  C   UNL     1       3.465   5.448  19.681  0.00  0.00    +0.000 C 
ATOM     11  O   UNL     1       3.165   6.474  19.082  0.00  0.00    +0.000 OA
ATOM     12  H   UNL     1       4.311   3.621  19.631  0.00  0.00    +0.000 HD
BRANCH  10  13
ATOM     13  C   UNL     1       2.703   5.004  20.920  0.00  0.00    +0.000 C 
BRANCH  13  14
ATOM     14  C   UNL     1       1.294   4.510  20.583  0.00  0.00    +0.000 C 
BRANCH  14  15
ATOM     15  C   UNL     1       1.189   2.994  20.566  0.00  0.00    +0.000 C 
ATOM     16  F   UNL     1       0.833   2.493  21.768  0.00  0.00    +0.000 F 
ATOM     17  F   UNL     1       0.245   2.605  19.677  0.00  0.00    +0.000 F 
ATOM     18  F   UNL     1       2.349   2.416  20.196  0.00  0.00    +0.000 F 
ENDBRANCH  14  15
ENDBRANCH  13  14
ENDBRANCH  10  13
ENDBRANCH   8   9
BRANCH   7  19
ATOM     19  C   UNL     1       3.245   3.628  16.936  0.00  0.00    +0.000 C 
ATOM     20  N   UNL     1       2.191   3.138  16.962  0.00  0.00    +0.000 NA
ENDBRANCH   7  19
TORSDOF 5
ENDMDL
MODEL 2
REMARK VINA RESULT:      -7.0      0.979      2.580
REMARK  Name = 
REMARK  6 active torsions:
REMARK  status: ('A' for Active; 'I' for Inactive)
REMARK    1  A    between atoms: C_1  and  C_2
REMARK    2  A    between atoms: C_7  and  C_8
REMARK    3  A    between atoms: C_10  and  N_11
REMARK    4  A    between atoms: C_12  and  C_14
REMARK    5  A    between atoms: C_14  and  C_15
REMARK    6  A    between atoms: C_15  and  C_16
REMARK                            x       y       z     vdW  Elec       q    Type
REMARK                         _______ _______ _______ _____ _____    ______ ____
ROOT
ATOM      1  C   UNL     1       2.856   3.577  16.801  0.00  0.00    +0.000 C 
ATOM      2  C   UNL     1       4.294   4.012  16.872  0.00  0.00    +0.000 A 
ATOM      3  C   UNL     1       5.008   4.101  15.656  0.00  0.00    +0.000 A 
ATOM      4  C   UNL     1       6.319   4.564  15.623  0.00  0.00    +0.000 A 
ATOM      5 CL   UNL     1       7.149   4.679  14.122  0.00  0.00    +0.000 Cl
ATOM      6  C   UNL     1       6.955   4.949  16.793  0.00  0.00    +0.000 A 
ATOM      7  C   UNL     1       6.264   4.883  18.011  0.00  0.00    +0.000 A 
ATOM      8  C   UNL     1       4.934   4.405  18.068  0.00  0.00    +0.000 A 
ENDROOT
BRANCH   8   9
ATOM      9  N   UNL     1       4.256   4.408  19.325  0.00  0.00    +0.000 N 
ATOM     10  C   UNL     1       3.370   5.421  19.672  0.00  0.00    +0.000 C 
ATOM     11  O   UNL     1       3.202   6.462  19.047  0.00  0.00    +0.000 OA
ATOM     12  H   UNL     1       3.960   3.495  19.665  0.00  0.00    +0.000 HD
BRANCH  10  13
ATOM     13  C   UNL     1       2.575   5.118  20.932  0.00  0.00    +0.000 C 
BRANCH  13  14
ATOM     14  C   UNL     1       2.642   3.638  21.314  0.00  0.00    +0.000 C 
BRANCH  14  15
ATOM     15  C   UNL     1       1.353   2.891  21.014  0.00  0.00    +0.000 C 
ATOM     16  F   UNL     1       0.803   2.354  22.123  0.00  0.00    +0.000 F 
ATOM     17  F   UNL     1       0.438   3.739  20.487  0.00  0.00    +0.000 F 
ATOM     18  F   UNL     1       1.544   1.903  20.117  0.00  0.00    +0.000 F 
ENDBRANCH  14  15
ENDBRANCH  13  14
ENDBRANCH  10  13
ENDBRANCH   8   9
BRANCH   7  19
ATOM     19  C   UNL     1       6.966   5.278  19.195  0.00  0.00    +0.000 C 
ATOM     20  N   UNL     1       7.510   5.575  20.178  0.00  0.00    +0.000 NA
ENDBRANCH   7  19
TORSDOF 5
ENDMDL
MODEL 3
REMARK VINA RESULT:      -7.0      1.810      2.202
REMARK  Name = 
REMARK  6 active torsions:
REMARK  status: ('A' for Active; 'I' for Inactive)
REMARK    1  A    between atoms: C_1  and  C_2
REMARK    2  A    between atoms: C_7  and  C_8
REMARK    3  A    between atoms: C_10  and  N_11
REMARK    4  A    between atoms: C_12  and  C_14
REMARK    5  A    between atoms: C_14  and  C_15
REMARK    6  A    between atoms: C_15  and  C_16
REMARK                            x       y       z     vdW  Elec       q    Type
REMARK                         _______ _______ _______ _____ _____    ______ ____
ROOT
ATOM      1  C   UNL     1       3.780   7.513  17.503  0.00  0.00    +0.000 C 
ATOM      2  C   UNL     1       4.259   6.163  17.047  0.00  0.00    +0.000 A 
ATOM      3  C   UNL     1       5.229   6.129  16.020  0.00  0.00    +0.000 A 
ATOM      4  C   UNL     1       5.779   4.927  15.588  0.00  0.00    +0.000 A 
ATOM      5 CL   UNL     1       6.972   4.927  14.350  0.00  0.00    +0.000 Cl
ATOM      6  C   UNL     1       5.382   3.729  16.163  0.00  0.00    +0.000 A 
ATOM      7  C   UNL     1       4.433   3.737  17.193  0.00  0.00    +0.000 A 
ATOM      8  C   UNL     1       3.852   4.947  17.640  0.00  0.00    +0.000 A 
ENDROOT
BRANCH   8   9
ATOM      9  N   UNL     1       2.929   4.906  18.728  0.00  0.00    +0.000 N 
ATOM     10  C   UNL     1       1.606   4.523  18.546  0.00  0.00    +0.000 C 
ATOM     11  O   UNL     1       1.060   4.347  17.463  0.00  0.00    +0.000 OA
ATOM     12  H   UNL     1       3.311   4.585  19.615  0.00  0.00    +0.000 HD
BRANCH  10  13
ATOM     13  C   UNL     1       0.857   4.312  19.852  0.00  0.00    +0.000 C 
BRANCH  13  14
ATOM     14  C   UNL     1       1.806   4.075  21.029  0.00  0.00    +0.000 C 
BRANCH  14  15
ATOM     15  C   UNL     1       1.873   2.616  21.449  0.00  0.00    +0.000 C 
ATOM     16  F   UNL     1       1.524   1.780  20.449  0.00  0.00    +0.000 F 
ATOM     17  F   UNL     1       3.138   2.296  21.812  0.00  0.00    +0.000 F 
ATOM     18  F   UNL     1       1.077   2.363  22.507  0.00  0.00    +0.000 F 
ENDBRANCH  14  15
ENDBRANCH  13  14
ENDBRANCH  10  13
ENDBRANCH   8   9
BRANCH   7  19
ATOM     19  C   UNL     1       4.044   2.474  17.747  0.00  0.00    +0.000 C 
ATOM     20  N   UNL     1       3.743   1.463  18.233  0.00  0.00    +0.000 NA
ENDBRANCH   7  19
TORSDOF 5
ENDMDL
MODEL 4
REMARK VINA RESULT:      -7.0      0.511      1.079
REMARK  Name = 
REMARK  6 active torsions:
REMARK  status: ('A' for Active; 'I' for Inactive)
REMARK    1  A    between atoms: C_1  and  C_2
REMARK    2  A    between atoms: C_7  and  C_8
REMARK    3  A    between atoms: C_10  and  N_11
REMARK    4  A    between atoms: C_12  and  C_14
REMARK    5  A    between atoms: C_14  and  C_15
REMARK    6  A    between atoms: C_15  and  C_16
REMARK                            x       y       z     vdW  Elec       q    Type
REMARK                         _______ _______ _______ _____ _____    ______ ____
ROOT
ATOM      1  C   UNL     1       7.028   5.835  19.234  0.00  0.00    +0.000 C 
ATOM      2  C   UNL     1       6.262   5.279  18.065  0.00  0.00    +0.000 A 
ATOM      3  C   UNL     1       6.920   5.241  16.815  0.00  0.00    +0.000 A 
ATOM      4  C   UNL     1       6.313   4.678  15.698  0.00  0.00    +0.000 A 
ATOM      5 CL   UNL     1       7.153   4.630  14.198  0.00  0.00    +0.000 Cl
ATOM      6  C   UNL     1       5.039   4.139  15.792  0.00  0.00    +0.000 A 
ATOM      7  C   UNL     1       4.371   4.151  17.023  0.00  0.00    +0.000 A 
ATOM      8  C   UNL     1       4.966   4.729  18.169  0.00  0.00    +0.000 A 
ENDROOT
BRANCH   8   9
ATOM      9  N   UNL     1       4.266   4.669  19.412  0.00  0.00    +0.000 N 
ATOM     10  C   UNL     1       3.266   5.581  19.729  0.00  0.00    +0.000 C 
ATOM     11  O   UNL     1       2.997   6.591  19.088  0.00  0.00    +0.000 OA
ATOM     12  H   UNL     1       4.065   3.733  19.757  0.00  0.00    +0.000 HD
BRANCH  10  13
ATOM     13  C   UNL     1       2.484   5.205  20.977  0.00  0.00    +0.000 C 
BRANCH  13  14
ATOM     14  C   UNL     1       1.346   4.229  20.671  0.00  0.00    +0.000 C 
BRANCH  14  15
ATOM     15  C   UNL     1       1.642   2.813  21.137  0.00  0.00    +0.000 C 
ATOM     16  F   UNL     1       1.603   1.923  20.123  0.00  0.00    +0.000 F 
ATOM     17  F   UNL     1       2.884   2.752  21.673  0.00  0.00    +0.000 F 
ATOM     18  F   UNL     1       0.776   2.407  22.087  0.00  0.00    +0.000 F 
ENDBRANCH  14  15
ENDBRANCH  13  14
ENDBRANCH  10  13
ENDBRANCH   8   9
BRANCH   7  19
ATOM     19  C   UNL     1       3.051   3.596  17.068  0.00  0.00    +0.000 C 
ATOM     20  N   UNL     1       1.983   3.138  17.063  0.00  0.00    +0.000 NA
ENDBRANCH   7  19
TORSDOF 5
ENDMDL
MODEL 5
REMARK VINA RESULT:      -6.8      2.114      2.858
REMARK  Name = 
REMARK  6 active torsions:
REMARK  status: ('A' for Active; 'I' for Inactive)
REMARK    1  A    between atoms: C_1  and  C_2
REMARK    2  A    between atoms: C_7  and  C_8
REMARK    3  A    between atoms: C_10  and  N_11
REMARK    4  A    between atoms: C_12  and  C_14
REMARK    5  A    between atoms: C_14  and  C_15
REMARK    6  A    between atoms: C_15  and  C_16
REMARK                            x       y       z     vdW  Elec       q    Type
REMARK                         _______ _______ _______ _____ _____    ______ ____
ROOT
ATOM      1  C   UNL     1       2.570   7.638  17.581  0.00  0.00    +0.000 C 
ATOM      2  C   UNL     1       3.778   6.770  17.800  0.00  0.00    +0.000 A 
ATOM      3  C   UNL     1       5.032   7.288  17.406  0.00  0.00    +0.000 A 
ATOM      4  C   UNL     1       6.208   6.583  17.638  0.00  0.00    +0.000 A 
ATOM      5 CL   UNL     1       7.718   7.255  17.164  0.00  0.00    +0.000 Cl
ATOM      6  C   UNL     1       6.171   5.348  18.266  0.00  0.00    +0.000 A 
ATOM      7  C   UNL     1       4.941   4.817  18.679  0.00  0.00    +0.000 A 
ATOM      8  C   UNL     1       3.732   5.513  18.443  0.00  0.00    +0.000 A 
ENDROOT
BRANCH   8   9
ATOM      9  N   UNL     1       2.512   4.956  18.931  0.00  0.00    +0.000 N 
ATOM     10  C   UNL     1       1.821   3.981  18.220  0.00  0.00    +0.000 C 
ATOM     11  O   UNL     1       2.073   3.626  17.074  0.00  0.00    +0.000 OA
ATOM     12  H   UNL     1       2.467   4.811  19.937  0.00  0.00    +0.000 HD
BRANCH  10  13
ATOM     13  C   UNL     1       0.689   3.348  19.013  0.00  0.00    +0.000 C 
BRANCH  13  14
ATOM     14  C   UNL     1       0.686   3.800  20.475  0.00  0.00    +0.000 C 
BRANCH  14  15
ATOM     15  C   UNL     1       1.460   2.861  21.385  0.00  0.00    +0.000 C 
ATOM     16  F   UNL     1       0.704   2.396  22.402  0.00  0.00    +0.000 F 
ATOM     17  F   UNL     1       1.889   1.785  20.683  0.00  0.00    +0.000 F 
ATOM     18  F   UNL     1       2.550   3.457  21.908  0.00  0.00    +0.000 F 
ENDBRANCH  14  15
ENDBRANCH  13  14
ENDBRANCH  10  13
ENDBRANCH   8   9
BRANCH   7  19
ATOM     19  C   UNL     1       4.951   3.532  19.310  0.00  0.00    +0.000 C 
ATOM     20  N   UNL     1       4.935   2.505  19.854  0.00  0.00    +0.000 NA
ENDBRANCH   7  19
TORSDOF 5
ENDMDL
MODEL 6
REMARK VINA RESULT:      -6.7      4.164      6.103
REMARK  Name = 
REMARK  6 active torsions:
REMARK  status: ('A' for Active; 'I' for Inactive)
REMARK    1  A    between atoms: C_1  and  C_2
REMARK    2  A    between atoms: C_7  and  C_8
REMARK    3  A    between atoms: C_10  and  N_11
REMARK    4  A    between atoms: C_12  and  C_14
REMARK    5  A    between atoms: C_14  and  C_15
REMARK    6  A    between atoms: C_15  and  C_16
REMARK                            x       y       z     vdW  Elec       q    Type
REMARK                         _______ _______ _______ _____ _____    ______ ____
ROOT
ATOM      1  C   UNL     1       3.890   2.554  17.655  0.00  0.00    +0.000 C 
ATOM      2  C   UNL     1       3.112   3.361  18.658  0.00  0.00    +0.000 A 
ATOM      3  C   UNL     1       2.503   2.662  19.723  0.00  0.00    +0.000 A 
ATOM      4  C   UNL     1       1.827   3.337  20.734  0.00  0.00    +0.000 A 
ATOM      5 CL   UNL     1       1.115   2.454  22.026  0.00  0.00    +0.000 Cl
ATOM      6  C   UNL     1       1.738   4.720  20.713  0.00  0.00    +0.000 A 
ATOM      7  C   UNL     1       2.345   5.438  19.675  0.00  0.00    +0.000 A 
ATOM      8  C   UNL     1       3.029   4.771  18.632  0.00  0.00    +0.000 A 
ENDROOT
BRANCH   8   9
ATOM      9  N   UNL     1       3.677   5.550  17.626  0.00  0.00    +0.000 N 
ATOM     10  C   UNL     1       5.024   5.878  17.715  0.00  0.00    +0.000 C 
ATOM     11  O   UNL     1       5.737   5.693  18.695  0.00  0.00    +0.000 OA
ATOM     12  H   UNL     1       3.382   5.364  16.669  0.00  0.00    +0.000 HD
BRANCH  10  13
ATOM     13  C   UNL     1       5.578   6.497  16.441  0.00  0.00    +0.000 C 
BRANCH  13  14
ATOM     14  C   UNL     1       5.417   5.569  15.234  0.00  0.00    +0.000 C 
BRANCH  14  15
ATOM     15  C   UNL     1       6.599   4.632  15.048  0.00  0.00    +0.000 C 
ATOM     16  F   UNL     1       7.465   4.690  16.082  0.00  0.00    +0.000 F 
ATOM     17  F   UNL     1       6.166   3.352  14.964  0.00  0.00    +0.000 F 
ATOM     18  F   UNL     1       7.277   4.900  13.914  0.00  0.00    +0.000 F 
ENDBRANCH  14  15
ENDBRANCH  13  14
ENDBRANCH  10  13
ENDBRANCH   8   9
BRANCH   7  19
ATOM     19  C   UNL     1       2.215   6.864  19.688  0.00  0.00    +0.000 C 
ATOM     20  N   UNL     1       2.067   8.017  19.700  0.00  0.00    +0.000 NA
ENDBRANCH   7  19
TORSDOF 5
ENDMDL
MODEL 7
REMARK VINA RESULT:      -6.7      1.978      2.653
REMARK  Name = 
REMARK  6 active torsions:
REMARK  status: ('A' for Active; 'I' for Inactive)
REMARK    1  A    between atoms: C_1  and  C_2
REMARK    2  A    between atoms: C_7  and  C_8
REMARK    3  A    between atoms: C_10  and  N_11
REMARK    4  A    between atoms: C_12  and  C_14
REMARK    5  A    between atoms: C_14  and  C_15
REMARK    6  A    between atoms: C_15  and  C_16
REMARK                            x       y       z     vdW  Elec       q    Type
REMARK                         _______ _______ _______ _____ _____    ______ ____
ROOT
ATOM      1  C   UNL     1       4.248   2.300  17.742  0.00  0.00    +0.000 C 
ATOM      2  C   UNL     1       4.556   3.672  17.208  0.00  0.00    +0.000 A 
ATOM      3  C   UNL     1       5.455   3.761  16.123  0.00  0.00    +0.000 A 
ATOM      4  C   UNL     1       5.740   4.982  15.522  0.00  0.00    +0.000 A 
ATOM      5 CL   UNL     1       6.825   5.050  14.189  0.00  0.00    +0.000 Cl
ATOM      6  C   UNL     1       5.140   6.145  15.981  0.00  0.00    +0.000 A 
ATOM      7  C   UNL     1       4.233   6.081  17.047  0.00  0.00    +0.000 A 
ATOM      8  C   UNL     1       3.938   4.851  17.680  0.00  0.00    +0.000 A 
ENDROOT
BRANCH   8   9
ATOM      9  N   UNL     1       2.967   4.831  18.726  0.00  0.00    +0.000 N 
ATOM     10  C   UNL     1       1.662   4.409  18.501  0.00  0.00    +0.000 C 
ATOM     11  O   UNL     1       1.171   4.177  17.402  0.00  0.00    +0.000 OA
ATOM     12  H   UNL     1       3.315   4.555  19.642  0.00  0.00    +0.000 HD
BRANCH  10  13
ATOM     13  C   UNL     1       0.859   4.231  19.779  0.00  0.00    +0.000 C 
BRANCH  13  14
ATOM     14  C   UNL     1       1.013   2.826  20.366  0.00  0.00    +0.000 C 
BRANCH  14  15
ATOM     15  C   UNL     1       2.065   2.756  21.461  0.00  0.00    +0.000 C 
ATOM     16  F   UNL     1       2.259   3.950  22.060  0.00  0.00    +0.000 F 
ATOM     17  F   UNL     1       1.675   1.887  22.423  0.00  0.00    +0.000 F 
ATOM     18  F   UNL     1       3.251   2.324  20.988  0.00  0.00    +0.000 F 
ENDBRANCH  14  15
ENDBRANCH  13  14
ENDBRANCH  10  13
ENDBRANCH   8   9
BRANCH   7  19
ATOM     19  C   UNL     1       3.649   7.309  17.497  0.00  0.00    +0.000 C 
ATOM     20  N   UNL     1       3.157   8.285  17.893  0.00  0.00    +0.000 NA
ENDBRANCH   7  19
TORSDOF 5
ENDMDL
MODEL 8
REMARK VINA RESULT:      -6.6      1.594      1.807
REMARK  Name = 
REMARK  6 active torsions:
REMARK  status: ('A' for Active; 'I' for Inactive)
REMARK    1  A    between atoms: C_1  and  C_2
REMARK    2  A    between atoms: C_7  and  C_8
REMARK    3  A    between atoms: C_10  and  N_11
REMARK    4  A    between atoms: C_12  and  C_14
REMARK    5  A    between atoms: C_14  and  C_15
REMARK    6  A    between atoms: C_15  and  C_16
REMARK                            x       y       z     vdW  Elec       q    Type
REMARK                         _______ _______ _______ _____ _____    ______ ____
ROOT
ATOM      1  C   UNL     1       3.809   7.613  17.346  0.00  0.00    +0.000 C 
ATOM      2  C   UNL     1       4.272   6.265  16.867  0.00  0.00    +0.000 A 
ATOM      3  C   UNL     1       5.280   6.236  15.878  0.00  0.00    +0.000 A 
ATOM      4  C   UNL     1       5.817   5.034  15.431  0.00  0.00    +0.000 A 
ATOM      5 CL   UNL     1       7.058   5.039  14.241  0.00  0.00    +0.000 Cl
ATOM      6  C   UNL     1       5.368   3.831  15.953  0.00  0.00    +0.000 A 
ATOM      7  C   UNL     1       4.378   3.832  16.945  0.00  0.00    +0.000 A 
ATOM      8  C   UNL     1       3.811   5.043  17.406  0.00  0.00    +0.000 A 
ENDROOT
BRANCH   8   9
ATOM      9  N   UNL     1       2.845   4.995  18.456  0.00  0.00    +0.000 N 
ATOM     10  C   UNL     1       3.206   5.170  19.787  0.00  0.00    +0.000 C 
ATOM     11  O   UNL     1       4.356   5.216  20.210  0.00  0.00    +0.000 OA
ATOM     12  H   UNL     1       1.940   5.407  18.239  0.00  0.00    +0.000 HD
BRANCH  10  13
ATOM     13  C   UNL     1       2.014   5.325  20.717  0.00  0.00    +0.000 C 
BRANCH  13  14
ATOM     14  C   UNL     1       1.031   4.159  20.594  0.00  0.00    +0.000 C 
BRANCH  14  15
ATOM     15  C   UNL     1       1.542   2.885  21.246  0.00  0.00    +0.000 C 
ATOM     16  F   UNL     1       2.731   3.065  21.858  0.00  0.00    +0.000 F 
ATOM     17  F   UNL     1       0.668   2.464  22.190  0.00  0.00    +0.000 F 
ATOM     18  F   UNL     1       1.676   1.885  20.351  0.00  0.00    +0.000 F 
ENDBRANCH  14  15
ENDBRANCH  13  14
ENDBRANCH  10  13
ENDBRANCH   8   9
BRANCH   7  19
ATOM     19  C   UNL     1       3.936   2.564  17.444  0.00  0.00    +0.000 C 
ATOM     20  N   UNL     1       3.567   1.554  17.885  0.00  0.00    +0.000 NA
ENDBRANCH   7  19
TORSDOF 5
ENDMDL
MODEL 9
REMARK VINA RESULT:      -6.6      1.009      2.683
REMARK  Name = 
REMARK  6 active torsions:
REMARK  status: ('A' for Active; 'I' for Inactive)
REMARK    1  A    between atoms: C_1  and  C_2
REMARK    2  A    between atoms: C_7  and  C_8
REMARK    3  A    between atoms: C_10  and  N_11
REMARK    4  A    between atoms: C_12  and  C_14
REMARK    5  A    between atoms: C_14  and  C_15
REMARK    6  A    between atoms: C_15  and  C_16
REMARK                            x       y       z     vdW  Elec       q    Type
REMARK                         _______ _______ _______ _____ _____    ______ ____
ROOT
ATOM      1  C   UNL     1       3.256   3.312  16.627  0.00  0.00    +0.000 C 
ATOM      2  C   UNL     1       4.637   3.895  16.742  0.00  0.00    +0.000 A 
ATOM      3  C   UNL     1       5.344   4.135  15.542  0.00  0.00    +0.000 A 
ATOM      4  C   UNL     1       6.597   4.738  15.553  0.00  0.00    +0.000 A 
ATOM      5 CL   UNL     1       7.418   5.034  14.071  0.00  0.00    +0.000 Cl
ATOM      6  C   UNL     1       7.180   5.118  16.751  0.00  0.00    +0.000 A 
ATOM      7  C   UNL     1       6.494   4.904  17.954  0.00  0.00    +0.000 A 
ATOM      8  C   UNL     1       5.224   4.282  17.967  0.00  0.00    +0.000 A 
ENDROOT
BRANCH   8   9
ATOM      9  N   UNL     1       4.543   4.134  19.213  0.00  0.00    +0.000 N 
ATOM     10  C   UNL     1       3.589   5.053  19.635  0.00  0.00    +0.000 C 
ATOM     11  O   UNL     1       3.353   6.129  19.096  0.00  0.00    +0.000 OA
ATOM     12  H   UNL     1       4.308   3.179  19.474  0.00  0.00    +0.000 HD
BRANCH  10  13
ATOM     13  C   UNL     1       2.812   4.594  20.858  0.00  0.00    +0.000 C 
BRANCH  13  14
ATOM     14  C   UNL     1       1.320   4.425  20.563  0.00  0.00    +0.000 C 
BRANCH  14  15
ATOM     15  C   UNL     1       1.033   3.282  19.603  0.00  0.00    +0.000 C 
ATOM     16  F   UNL     1       1.992   2.334  19.637  0.00  0.00    +0.000 F 
ATOM     17  F   UNL     1      -0.134   2.681  19.935  0.00  0.00    +0.000 F 
ATOM     18  F   UNL     1       0.913   3.715  18.332  0.00  0.00    +0.000 F 
ENDBRANCH  14  15
ENDBRANCH  13  14
ENDBRANCH  10  13
ENDBRANCH   8   9
BRANCH   7  19
ATOM     19  C   UNL     1       7.143   5.300  19.168  0.00  0.00    +0.000 C 
ATOM     20  N   UNL     1       7.678   5.580  20.161  0.00  0.00    +0.000 NA
ENDBRANCH   7  19
TORSDOF 5
ENDMDL
