MODEL 1
REMARK VINA RESULT:      -6.6      0.000      0.000
REMARK  Name = 
REMARK  13 active torsions:
REMARK  status: ('A' for Active; 'I' for Inactive)
REMARK    1  A    between atoms: C_2  and  C_5
REMARK    2  A    between atoms: N_3  and  O_4
REMARK    3  A    between atoms: C_8  and  O_9
REMARK    4  A    between atoms: O_9  and  C_10
REMARK    5  A    between atoms: C_10  and  C_11
REMARK    6  A    between atoms: C_11  and  C_12
REMARK    7  A    between atoms: C_12  and  C_13
REMARK    8  A    between atoms: C_13  and  C_14
REMARK    9  A    between atoms: C_14  and  C_15
REMARK   10  A    between atoms: C_15  and  C_16
REMARK   11  A    between atoms: C_16  and  C_17
REMARK   12  A    between atoms: C_17  and  C_18
REMARK   13  A    between atoms: N_20  and  O_21
REMARK                            x       y       z     vdW  Elec       q    Type
REMARK                         _______ _______ _______ _____ _____    ______ ____
ROOT
ATOM      1  C   UNL     1       2.468   3.042  20.894  0.00  0.00    +0.000 C 
ENDROOT
BRANCH   1   2
ATOM      2  O   UNL     1       2.959   2.272  19.797  0.00  0.00    +0.000 OA
BRANCH   2   6
ATOM      3  C   UNL     1       5.177   4.496  17.055  0.00  0.00    +0.000 A 
ATOM      4  C   UNL     1       5.604   4.314  18.374  0.00  0.00    +0.000 A 
ATOM      5  C   UNL     1       4.832   3.559  19.262  0.00  0.00    +0.000 A 
ATOM      6  C   UNL     1       3.626   2.995  18.841  0.00  0.00    +0.000 A 
ATOM      7  C   UNL     1       3.206   3.169  17.519  0.00  0.00    +0.000 A 
ATOM      8  C   UNL     1       3.976   3.923  16.629  0.00  0.00    +0.000 A 
BRANCH   3  10
ATOM      9  N   UNL     1       5.530   6.481  15.637  0.00  0.00    +0.000 N 
ATOM     10  C   UNL     1       6.006   5.275  16.092  0.00  0.00    +0.000 C 
ATOM     11  N   UNL     1       7.160   4.793  15.733  0.00  0.00    +0.000 NA
ATOM     12  H   UNL     1       6.288   6.997  15.196  0.00  0.00    +0.000 HD
ATOM     13  H   UNL     1       5.041   7.035  16.331  0.00  0.00    +0.000 HD
BRANCH  11  14
ATOM     14  O   UNL     1       7.809   5.660  14.840  0.00  0.00    +0.000 OA
ATOM     15  H   UNL     1       8.100   5.046  14.141  0.00  0.00    +0.000 HD
ENDBRANCH  11  14
ENDBRANCH   3  10
ENDBRANCH   2   6
ENDBRANCH   1   2
BRANCH   1  16
ATOM     16  C   UNL     1       1.368   3.982  20.410  0.00  0.00    +0.000 C 
BRANCH  16  17
ATOM     17  C   UNL     1       1.674   5.447  20.740  0.00  0.00    +0.000 C 
BRANCH  17  18
ATOM     18  C   UNL     1       2.475   6.150  19.640  0.00  0.00    +0.000 C 
BRANCH  18  19
ATOM     19  C   UNL     1       2.095   7.621  19.507  0.00  0.00    +0.000 C 
BRANCH  19  20
ATOM     20  C   UNL     1       2.360   8.113  18.084  0.00  0.00    +0.000 C 
BRANCH  20  21
ATOM     21  C   UNL     1       1.859   9.541  17.897  0.00  0.00    +0.000 C 
BRANCH  21  22
ATOM     22  C   UNL     1       0.816   9.907  18.949  0.00  0.00    +0.000 C 
BRANCH  22  23
ATOM     23  C   UNL     1       0.934  11.385  19.282  0.00  0.00    +0.000 C 
ATOM     24  N   UNL     1       0.895  12.268  18.239  0.00  0.00    +0.000 N 
ATOM     25  N   UNL     1       1.099  11.850  20.488  0.00  0.00    +0.000 NA
ATOM     26  H   UNL     1       0.435  11.982  17.383  0.00  0.00    +0.000 HD
ATOM     27  H   UNL     1       0.724  13.226  18.520  0.00  0.00    +0.000 HD
BRANCH  25  28
ATOM     28  O   UNL     1       1.162  10.826  21.439  0.00  0.00    +0.000 OA
ATOM     29  H   UNL     1       0.719  11.230  22.209  0.00  0.00    +0.000 HD
ENDBRANCH  25  28
ENDBRANCH  22  23
ENDBRANCH  21  22
ENDBRANCH  20  21
ENDBRANCH  19  20
ENDBRANCH  18  19
ENDBRANCH  17  18
ENDBRANCH  16  17
ENDBRANCH   1  16
TORSDOF 13
ENDMDL
MODEL 2
REMARK VINA RESULT:      -6.5      2.053      2.425
REMARK  Name = 
REMARK  13 active torsions:
REMARK  status: ('A' for Active; 'I' for Inactive)
REMARK    1  A    between atoms: C_2  and  C_5
REMARK    2  A    between atoms: N_3  and  O_4
REMARK    3  A    between atoms: C_8  and  O_9
REMARK    4  A    between atoms: O_9  and  C_10
REMARK    5  A    between atoms: C_10  and  C_11
REMARK    6  A    between atoms: C_11  and  C_12
REMARK    7  A    between atoms: C_12  and  C_13
REMARK    8  A    between atoms: C_13  and  C_14
REMARK    9  A    between atoms: C_14  and  C_15
REMARK   10  A    between atoms: C_15  and  C_16
REMARK   11  A    between atoms: C_16  and  C_17
REMARK   12  A    between atoms: C_17  and  C_18
REMARK   13  A    between atoms: N_20  and  O_21
REMARK                            x       y       z     vdW  Elec       q    Type
REMARK                         _______ _______ _______ _____ _____    ______ ____
ROOT
ATOM      1  C   UNL     1       1.322   2.197  18.770  0.00  0.00    +0.000 C 
ENDROOT
BRANCH   1   2
ATOM      2  O   UNL     1       2.387   1.995  17.842  0.00  0.00    +0.000 OA
BRANCH   2   6
ATOM      3  C   UNL     1       5.512   4.725  18.245  0.00  0.00    +0.000 A 
ATOM      4  C   UNL     1       5.227   3.779  19.235  0.00  0.00    +0.000 A 
ATOM      5  C   UNL     1       4.172   2.879  19.060  0.00  0.00    +0.000 A 
ATOM      6  C   UNL     1       3.389   2.929  17.905  0.00  0.00    +0.000 A 
ATOM      7  C   UNL     1       3.682   3.868  16.912  0.00  0.00    +0.000 A 
ATOM      8  C   UNL     1       4.737   4.769  17.084  0.00  0.00    +0.000 A 
BRANCH   3  10
ATOM      9  N   UNL     1       6.832   6.654  17.468  0.00  0.00    +0.000 N 
ATOM     10  C   UNL     1       6.653   5.669  18.409  0.00  0.00    +0.000 C 
ATOM     11  N   UNL     1       7.425   5.539  19.447  0.00  0.00    +0.000 NA
ATOM     12  H   UNL     1       7.478   7.353  17.830  0.00  0.00    +0.000 HD
ATOM     13  H   UNL     1       5.977   7.069  17.115  0.00  0.00    +0.000 HD
BRANCH  11  14
ATOM     14  O   UNL     1       8.431   6.518  19.449  0.00  0.00    +0.000 OA
ATOM     15  H   UNL     1       8.876   6.348  18.598  0.00  0.00    +0.000 HD
ENDBRANCH  11  14
ENDBRANCH   3  10
ENDBRANCH   2   6
ENDBRANCH   1   2
BRANCH   1  16
ATOM     16  C   UNL     1       1.058   3.691  18.931  0.00  0.00    +0.000 C 
BRANCH  16  17
ATOM     17  C   UNL     1       1.018   4.115  20.403  0.00  0.00    +0.000 C 
BRANCH  17  18
ATOM     18  C   UNL     1       2.015   5.231  20.728  0.00  0.00    +0.000 C 
BRANCH  18  19
ATOM     19  C   UNL     1       2.237   6.164  19.541  0.00  0.00    +0.000 C 
BRANCH  19  20
ATOM     20  C   UNL     1       1.969   7.614  19.945  0.00  0.00    +0.000 C 
BRANCH  20  21
ATOM     21  C   UNL     1       1.313   7.686  21.319  0.00  0.00    +0.000 C 
BRANCH  21  22
ATOM     22  C   UNL     1       0.054   8.546  21.291  0.00  0.00    +0.000 C 
BRANCH  22  23
ATOM     23  C   UNL     1       0.412   9.977  21.660  0.00  0.00    +0.000 C 
ATOM     24  N   UNL     1       0.917  10.772  20.669  0.00  0.00    +0.000 N 
ATOM     25  N   UNL     1       0.297  10.471  22.860  0.00  0.00    +0.000 NA
ATOM     26  H   UNL     1       0.695  10.543  19.708  0.00  0.00    +0.000 HD
ATOM     27  H   UNL     1       0.903  11.760  20.891  0.00  0.00    +0.000 HD
BRANCH  25  28
ATOM     28  O   UNL     1      -0.190   9.527  23.770  0.00  0.00    +0.000 OA
ATOM     29  H   UNL     1       0.371   9.683  24.553  0.00  0.00    +0.000 HD
ENDBRANCH  25  28
ENDBRANCH  22  23
ENDBRANCH  21  22
ENDBRANCH  20  21
ENDBRANCH  19  20
ENDBRANCH  18  19
ENDBRANCH  17  18
ENDBRANCH  16  17
ENDBRANCH   1  16
TORSDOF 13
ENDMDL
MODEL 3
REMARK VINA RESULT:      -6.4      1.210      1.709
REMARK  Name = 
REMARK  13 active torsions:
REMARK  status: ('A' for Active; 'I' for Inactive)
REMARK    1  A    between atoms: C_2  and  C_5
REMARK    2  A    between atoms: N_3  and  O_4
REMARK    3  A    between atoms: C_8  and  O_9
REMARK    4  A    between atoms: O_9  and  C_10
REMARK    5  A    between atoms: C_10  and  C_11
REMARK    6  A    between atoms: C_11  and  C_12
REMARK    7  A    between atoms: C_12  and  C_13
REMARK    8  A    between atoms: C_13  and  C_14
REMARK    9  A    between atoms: C_14  and  C_15
REMARK   10  A    between atoms: C_15  and  C_16
REMARK   11  A    between atoms: C_16  and  C_17
REMARK   12  A    between atoms: C_17  and  C_18
REMARK   13  A    between atoms: N_20  and  O_21
REMARK                            x       y       z     vdW  Elec       q    Type
REMARK                         _______ _______ _______ _____ _____    ______ ____
ROOT
ATOM      1  C   UNL     1       1.972   2.539  18.837  0.00  0.00    +0.000 C 
ENDROOT
BRANCH   1   2
ATOM      2  O   UNL     1       3.248   2.683  19.458  0.00  0.00    +0.000 OA
BRANCH   2   6
ATOM      3  C   UNL     1       5.947   4.639  16.953  0.00  0.00    +0.000 A 
ATOM      4  C   UNL     1       4.808   3.998  16.453  0.00  0.00    +0.000 A 
ATOM      5  C   UNL     1       3.926   3.356  17.328  0.00  0.00    +0.000 A 
ATOM      6  C   UNL     1       4.185   3.338  18.700  0.00  0.00    +0.000 A 
ATOM      7  C   UNL     1       5.318   3.988  19.198  0.00  0.00    +0.000 A 
ATOM      8  C   UNL     1       6.200   4.632  18.326  0.00  0.00    +0.000 A 
BRANCH   3  10
ATOM      9  N   UNL     1       7.430   6.540  16.446  0.00  0.00    +0.000 N 
ATOM     10  C   UNL     1       6.878   5.352  16.033  0.00  0.00    +0.000 C 
ATOM     11  N   UNL     1       7.149   4.812  14.880  0.00  0.00    +0.000 NA
ATOM     12  H   UNL     1       8.211   6.777  15.838  0.00  0.00    +0.000 HD
ATOM     13  H   UNL     1       7.683   6.574  17.427  0.00  0.00    +0.000 HD
BRANCH  11  14
ATOM     14  O   UNL     1       8.050   5.607  14.155  0.00  0.00    +0.000 OA
ATOM     15  H   UNL     1       8.597   5.989  14.867  0.00  0.00    +0.000 HD
ENDBRANCH  11  14
ENDBRANCH   3  10
ENDBRANCH   2   6
ENDBRANCH   1   2
BRANCH   1  16
ATOM     16  C   UNL     1       1.034   3.637  19.330  0.00  0.00    +0.000 C 
BRANCH  16  17
ATOM     17  C   UNL     1       1.655   4.463  20.461  0.00  0.00    +0.000 C 
BRANCH  17  18
ATOM     18  C   UNL     1       1.649   5.967  20.172  0.00  0.00    +0.000 C 
BRANCH  18  19
ATOM     19  C   UNL     1       3.018   6.468  19.722  0.00  0.00    +0.000 C 
BRANCH  19  20
ATOM     20  C   UNL     1       2.964   6.931  18.265  0.00  0.00    +0.000 C 
BRANCH  20  21
ATOM     21  C   UNL     1       1.671   7.686  17.980  0.00  0.00    +0.000 C 
BRANCH  21  22
ATOM     22  C   UNL     1       1.853   9.190  18.158  0.00  0.00    +0.000 C 
BRANCH  22  23
ATOM     23  C   UNL     1       0.531   9.812  18.576  0.00  0.00    +0.000 C 
ATOM     24  N   UNL     1      -0.286  10.276  17.583  0.00  0.00    +0.000 N 
ATOM     25  N   UNL     1       0.151   9.953  19.815  0.00  0.00    +0.000 NA
ATOM     26  H   UNL     1      -0.189   9.880  16.656  0.00  0.00    +0.000 HD
ATOM     27  H   UNL     1      -1.239  10.444  17.882  0.00  0.00    +0.000 HD
BRANCH  25  28
ATOM     28  O   UNL     1       1.107   9.472  20.714  0.00  0.00    +0.000 OA
ATOM     29  H   UNL     1       0.555   9.134  21.445  0.00  0.00    +0.000 HD
ENDBRANCH  25  28
ENDBRANCH  22  23
ENDBRANCH  21  22
ENDBRANCH  20  21
ENDBRANCH  19  20
ENDBRANCH  18  19
ENDBRANCH  17  18
ENDBRANCH  16  17
ENDBRANCH   1  16
TORSDOF 13
ENDMDL
MODEL 4
REMARK VINA RESULT:      -6.3      2.081      6.650
REMARK  Name = 
REMARK  13 active torsions:
REMARK  status: ('A' for Active; 'I' for Inactive)
REMARK    1  A    between atoms: C_2  and  C_5
REMARK    2  A    between atoms: N_3  and  O_4
REMARK    3  A    between atoms: C_8  and  O_9
REMARK    4  A    between atoms: O_9  and  C_10
REMARK    5  A    between atoms: C_10  and  C_11
REMARK    6  A    between atoms: C_11  and  C_12
REMARK    7  A    between atoms: C_12  and  C_13
REMARK    8  A    between atoms: C_13  and  C_14
REMARK    9  A    between atoms: C_14  and  C_15
REMARK   10  A    between atoms: C_15  and  C_16
REMARK   11  A    between atoms: C_16  and  C_17
REMARK   12  A    between atoms: C_17  and  C_18
REMARK   13  A    between atoms: N_20  and  O_21
REMARK                            x       y       z     vdW  Elec       q    Type
REMARK                         _______ _______ _______ _____ _____    ______ ____
ROOT
ATOM      1  C   UNL     1       2.426   4.604  20.112  0.00  0.00    +0.000 C 
ENDROOT
BRANCH   1   2
ATOM      2  O   UNL     1       3.310   5.687  19.823  0.00  0.00    +0.000 OA
BRANCH   2   6
ATOM      3  C   UNL     1       1.360   9.213  18.751  0.00  0.00    +0.000 A 
ATOM      4  C   UNL     1       1.268   8.682  20.042  0.00  0.00    +0.000 A 
ATOM      5  C   UNL     1       1.940   7.499  20.362  0.00  0.00    +0.000 A 
ATOM      6  C   UNL     1       2.693   6.833  19.392  0.00  0.00    +0.000 A 
ATOM      7  C   UNL     1       2.792   7.371  18.106  0.00  0.00    +0.000 A 
ATOM      8  C   UNL     1       2.123   8.555  17.784  0.00  0.00    +0.000 A 
BRANCH   3  10
ATOM      9  N   UNL     1       1.417  11.643  18.352  0.00  0.00    +0.000 N 
ATOM     10  C   UNL     1       0.673  10.489  18.408  0.00  0.00    +0.000 C 
ATOM     11  N   UNL     1      -0.603  10.461  18.154  0.00  0.00    +0.000 NA
ATOM     12  H   UNL     1       0.880  12.367  17.878  0.00  0.00    +0.000 HD
ATOM     13  H   UNL     1       2.345  11.534  17.958  0.00  0.00    +0.000 HD
BRANCH  11  14
ATOM     14  O   UNL     1      -1.078  11.742  17.834  0.00  0.00    +0.000 OA
ATOM     15  H   UNL     1      -0.936  11.773  16.870  0.00  0.00    +0.000 HD
ENDBRANCH  11  14
ENDBRANCH   3  10
ENDBRANCH   2   6
ENDBRANCH   1   2
BRANCH   1  16
ATOM     16  C   UNL     1       3.170   3.280  19.966  0.00  0.00    +0.000 C 
BRANCH  16  17
ATOM     17  C   UNL     1       4.355   3.386  19.000  0.00  0.00    +0.000 C 
BRANCH  17  18
ATOM     18  C   UNL     1       3.960   3.134  17.543  0.00  0.00    +0.000 C 
BRANCH  18  19
ATOM     19  C   UNL     1       4.441   4.248  16.618  0.00  0.00    +0.000 C 
BRANCH  19  20
ATOM     20  C   UNL     1       5.746   3.844  15.930  0.00  0.00    +0.000 C 
BRANCH  20  21
ATOM     21  C   UNL     1       6.926   4.626  16.495  0.00  0.00    +0.000 C 
BRANCH  21  22
ATOM     22  C   UNL     1       6.469   5.917  17.165  0.00  0.00    +0.000 C 
BRANCH  22  23
ATOM     23  C   UNL     1       7.410   6.251  18.311  0.00  0.00    +0.000 C 
ATOM     24  N   UNL     1       7.497   5.349  19.334  0.00  0.00    +0.000 N 
ATOM     25  N   UNL     1       8.107   7.350  18.386  0.00  0.00    +0.000 NA
ATOM     26  H   UNL     1       7.260   4.383  19.145  0.00  0.00    +0.000 HD
ATOM     27  H   UNL     1       8.302   5.485  19.933  0.00  0.00    +0.000 HD
BRANCH  25  28
ATOM     28  O   UNL     1       7.880   8.189  17.291  0.00  0.00    +0.000 OA
ATOM     29  H   UNL     1       6.983   8.528  17.470  0.00  0.00    +0.000 HD
ENDBRANCH  25  28
ENDBRANCH  22  23
ENDBRANCH  21  22
ENDBRANCH  20  21
ENDBRANCH  19  20
ENDBRANCH  18  19
ENDBRANCH  17  18
ENDBRANCH  16  17
ENDBRANCH   1  16
TORSDOF 13
ENDMDL
MODEL 5
REMARK VINA RESULT:      -6.3      1.600      2.055
REMARK  Name = 
REMARK  13 active torsions:
REMARK  status: ('A' for Active; 'I' for Inactive)
REMARK    1  A    between atoms: C_2  and  C_5
REMARK    2  A    between atoms: N_3  and  O_4
REMARK    3  A    between atoms: C_8  and  O_9
REMARK    4  A    between atoms: O_9  and  C_10
REMARK    5  A    between atoms: C_10  and  C_11
REMARK    6  A    between atoms: C_11  and  C_12
REMARK    7  A    between atoms: C_12  and  C_13
REMARK    8  A    between atoms: C_13  and  C_14
REMARK    9  A    between atoms: C_14  and  C_15
REMARK   10  A    between atoms: C_15  and  C_16
REMARK   11  A    between atoms: C_16  and  C_17
REMARK   12  A    between atoms: C_17  and  C_18
REMARK   13  A    between atoms: N_20  and  O_21
REMARK                            x       y       z     vdW  Elec       q    Type
REMARK                         _______ _______ _______ _____ _____    ______ ____
ROOT
ATOM      1  C   UNL     1       3.213   2.211  20.446  0.00  0.00    +0.000 C 
ENDROOT
BRANCH   1   2
ATOM      2  O   UNL     1       3.101   2.295  19.026  0.00  0.00    +0.000 OA
BRANCH   2   6
ATOM      3  C   UNL     1       5.712   5.136  17.447  0.00  0.00    +0.000 A 
ATOM      4  C   UNL     1       5.869   4.628  18.741  0.00  0.00    +0.000 A 
ATOM      5  C   UNL     1       4.973   3.674  19.232  0.00  0.00    +0.000 A 
ATOM      6  C   UNL     1       3.910   3.235  18.440  0.00  0.00    +0.000 A 
ATOM      7  C   UNL     1       3.761   3.736  17.144  0.00  0.00    +0.000 A 
ATOM      8  C   UNL     1       4.656   4.689  16.650  0.00  0.00    +0.000 A 
BRANCH   3  10
ATOM      9  N   UNL     1       7.276   5.876  15.693  0.00  0.00    +0.000 N 
ATOM     10  C   UNL     1       6.679   6.131  16.903  0.00  0.00    +0.000 C 
ATOM     11  N   UNL     1       6.906   7.216  17.585  0.00  0.00    +0.000 NA
ATOM     12  H   UNL     1       7.706   6.729  15.342  0.00  0.00    +0.000 HD
ATOM     13  H   UNL     1       6.674   5.438  15.004  0.00  0.00    +0.000 HD
BRANCH  11  14
ATOM     14  O   UNL     1       7.824   8.043  16.919  0.00  0.00    +0.000 OA
ATOM     15  H   UNL     1       8.205   7.430  16.263  0.00  0.00    +0.000 HD
ENDBRANCH  11  14
ENDBRANCH   3  10
ENDBRANCH   2   6
ENDBRANCH   1   2
BRANCH   1  16
ATOM     16  C   UNL     1       1.889   2.612  21.090  0.00  0.00    +0.000 C 
BRANCH  16  17
ATOM     17  C   UNL     1       0.885   3.146  20.064  0.00  0.00    +0.000 C 
BRANCH  17  18
ATOM     18  C   UNL     1       0.847   4.675  20.007  0.00  0.00    +0.000 C 
BRANCH  18  19
ATOM     19  C   UNL     1       1.947   5.307  20.856  0.00  0.00    +0.000 C 
BRANCH  19  20
ATOM     20  C   UNL     1       2.738   6.324  20.033  0.00  0.00    +0.000 C 
BRANCH  20  21
ATOM     21  C   UNL     1       1.922   7.590  19.799  0.00  0.00    +0.000 C 
BRANCH  21  22
ATOM     22  C   UNL     1       1.181   8.016  21.063  0.00  0.00    +0.000 C 
BRANCH  22  23
ATOM     23  C   UNL     1       0.867   9.501  20.987  0.00  0.00    +0.000 C 
ATOM     24  N   UNL     1       0.621  10.027  19.749  0.00  0.00    +0.000 N 
ATOM     25  N   UNL     1       0.850  10.297  22.019  0.00  0.00    +0.000 NA
ATOM     26  H   UNL     1       0.292   9.408  19.019  0.00  0.00    +0.000 HD
ATOM     27  H   UNL     1       0.179  10.938  19.772  0.00  0.00    +0.000 HD
BRANCH  25  28
ATOM     28  O   UNL     1       1.162   9.623  23.204  0.00  0.00    +0.000 OA
ATOM     29  H   UNL     1       1.751   8.912  22.891  0.00  0.00    +0.000 HD
ENDBRANCH  25  28
ENDBRANCH  22  23
ENDBRANCH  21  22
ENDBRANCH  20  21
ENDBRANCH  19  20
ENDBRANCH  18  19
ENDBRANCH  17  18
ENDBRANCH  16  17
ENDBRANCH   1  16
TORSDOF 13
ENDMDL
MODEL 6
REMARK VINA RESULT:      -6.2      1.198      1.588
REMARK  Name = 
REMARK  13 active torsions:
REMARK  status: ('A' for Active; 'I' for Inactive)
REMARK    1  A    between atoms: C_2  and  C_5
REMARK    2  A    between atoms: N_3  and  O_4
REMARK    3  A    between atoms: C_8  and  O_9
REMARK    4  A    between atoms: O_9  and  C_10
REMARK    5  A    between atoms: C_10  and  C_11
REMARK    6  A    between atoms: C_11  and  C_12
REMARK    7  A    between atoms: C_12  and  C_13
REMARK    8  A    between atoms: C_13  and  C_14
REMARK    9  A    between atoms: C_14  and  C_15
REMARK   10  A    between atoms: C_15  and  C_16
REMARK   11  A    between atoms: C_16  and  C_17
REMARK   12  A    between atoms: C_17  and  C_18
REMARK   13  A    between atoms: N_20  and  O_21
REMARK                            x       y       z     vdW  Elec       q    Type
REMARK                         _______ _______ _______ _____ _____    ______ ____
ROOT
ATOM      1  C   UNL     1       1.920   3.381  19.558  0.00  0.00    +0.000 C 
ENDROOT
BRANCH   1   2
ATOM      2  O   UNL     1       3.196   2.746  19.510  0.00  0.00    +0.000 OA
BRANCH   2   6
ATOM      3  C   UNL     1       5.869   4.634  16.927  0.00  0.00    +0.000 A 
ATOM      4  C   UNL     1       4.724   3.983  16.457  0.00  0.00    +0.000 A 
ATOM      5  C   UNL     1       3.852   3.364  17.357  0.00  0.00    +0.000 A 
ATOM      6  C   UNL     1       4.125   3.380  18.726  0.00  0.00    +0.000 A 
ATOM      7  C   UNL     1       5.264   4.041  19.195  0.00  0.00    +0.000 A 
ATOM      8  C   UNL     1       6.138   4.661  18.298  0.00  0.00    +0.000 A 
BRANCH   3  10
ATOM      9  N   UNL     1       7.417   6.475  16.390  0.00  0.00    +0.000 N 
ATOM     10  C   UNL     1       6.790   5.323  15.980  0.00  0.00    +0.000 C 
ATOM     11  N   UNL     1       6.984   4.796  14.806  0.00  0.00    +0.000 NA
ATOM     12  H   UNL     1       8.180   6.689  15.752  0.00  0.00    +0.000 HD
ATOM     13  H   UNL     1       7.715   6.477  17.359  0.00  0.00    +0.000 HD
BRANCH  11  14
ATOM     14  O   UNL     1       7.889   5.564  14.056  0.00  0.00    +0.000 OA
ATOM     15  H   UNL     1       8.669   4.980  14.027  0.00  0.00    +0.000 HD
ENDBRANCH  11  14
ENDBRANCH   3  10
ENDBRANCH   2   6
ENDBRANCH   1   2
BRANCH   1  16
ATOM     16  C   UNL     1       1.862   4.330  20.752  0.00  0.00    +0.000 C 
BRANCH  16  17
ATOM     17  C   UNL     1       1.442   5.746  20.345  0.00  0.00    +0.000 C 
BRANCH  17  18
ATOM     18  C   UNL     1       2.585   6.549  19.718  0.00  0.00    +0.000 C 
BRANCH  18  19
ATOM     19  C   UNL     1       2.449   6.649  18.202  0.00  0.00    +0.000 C 
BRANCH  19  20
ATOM     20  C   UNL     1       2.071   8.073  17.793  0.00  0.00    +0.000 C 
BRANCH  20  21
ATOM     21  C   UNL     1       1.975   8.984  19.012  0.00  0.00    +0.000 C 
BRANCH  21  22
ATOM     22  C   UNL     1       0.622   9.685  19.079  0.00  0.00    +0.000 C 
BRANCH  22  23
ATOM     23  C   UNL     1       0.785  11.136  18.656  0.00  0.00    +0.000 C 
ATOM     24  N   UNL     1       1.996  11.507  18.141  0.00  0.00    +0.000 N 
ATOM     25  N   UNL     1      -0.143  12.042  18.784  0.00  0.00    +0.000 NA
ATOM     26  H   UNL     1       2.579  10.794  17.720  0.00  0.00    +0.000 HD
ATOM     27  H   UNL     1       1.978  12.393  17.650  0.00  0.00    +0.000 HD
BRANCH  25  28
ATOM     28  O   UNL     1      -1.305  11.522  19.364  0.00  0.00    +0.000 OA
ATOM     29  H   UNL     1      -1.382  12.046  20.183  0.00  0.00    +0.000 HD
ENDBRANCH  25  28
ENDBRANCH  22  23
ENDBRANCH  21  22
ENDBRANCH  20  21
ENDBRANCH  19  20
ENDBRANCH  18  19
ENDBRANCH  17  18
ENDBRANCH  16  17
ENDBRANCH   1  16
TORSDOF 13
ENDMDL
MODEL 7
REMARK VINA RESULT:      -6.2      4.528      6.192
REMARK  Name = 
REMARK  13 active torsions:
REMARK  status: ('A' for Active; 'I' for Inactive)
REMARK    1  A    between atoms: C_2  and  C_5
REMARK    2  A    between atoms: N_3  and  O_4
REMARK    3  A    between atoms: C_8  and  O_9
REMARK    4  A    between atoms: O_9  and  C_10
REMARK    5  A    between atoms: C_10  and  C_11
REMARK    6  A    between atoms: C_11  and  C_12
REMARK    7  A    between atoms: C_12  and  C_13
REMARK    8  A    between atoms: C_13  and  C_14
REMARK    9  A    between atoms: C_14  and  C_15
REMARK   10  A    between atoms: C_15  and  C_16
REMARK   11  A    between atoms: C_16  and  C_17
REMARK   12  A    between atoms: C_17  and  C_18
REMARK   13  A    between atoms: N_20  and  O_21
REMARK                            x       y       z     vdW  Elec       q    Type
REMARK                         _______ _______ _______ _____ _____    ______ ____
ROOT
ATOM      1  C   UNL     1       7.625   4.693  17.512  0.00  0.00    +0.000 C 
ENDROOT
BRANCH   1   2
ATOM      2  O   UNL     1       7.581   5.439  16.297  0.00  0.00    +0.000 OA
BRANCH   2   6
ATOM      3  C   UNL     1       5.706   3.635  13.039  0.00  0.00    +0.000 A 
ATOM      4  C   UNL     1       6.943   4.276  12.916  0.00  0.00    +0.000 A 
ATOM      5  C   UNL     1       7.540   4.866  14.034  0.00  0.00    +0.000 A 
ATOM      6  C   UNL     1       6.899   4.832  15.274  0.00  0.00    +0.000 A 
ATOM      7  C   UNL     1       5.668   4.182  15.396  0.00  0.00    +0.000 A 
ATOM      8  C   UNL     1       5.069   3.590  14.281  0.00  0.00    +0.000 A 
BRANCH   3  10
ATOM      9  N   UNL     1       5.669   1.852  11.338  0.00  0.00    +0.000 N 
ATOM     10  C   UNL     1       5.076   2.977  11.860  0.00  0.00    +0.000 C 
ATOM     11  N   UNL     1       3.975   3.479  11.382  0.00  0.00    +0.000 NA
ATOM     12  H   UNL     1       5.014   1.385  10.715  0.00  0.00    +0.000 HD
ATOM     13  H   UNL     1       6.063   1.220  12.025  0.00  0.00    +0.000 HD
BRANCH  11  14
ATOM     14  O   UNL     1       3.514   2.726  10.290  0.00  0.00    +0.000 OA
ATOM     15  H   UNL     1       4.152   2.972   9.594  0.00  0.00    +0.000 HD
ENDBRANCH  11  14
ENDBRANCH   3  10
ENDBRANCH   2   6
ENDBRANCH   1   2
BRANCH   1  16
ATOM     16  C   UNL     1       7.259   5.598  18.684  0.00  0.00    +0.000 C 
BRANCH  16  17
ATOM     17  C   UNL     1       5.916   6.304  18.472  0.00  0.00    +0.000 C 
BRANCH  17  18
ATOM     18  C   UNL     1       4.719   5.444  18.889  0.00  0.00    +0.000 C 
BRANCH  18  19
ATOM     19  C   UNL     1       3.526   5.634  17.957  0.00  0.00    +0.000 C 
BRANCH  19  20
ATOM     20  C   UNL     1       2.245   5.123  18.619  0.00  0.00    +0.000 C 
BRANCH  20  21
ATOM     21  C   UNL     1       1.534   4.113  17.726  0.00  0.00    +0.000 C 
BRANCH  21  22
ATOM     22  C   UNL     1       0.826   3.043  18.549  0.00  0.00    +0.000 C 
BRANCH  22  23
ATOM     23  C   UNL     1       1.854   2.254  19.343  0.00  0.00    +0.000 C 
ATOM     24  N   UNL     1       2.797   1.563  18.635  0.00  0.00    +0.000 N 
ATOM     25  N   UNL     1       1.869   2.176  20.644  0.00  0.00    +0.000 NA
ATOM     26  H   UNL     1       3.019   1.874  17.697  0.00  0.00    +0.000 HD
ATOM     27  H   UNL     1       3.591   1.269  19.189  0.00  0.00    +0.000 HD
BRANCH  25  28
ATOM     28  O   UNL     1       0.821   2.899  21.223  0.00  0.00    +0.000 OA
ATOM     29  H   UNL     1       1.100   2.959  22.156  0.00  0.00    +0.000 HD
ENDBRANCH  25  28
ENDBRANCH  22  23
ENDBRANCH  21  22
ENDBRANCH  20  21
ENDBRANCH  19  20
ENDBRANCH  18  19
ENDBRANCH  17  18
ENDBRANCH  16  17
ENDBRANCH   1  16
TORSDOF 13
ENDMDL
MODEL 8
REMARK VINA RESULT:      -6.1      1.938      2.535
REMARK  Name = 
REMARK  13 active torsions:
REMARK  status: ('A' for Active; 'I' for Inactive)
REMARK    1  A    between atoms: C_2  and  C_5
REMARK    2  A    between atoms: N_3  and  O_4
REMARK    3  A    between atoms: C_8  and  O_9
REMARK    4  A    between atoms: O_9  and  C_10
REMARK    5  A    between atoms: C_10  and  C_11
REMARK    6  A    between atoms: C_11  and  C_12
REMARK    7  A    between atoms: C_12  and  C_13
REMARK    8  A    between atoms: C_13  and  C_14
REMARK    9  A    between atoms: C_14  and  C_15
REMARK   10  A    between atoms: C_15  and  C_16
REMARK   11  A    between atoms: C_16  and  C_17
REMARK   12  A    between atoms: C_17  and  C_18
REMARK   13  A    between atoms: N_20  and  O_21
REMARK                            x       y       z     vdW  Elec       q    Type
REMARK                         _______ _______ _______ _____ _____    ______ ____
ROOT
ATOM      1  C   UNL     1       1.649   2.311  18.282  0.00  0.00    +0.000 C 
ENDROOT
BRANCH   1   2
ATOM      2  O   UNL     1       2.249   3.192  17.334  0.00  0.00    +0.000 OA
BRANCH   2   6
ATOM      3  C   UNL     1       5.756   5.142  18.466  0.00  0.00    +0.000 A 
ATOM      4  C   UNL     1       4.833   5.731  17.595  0.00  0.00    +0.000 A 
ATOM      5  C   UNL     1       3.668   5.044  17.243  0.00  0.00    +0.000 A 
ATOM      6  C   UNL     1       3.426   3.764  17.745  0.00  0.00    +0.000 A 
ATOM      7  C   UNL     1       4.344   3.182  18.624  0.00  0.00    +0.000 A 
ATOM      8  C   UNL     1       5.510   3.867  18.979  0.00  0.00    +0.000 A 
BRANCH   3  10
ATOM      9  N   UNL     1       7.742   5.378  19.906  0.00  0.00    +0.000 N 
ATOM     10  C   UNL     1       6.987   5.877  18.872  0.00  0.00    +0.000 C 
ATOM     11  N   UNL     1       7.313   6.954  18.219  0.00  0.00    +0.000 NA
ATOM     12  H   UNL     1       8.653   5.830  19.907  0.00  0.00    +0.000 HD
ATOM     13  H   UNL     1       7.815   4.367  19.931  0.00  0.00    +0.000 HD
BRANCH  11  14
ATOM     14  O   UNL     1       8.503   7.504  18.722  0.00  0.00    +0.000 OA
ATOM     15  H   UNL     1       9.011   7.662  17.905  0.00  0.00    +0.000 HD
ENDBRANCH  11  14
ENDBRANCH   3  10
ENDBRANCH   2   6
ENDBRANCH   1   2
BRANCH   1  16
ATOM     16  C   UNL     1       0.834   3.118  19.289  0.00  0.00    +0.000 C 
BRANCH  16  17
ATOM     17  C   UNL     1       1.459   3.098  20.687  0.00  0.00    +0.000 C 
BRANCH  17  18
ATOM     18  C   UNL     1       1.940   4.478  21.144  0.00  0.00    +0.000 C 
BRANCH  18  19
ATOM     19  C   UNL     1       1.534   5.578  20.167  0.00  0.00    +0.000 C 
BRANCH  19  20
ATOM     20  C   UNL     1       2.332   6.854  20.440  0.00  0.00    +0.000 C 
BRANCH  20  21
ATOM     21  C   UNL     1       1.971   7.947  19.440  0.00  0.00    +0.000 C 
BRANCH  21  22
ATOM     22  C   UNL     1       1.147   9.051  20.094  0.00  0.00    +0.000 C 
BRANCH  22  23
ATOM     23  C   UNL     1       0.871  10.145  19.076  0.00  0.00    +0.000 C 
ATOM     24  N   UNL     1       0.606   9.755  17.793  0.00  0.00    +0.000 N 
ATOM     25  N   UNL     1       0.903  11.419  19.348  0.00  0.00    +0.000 NA
ATOM     26  H   UNL     1       0.241   8.823  17.639  0.00  0.00    +0.000 HD
ATOM     27  H   UNL     1       0.189  10.480  17.222  0.00  0.00    +0.000 HD
BRANCH  25  28
ATOM     28  O   UNL     1       1.229  11.661  20.686  0.00  0.00    +0.000 OA
ATOM     29  H   UNL     1       2.038  12.200  20.610  0.00  0.00    +0.000 HD
ENDBRANCH  25  28
ENDBRANCH  22  23
ENDBRANCH  21  22
ENDBRANCH  20  21
ENDBRANCH  19  20
ENDBRANCH  18  19
ENDBRANCH  17  18
ENDBRANCH  16  17
ENDBRANCH   1  16
TORSDOF 13
ENDMDL
MODEL 9
REMARK VINA RESULT:      -6.1      1.485      2.217
REMARK  Name = 
REMARK  13 active torsions:
REMARK  status: ('A' for Active; 'I' for Inactive)
REMARK    1  A    between atoms: C_2  and  C_5
REMARK    2  A    between atoms: N_3  and  O_4
REMARK    3  A    between atoms: C_8  and  O_9
REMARK    4  A    between atoms: O_9  and  C_10
REMARK    5  A    between atoms: C_10  and  C_11
REMARK    6  A    between atoms: C_11  and  C_12
REMARK    7  A    between atoms: C_12  and  C_13
REMARK    8  A    between atoms: C_13  and  C_14
REMARK    9  A    between atoms: C_14  and  C_15
REMARK   10  A    between atoms: C_15  and  C_16
REMARK   11  A    between atoms: C_16  and  C_17
REMARK   12  A    between atoms: C_17  and  C_18
REMARK   13  A    between atoms: N_20  and  O_21
REMARK                            x       y       z     vdW  Elec       q    Type
REMARK                         _______ _______ _______ _____ _____    ______ ____
ROOT
ATOM      1  C   UNL     1       2.467   4.766  19.414  0.00  0.00    +0.000 C 
ENDROOT
BRANCH   1   2
ATOM      2  O   UNL     1       3.627   3.935  19.428  0.00  0.00    +0.000 OA
BRANCH   2   6
ATOM      3  C   UNL     1       5.996   4.407  16.029  0.00  0.00    +0.000 A 
ATOM      4  C   UNL     1       4.675   3.955  15.951  0.00  0.00    +0.000 A 
ATOM      5  C   UNL     1       3.913   3.813  17.114  0.00  0.00    +0.000 A 
ATOM      6  C   UNL     1       4.470   4.107  18.360  0.00  0.00    +0.000 A 
ATOM      7  C   UNL     1       5.787   4.570  18.436  0.00  0.00    +0.000 A 
ATOM      8  C   UNL     1       6.551   4.714  17.274  0.00  0.00    +0.000 A 
BRANCH   3  10
ATOM      9  N   UNL     1       6.588   3.748  13.730  0.00  0.00    +0.000 N 
ATOM     10  C   UNL     1       6.807   4.591  14.793  0.00  0.00    +0.000 C 
ATOM     11  N   UNL     1       7.679   5.556  14.758  0.00  0.00    +0.000 NA
ATOM     12  H   UNL     1       7.023   4.137  12.896  0.00  0.00    +0.000 HD
ATOM     13  H   UNL     1       5.617   3.500  13.576  0.00  0.00    +0.000 HD
BRANCH  11  14
ATOM     14  O   UNL     1       8.336   5.592  13.518  0.00  0.00    +0.000 OA
ATOM     15  H   UNL     1       9.147   6.088  13.736  0.00  0.00    +0.000 HD
ENDBRANCH  11  14
ENDBRANCH   3  10
ENDBRANCH   2   6
ENDBRANCH   1   2
BRANCH   1  16
ATOM     16  C   UNL     1       2.705   5.995  20.287  0.00  0.00    +0.000 C 
BRANCH  16  17
ATOM     17  C   UNL     1       2.088   7.261  19.683  0.00  0.00    +0.000 C 
BRANCH  17  18
ATOM     18  C   UNL     1       2.789   7.710  18.398  0.00  0.00    +0.000 C 
BRANCH  18  19
ATOM     19  C   UNL     1       1.927   8.668  17.580  0.00  0.00    +0.000 C 
BRANCH  19  20
ATOM     20  C   UNL     1       1.295   9.723  18.488  0.00  0.00    +0.000 C 
BRANCH  20  21
ATOM     21  C   UNL     1      -0.184   9.905  18.166  0.00  0.00    +0.000 C 
BRANCH  21  22
ATOM     22  C   UNL     1      -0.860  10.839  19.165  0.00  0.00    +0.000 C 
BRANCH  22  23
ATOM     23  C   UNL     1      -0.803  12.264  18.641  0.00  0.00    +0.000 C 
ATOM     24  N   UNL     1      -1.307  12.494  17.392  0.00  0.00    +0.000 N 
ATOM     25  N   UNL     1      -0.278  13.261  19.296  0.00  0.00    +0.000 NA
ATOM     26  H   UNL     1      -2.003  11.854  17.029  0.00  0.00    +0.000 HD
ATOM     27  H   UNL     1      -1.476  13.472  17.192  0.00  0.00    +0.000 HD
BRANCH  25  28
ATOM     28  O   UNL     1       0.233  12.863  20.535  0.00  0.00    +0.000 OA
ATOM     29  H   UNL     1      -0.033  13.599  21.117  0.00  0.00    +0.000 HD
ENDBRANCH  25  28
ENDBRANCH  22  23
ENDBRANCH  21  22
ENDBRANCH  20  21
ENDBRANCH  19  20
ENDBRANCH  18  19
ENDBRANCH  17  18
ENDBRANCH  16  17
ENDBRANCH   1  16
TORSDOF 13
ENDMDL
