MODEL 1
REMARK VINA RESULT:      -9.0      0.000      0.000
REMARK  Name = 
REMARK  11 active torsions:
REMARK  status: ('A' for Active; 'I' for Inactive)
REMARK    1  A    between atoms: C_1  and  C_2
REMARK    2  A    between atoms: C_2  and  C_3
REMARK    3  A    between atoms: C_2  and  C_4
REMARK    4  A    between atoms: C_7  and  O_8
REMARK    5  A    between atoms: O_8  and  C_9
REMARK    6  A    between atoms: C_9  and  C_10
REMARK    7  A    between atoms: C_9  and  C_11
REMARK    8  A    between atoms: C_9  and  C_22
REMARK    9  A    between atoms: C_11  and  C_12
REMARK   10  A    between atoms: C_16  and  C_17
REMARK   11  A    between atoms: C_22  and  O_24
REMARK                            x       y       z     vdW  Elec       q    Type
REMARK                         _______ _______ _______ _____ _____    ______ ____
ROOT
ATOM      1  C   UNL     1       6.634   5.955  17.073  0.00  0.00    +0.000 C 
ATOM      2  C   UNL     1       5.428   6.848  16.731  0.00  0.00    +0.000 C 
ENDROOT
BRANCH   1   3
ATOM      3  C   UNL     1       7.602   6.901  17.820  0.00  0.00    +0.000 C 
ATOM      4  O   UNL     1       8.122   6.656  18.903  0.00  0.00    +0.000 OA
BRANCH   3   5
ATOM      5  O   UNL     1       7.769   8.097  17.206  0.00  0.00    +0.000 OA
ATOM      6  H   UNL     1       8.699   8.187  16.908  0.00  0.00    +0.000 HD
ENDBRANCH   3   5
ENDBRANCH   1   3
BRANCH   1   7
ATOM      7  O   UNL     1       7.317   5.556  15.864  0.00  0.00    +0.000 OA
BRANCH   7  11
ATOM      8  C   UNL     1       5.852   3.613  12.431  0.00  0.00    +0.000 A 
ATOM      9  C   UNL     1       7.106   4.233  12.482  0.00  0.00    +0.000 A 
ATOM     10  C   UNL     1       7.534   4.898  13.643  0.00  0.00    +0.000 A 
ATOM     11  C   UNL     1       6.718   4.987  14.775  0.00  0.00    +0.000 A 
ATOM     12  C   UNL     1       5.450   4.421  14.704  0.00  0.00    +0.000 A 
ATOM     13  C   UNL     1       5.026   3.729  13.554  0.00  0.00    +0.000 A 
BRANCH   8  15
ATOM     14  C   UNL     1       5.881   1.350  11.290  0.00  0.00    +0.000 C 
ATOM     15  C   UNL     1       5.442   2.817  11.201  0.00  0.00    +0.000 C 
ATOM     16  C   UNL     1       3.938   2.897  10.928  0.00  0.00    +0.000 C 
ENDBRANCH   8  15
ENDBRANCH   7  11
ENDBRANCH   1   7
BRANCH   1  17
ATOM     17  C   UNL     1       6.251   4.827  18.061  0.00  0.00    +0.000 C 
BRANCH  17  18
ATOM     18  C   UNL     1       4.788   4.455  18.195  0.00  0.00    +0.000 A 
ATOM     19  C   UNL     1       4.226   3.528  17.305  0.00  0.00    +0.000 A 
ATOM     20  C   UNL     1       2.919   3.075  17.474  0.00  0.00    +0.000 A 
ATOM     21  C   UNL     1       2.153   3.536  18.543  0.00  0.00    +0.000 A 
ATOM     22  C   UNL     1       2.688   4.462  19.448  0.00  0.00    +0.000 A 
ATOM     23  C   UNL     1       4.001   4.929  19.253  0.00  0.00    +0.000 A 
BRANCH  22  24
ATOM     24  C   UNL     1       1.900   4.928  20.646  0.00  0.00    +0.000 C 
ATOM     25  F   UNL     1       1.797   6.284  20.740  0.00  0.00    +0.000 F 
ATOM     26  F   UNL     1       0.618   4.462  20.634  0.00  0.00    +0.000 F 
ATOM     27  F   UNL     1       2.438   4.510  21.824  0.00  0.00    +0.000 F 
ENDBRANCH  22  24
ENDBRANCH  17  18
ENDBRANCH   1  17
TORSDOF 8
ENDMDL
MODEL 2
REMARK VINA RESULT:      -8.7      4.152      7.390
REMARK  Name = 
REMARK  11 active torsions:
REMARK  status: ('A' for Active; 'I' for Inactive)
REMARK    1  A    between atoms: C_1  and  C_2
REMARK    2  A    between atoms: C_2  and  C_3
REMARK    3  A    between atoms: C_2  and  C_4
REMARK    4  A    between atoms: C_7  and  O_8
REMARK    5  A    between atoms: O_8  and  C_9
REMARK    6  A    between atoms: C_9  and  C_10
REMARK    7  A    between atoms: C_9  and  C_11
REMARK    8  A    between atoms: C_9  and  C_22
REMARK    9  A    between atoms: C_11  and  C_12
REMARK   10  A    between atoms: C_16  and  C_17
REMARK   11  A    between atoms: C_22  and  O_24
REMARK                            x       y       z     vdW  Elec       q    Type
REMARK                         _______ _______ _______ _____ _____    ______ ____
ROOT
ATOM      1  C   UNL     1       2.492   3.806  19.988  0.00  0.00    +0.000 C 
ATOM      2  C   UNL     1       0.963   3.838  19.816  0.00  0.00    +0.000 C 
ENDROOT
BRANCH   1   3
ATOM      3  C   UNL     1       2.707   2.991  21.285  0.00  0.00    +0.000 C 
ATOM      4  O   UNL     1       1.984   3.047  22.274  0.00  0.00    +0.000 OA
BRANCH   3   5
ATOM      5  O   UNL     1       3.842   2.252  21.275  0.00  0.00    +0.000 OA
ATOM      6  H   UNL     1       3.998   1.876  22.167  0.00  0.00    +0.000 HD
ENDBRANCH   3   5
ENDBRANCH   1   3
BRANCH   1   7
ATOM      7  O   UNL     1       2.992   5.134  20.262  0.00  0.00    +0.000 OA
BRANCH   7  11
ATOM      8  C   UNL     1       1.441   8.882  19.146  0.00  0.00    +0.000 A 
ATOM      9  C   UNL     1       1.259   8.328  20.418  0.00  0.00    +0.000 A 
ATOM     10  C   UNL     1       1.769   7.057  20.729  0.00  0.00    +0.000 A 
ATOM     11  C   UNL     1       2.450   6.291  19.777  0.00  0.00    +0.000 A 
ATOM     12  C   UNL     1       2.580   6.818  18.497  0.00  0.00    +0.000 A 
ATOM     13  C   UNL     1       2.097   8.103  18.187  0.00  0.00    +0.000 A 
BRANCH   8  15
ATOM     14  C   UNL     1      -0.434  10.320  18.227  0.00  0.00    +0.000 C 
ATOM     15  C   UNL     1       0.966  10.298  18.853  0.00  0.00    +0.000 C 
ATOM     16  C   UNL     1       0.998  11.194  20.095  0.00  0.00    +0.000 C 
ENDBRANCH   8  15
ENDBRANCH   7  11
ENDBRANCH   1   7
BRANCH   1  17
ATOM     17  C   UNL     1       3.182   3.025  18.844  0.00  0.00    +0.000 C 
BRANCH  17  18
ATOM     18  C   UNL     1       4.288   3.712  18.069  0.00  0.00    +0.000 A 
ATOM     19  C   UNL     1       4.108   3.987  16.705  0.00  0.00    +0.000 A 
ATOM     20  C   UNL     1       5.053   4.723  15.993  0.00  0.00    +0.000 A 
ATOM     21  C   UNL     1       6.192   5.204  16.635  0.00  0.00    +0.000 A 
ATOM     22  C   UNL     1       6.399   4.944  17.996  0.00  0.00    +0.000 A 
ATOM     23  C   UNL     1       5.449   4.181  18.699  0.00  0.00    +0.000 A 
BRANCH  22  24
ATOM     24  C   UNL     1       7.593   5.506  18.726  0.00  0.00    +0.000 C 
ATOM     25  F   UNL     1       7.375   5.711  20.056  0.00  0.00    +0.000 F 
ATOM     26  F   UNL     1       8.677   4.683  18.653  0.00  0.00    +0.000 F 
ATOM     27  F   UNL     1       7.999   6.705  18.224  0.00  0.00    +0.000 F 
ENDBRANCH  22  24
ENDBRANCH  17  18
ENDBRANCH   1  17
TORSDOF 8
ENDMDL
MODEL 3
REMARK VINA RESULT:      -8.6      1.693      2.211
REMARK  Name = 
REMARK  11 active torsions:
REMARK  status: ('A' for Active; 'I' for Inactive)
REMARK    1  A    between atoms: C_1  and  C_2
REMARK    2  A    between atoms: C_2  and  C_3
REMARK    3  A    between atoms: C_2  and  C_4
REMARK    4  A    between atoms: C_7  and  O_8
REMARK    5  A    between atoms: O_8  and  C_9
REMARK    6  A    between atoms: C_9  and  C_10
REMARK    7  A    between atoms: C_9  and  C_11
REMARK    8  A    between atoms: C_9  and  C_22
REMARK    9  A    between atoms: C_11  and  C_12
REMARK   10  A    between atoms: C_16  and  C_17
REMARK   11  A    between atoms: C_22  and  O_24
REMARK                            x       y       z     vdW  Elec       q    Type
REMARK                         _______ _______ _______ _____ _____    ______ ____
ROOT
ATOM      1  C   UNL     1       6.399   5.874  18.332  0.00  0.00    +0.000 C 
ATOM      2  C   UNL     1       6.109   7.065  17.401  0.00  0.00    +0.000 C 
ENDROOT
BRANCH   1   3
ATOM      3  C   UNL     1       7.714   6.267  19.046  0.00  0.00    +0.000 C 
ATOM      4  O   UNL     1       8.468   7.161  18.679  0.00  0.00    +0.000 OA
BRANCH   3   5
ATOM      5  O   UNL     1       8.019   5.463  20.092  0.00  0.00    +0.000 OA
ATOM      6  H   UNL     1       7.499   5.734  20.878  0.00  0.00    +0.000 HD
ENDBRANCH   3   5
ENDBRANCH   1   3
BRANCH   1   7
ATOM      7  O   UNL     1       6.703   4.695  17.554  0.00  0.00    +0.000 OA
BRANCH   7  11
ATOM      8  C   UNL     1       5.962   3.932  13.483  0.00  0.00    +0.000 A 
ATOM      9  C   UNL     1       7.142   4.524  13.947  0.00  0.00    +0.000 A 
ATOM     10  C   UNL     1       7.326   4.788  15.314  0.00  0.00    +0.000 A 
ATOM     11  C   UNL     1       6.332   4.496  16.253  0.00  0.00    +0.000 A 
ATOM     12  C   UNL     1       5.137   3.961  15.785  0.00  0.00    +0.000 A 
ATOM     13  C   UNL     1       4.958   3.667  14.420  0.00  0.00    +0.000 A 
BRANCH   8  15
ATOM     14  C   UNL     1       6.716   2.386  11.621  0.00  0.00    +0.000 C 
ATOM     15  C   UNL     1       5.817   3.565  12.013  0.00  0.00    +0.000 C 
ATOM     16  C   UNL     1       4.366   3.269  11.625  0.00  0.00    +0.000 C 
ENDBRANCH   8  15
ENDBRANCH   7  11
ENDBRANCH   1   7
BRANCH   1  17
ATOM     17  C   UNL     1       5.317   5.725  19.428  0.00  0.00    +0.000 C 
BRANCH  17  18
ATOM     18  C   UNL     1       3.934   5.261  19.015  0.00  0.00    +0.000 A 
ATOM     19  C   UNL     1       3.151   6.078  18.186  0.00  0.00    +0.000 A 
ATOM     20  C   UNL     1       1.928   5.631  17.691  0.00  0.00    +0.000 A 
ATOM     21  C   UNL     1       1.469   4.355  18.010  0.00  0.00    +0.000 A 
ATOM     22  C   UNL     1       2.230   3.517  18.836  0.00  0.00    +0.000 A 
ATOM     23  C   UNL     1       3.453   3.988  19.348  0.00  0.00    +0.000 A 
BRANCH  22  24
ATOM     24  C   UNL     1       1.784   2.110  19.145  0.00  0.00    +0.000 C 
ATOM     25  F   UNL     1       1.582   1.879  20.473  0.00  0.00    +0.000 F 
ATOM     26  F   UNL     1       0.607   1.795  18.533  0.00  0.00    +0.000 F 
ATOM     27  F   UNL     1       2.681   1.172  18.734  0.00  0.00    +0.000 F 
ENDBRANCH  22  24
ENDBRANCH  17  18
ENDBRANCH   1  17
TORSDOF 8
ENDMDL
MODEL 4
REMARK VINA RESULT:      -8.6      1.636      2.352
REMARK  Name = 
REMARK  11 active torsions:
REMARK  status: ('A' for Active; 'I' for Inactive)
REMARK    1  A    between atoms: C_1  and  C_2
REMARK    2  A    between atoms: C_2  and  C_3
REMARK    3  A    between atoms: C_2  and  C_4
REMARK    4  A    between atoms: C_7  and  O_8
REMARK    5  A    between atoms: O_8  and  C_9
REMARK    6  A    between atoms: C_9  and  C_10
REMARK    7  A    between atoms: C_9  and  C_11
REMARK    8  A    between atoms: C_9  and  C_22
REMARK    9  A    between atoms: C_11  and  C_12
REMARK   10  A    between atoms: C_16  and  C_17
REMARK   11  A    between atoms: C_22  and  O_24
REMARK                            x       y       z     vdW  Elec       q    Type
REMARK                         _______ _______ _______ _____ _____    ______ ____
ROOT
ATOM      1  C   UNL     1       6.652   6.234  17.180  0.00  0.00    +0.000 C 
ATOM      2  C   UNL     1       7.449   7.488  17.582  0.00  0.00    +0.000 C 
ENDROOT
BRANCH   1   3
ATOM      3  C   UNL     1       6.722   5.329  18.433  0.00  0.00    +0.000 C 
ATOM      4  O   UNL     1       6.644   5.728  19.589  0.00  0.00    +0.000 OA
BRANCH   3   5
ATOM      5  O   UNL     1       6.972   4.029  18.144  0.00  0.00    +0.000 OA
ATOM      6  H   UNL     1       6.174   3.621  17.746  0.00  0.00    +0.000 HD
ENDBRANCH   3   5
ENDBRANCH   1   3
BRANCH   1   7
ATOM      7  O   UNL     1       7.341   5.520  16.131  0.00  0.00    +0.000 OA
BRANCH   7  11
ATOM      8  C   UNL     1       5.892   3.692  12.628  0.00  0.00    +0.000 A 
ATOM      9  C   UNL     1       7.072   4.444  12.666  0.00  0.00    +0.000 A 
ATOM     10  C   UNL     1       7.494   5.062  13.855  0.00  0.00    +0.000 A 
ATOM     11  C   UNL     1       6.743   4.972  15.030  0.00  0.00    +0.000 A 
ATOM     12  C   UNL     1       5.541   4.274  14.978  0.00  0.00    +0.000 A 
ATOM     13  C   UNL     1       5.127   3.628  13.798  0.00  0.00    +0.000 A 
BRANCH   8  15
ATOM     14  C   UNL     1       5.957   1.487  11.379  0.00  0.00    +0.000 C 
ATOM     15  C   UNL     1       5.497   2.951  11.360  0.00  0.00    +0.000 C 
ATOM     16  C   UNL     1       3.993   3.023  11.085  0.00  0.00    +0.000 C 
ENDBRANCH   8  15
ENDBRANCH   7  11
ENDBRANCH   1   7
BRANCH   1  17
ATOM     17  C   UNL     1       5.158   6.556  16.939  0.00  0.00    +0.000 C 
BRANCH  17  18
ATOM     18  C   UNL     1       4.131   5.952  17.876  0.00  0.00    +0.000 A 
ATOM     19  C   UNL     1       3.473   6.775  18.802  0.00  0.00    +0.000 A 
ATOM     20  C   UNL     1       2.441   6.276  19.594  0.00  0.00    +0.000 A 
ATOM     21  C   UNL     1       2.044   4.947  19.468  0.00  0.00    +0.000 A 
ATOM     22  C   UNL     1       2.684   4.102  18.552  0.00  0.00    +0.000 A 
ATOM     23  C   UNL     1       3.740   4.611  17.774  0.00  0.00    +0.000 A 
BRANCH  22  24
ATOM     24  C   UNL     1       2.231   2.677  18.355  0.00  0.00    +0.000 C 
ATOM     25  F   UNL     1       2.884   1.780  19.147  0.00  0.00    +0.000 F 
ATOM     26  F   UNL     1       0.905   2.513  18.630  0.00  0.00    +0.000 F 
ATOM     27  F   UNL     1       2.403   2.243  17.076  0.00  0.00    +0.000 F 
ENDBRANCH  22  24
ENDBRANCH  17  18
ENDBRANCH   1  17
TORSDOF 8
ENDMDL
MODEL 5
REMARK VINA RESULT:      -8.6      4.281      7.460
REMARK  Name = 
REMARK  11 active torsions:
REMARK  status: ('A' for Active; 'I' for Inactive)
REMARK    1  A    between atoms: C_1  and  C_2
REMARK    2  A    between atoms: C_2  and  C_3
REMARK    3  A    between atoms: C_2  and  C_4
REMARK    4  A    between atoms: C_7  and  O_8
REMARK    5  A    between atoms: O_8  and  C_9
REMARK    6  A    between atoms: C_9  and  C_10
REMARK    7  A    between atoms: C_9  and  C_11
REMARK    8  A    between atoms: C_9  and  C_22
REMARK    9  A    between atoms: C_11  and  C_12
REMARK   10  A    between atoms: C_16  and  C_17
REMARK   11  A    between atoms: C_22  and  O_24
REMARK                            x       y       z     vdW  Elec       q    Type
REMARK                         _______ _______ _______ _____ _____    ______ ____
ROOT
ATOM      1  C   UNL     1       2.647   4.054  19.956  0.00  0.00    +0.000 C 
ATOM      2  C   UNL     1       1.525   4.038  18.903  0.00  0.00    +0.000 C 
ENDROOT
BRANCH   1   3
ATOM      3  C   UNL     1       2.091   3.186  21.110  0.00  0.00    +0.000 C 
ATOM      4  O   UNL     1       2.774   2.668  21.987  0.00  0.00    +0.000 OA
BRANCH   3   5
ATOM      5  O   UNL     1       0.757   2.966  21.024  0.00  0.00    +0.000 OA
ATOM      6  H   UNL     1       0.587   2.213  20.420  0.00  0.00    +0.000 HD
ENDBRANCH   3   5
ENDBRANCH   1   3
BRANCH   1   7
ATOM      7  O   UNL     1       2.807   5.384  20.496  0.00  0.00    +0.000 OA
BRANCH   7  11
ATOM      8  C   UNL     1       1.499   9.112  19.047  0.00  0.00    +0.000 A 
ATOM      9  C   UNL     1       1.141   8.612  20.304  0.00  0.00    +0.000 A 
ATOM     10  C   UNL     1       1.577   7.346  20.727  0.00  0.00    +0.000 A 
ATOM     11  C   UNL     1       2.359   6.531  19.902  0.00  0.00    +0.000 A 
ATOM     12  C   UNL     1       2.667   7.004  18.631  0.00  0.00    +0.000 A 
ATOM     13  C   UNL     1       2.257   8.283  18.213  0.00  0.00    +0.000 A 
BRANCH   8  15
ATOM     14  C   UNL     1       0.534  11.324  19.822  0.00  0.00    +0.000 C 
ATOM     15  C   UNL     1       1.099  10.523  18.642  0.00  0.00    +0.000 C 
ATOM     16  C   UNL     1       2.250  11.293  17.990  0.00  0.00    +0.000 C 
ENDBRANCH   8  15
ENDBRANCH   7  11
ENDBRANCH   1   7
BRANCH   1  17
ATOM     17  C   UNL     1       3.928   3.353  19.441  0.00  0.00    +0.000 C 
BRANCH  17  18
ATOM     18  C   UNL     1       4.681   3.988  18.289  0.00  0.00    +0.000 A 
ATOM     19  C   UNL     1       4.370   3.616  16.973  0.00  0.00    +0.000 A 
ATOM     20  C   UNL     1       4.957   4.265  15.888  0.00  0.00    +0.000 A 
ATOM     21  C   UNL     1       5.859   5.305  16.102  0.00  0.00    +0.000 A 
ATOM     22  C   UNL     1       6.189   5.698  17.406  0.00  0.00    +0.000 A 
ATOM     23  C   UNL     1       5.607   5.019  18.493  0.00  0.00    +0.000 A 
BRANCH  22  24
ATOM     24  C   UNL     1       7.115   6.860  17.661  0.00  0.00    +0.000 C 
ATOM     25  F   UNL     1       7.858   6.729  18.797  0.00  0.00    +0.000 F 
ATOM     26  F   UNL     1       8.014   7.036  16.651  0.00  0.00    +0.000 F 
ATOM     27  F   UNL     1       6.453   8.044  17.781  0.00  0.00    +0.000 F 
ENDBRANCH  22  24
ENDBRANCH  17  18
ENDBRANCH   1  17
TORSDOF 8
ENDMDL
MODEL 6
REMARK VINA RESULT:      -8.5      4.463      7.604
REMARK  Name = 
REMARK  11 active torsions:
REMARK  status: ('A' for Active; 'I' for Inactive)
REMARK    1  A    between atoms: C_1  and  C_2
REMARK    2  A    between atoms: C_2  and  C_3
REMARK    3  A    between atoms: C_2  and  C_4
REMARK    4  A    between atoms: C_7  and  O_8
REMARK    5  A    between atoms: O_8  and  C_9
REMARK    6  A    between atoms: C_9  and  C_10
REMARK    7  A    between atoms: C_9  and  C_11
REMARK    8  A    between atoms: C_9  and  C_22
REMARK    9  A    between atoms: C_11  and  C_12
REMARK   10  A    between atoms: C_16  and  C_17
REMARK   11  A    between atoms: C_22  and  O_24
REMARK                            x       y       z     vdW  Elec       q    Type
REMARK                         _______ _______ _______ _____ _____    ______ ____
ROOT
ATOM      1  C   UNL     1       2.613   4.003  19.994  0.00  0.00    +0.000 C 
ATOM      2  C   UNL     1       1.441   3.995  18.996  0.00  0.00    +0.000 C 
ENDROOT
BRANCH   1   3
ATOM      3  C   UNL     1       2.142   3.068  21.133  0.00  0.00    +0.000 C 
ATOM      4  O   UNL     1       2.886   2.493  21.918  0.00  0.00    +0.000 OA
BRANCH   3   5
ATOM      5  O   UNL     1       0.803   2.861  21.141  0.00  0.00    +0.000 OA
ATOM      6  H   UNL     1       0.582   2.162  21.792  0.00  0.00    +0.000 HD
ENDBRANCH   3   5
ENDBRANCH   1   3
BRANCH   1   7
ATOM      7  O   UNL     1       2.756   5.313  20.584  0.00  0.00    +0.000 OA
BRANCH   7  11
ATOM      8  C   UNL     1       1.381   9.074  19.292  0.00  0.00    +0.000 A 
ATOM      9  C   UNL     1       1.028   8.513  20.525  0.00  0.00    +0.000 A 
ATOM     10  C   UNL     1       1.488   7.239  20.894  0.00  0.00    +0.000 A 
ATOM     11  C   UNL     1       2.288   6.476  20.038  0.00  0.00    +0.000 A 
ATOM     12  C   UNL     1       2.591   7.009  18.790  0.00  0.00    +0.000 A 
ATOM     13  C   UNL     1       2.158   8.297  18.425  0.00  0.00    +0.000 A 
BRANCH   8  15
ATOM     14  C   UNL     1       2.000  11.218  18.089  0.00  0.00    +0.000 C 
ATOM     15  C   UNL     1       0.954  10.493  18.946  0.00  0.00    +0.000 C 
ATOM     16  C   UNL     1      -0.412  10.541  18.256  0.00  0.00    +0.000 C 
ENDBRANCH   8  15
ENDBRANCH   7  11
ENDBRANCH   1   7
BRANCH   1  17
ATOM     17  C   UNL     1       3.888   3.369  19.387  0.00  0.00    +0.000 C 
BRANCH  17  18
ATOM     18  C   UNL     1       4.854   4.269  18.643  0.00  0.00    +0.000 A 
ATOM     19  C   UNL     1       5.908   4.876  19.341  0.00  0.00    +0.000 A 
ATOM     20  C   UNL     1       6.882   5.612  18.667  0.00  0.00    +0.000 A 
ATOM     21  C   UNL     1       6.821   5.746  17.281  0.00  0.00    +0.000 A 
ATOM     22  C   UNL     1       5.779   5.150  16.559  0.00  0.00    +0.000 A 
ATOM     23  C   UNL     1       4.790   4.430  17.253  0.00  0.00    +0.000 A 
BRANCH  22  24
ATOM     24  C   UNL     1       5.727   5.230  15.054  0.00  0.00    +0.000 C 
ATOM     25  F   UNL     1       5.126   6.361  14.586  0.00  0.00    +0.000 F 
ATOM     26  F   UNL     1       6.969   5.214  14.492  0.00  0.00    +0.000 F 
ATOM     27  F   UNL     1       5.051   4.189  14.495  0.00  0.00    +0.000 F 
ENDBRANCH  22  24
ENDBRANCH  17  18
ENDBRANCH   1  17
TORSDOF 8
ENDMDL
MODEL 7
REMARK VINA RESULT:      -8.5      4.133      7.340
REMARK  Name = 
REMARK  11 active torsions:
REMARK  status: ('A' for Active; 'I' for Inactive)
REMARK    1  A    between atoms: C_1  and  C_2
REMARK    2  A    between atoms: C_2  and  C_3
REMARK    3  A    between atoms: C_2  and  C_4
REMARK    4  A    between atoms: C_7  and  O_8
REMARK    5  A    between atoms: O_8  and  C_9
REMARK    6  A    between atoms: C_9  and  C_10
REMARK    7  A    between atoms: C_9  and  C_11
REMARK    8  A    between atoms: C_9  and  C_22
REMARK    9  A    between atoms: C_11  and  C_12
REMARK   10  A    between atoms: C_16  and  C_17
REMARK   11  A    between atoms: C_22  and  O_24
REMARK                            x       y       z     vdW  Elec       q    Type
REMARK                         _______ _______ _______ _____ _____    ______ ____
ROOT
ATOM      1  C   UNL     1       2.517   3.800  19.902  0.00  0.00    +0.000 C 
ATOM      2  C   UNL     1       0.990   3.780  19.710  0.00  0.00    +0.000 C 
ENDROOT
BRANCH   1   3
ATOM      3  C   UNL     1       2.747   2.934  21.163  0.00  0.00    +0.000 C 
ATOM      4  O   UNL     1       3.747   2.255  21.371  0.00  0.00    +0.000 OA
BRANCH   3   5
ATOM      5  O   UNL     1       1.687   2.917  22.005  0.00  0.00    +0.000 OA
ATOM      6  H   UNL     1       1.072   3.644  21.775  0.00  0.00    +0.000 HD
ENDBRANCH   3   5
ENDBRANCH   1   3
BRANCH   1   7
ATOM      7  O   UNL     1       2.959   5.132  20.244  0.00  0.00    +0.000 OA
BRANCH   7  11
ATOM      8  C   UNL     1       1.510   8.886  19.015  0.00  0.00    +0.000 A 
ATOM      9  C   UNL     1       1.361   8.398  20.319  0.00  0.00    +0.000 A 
ATOM     10  C   UNL     1       1.834   7.123  20.669  0.00  0.00    +0.000 A 
ATOM     11  C   UNL     1       2.443   6.288  19.728  0.00  0.00    +0.000 A 
ATOM     12  C   UNL     1       2.539   6.749  18.420  0.00  0.00    +0.000 A 
ATOM     13  C   UNL     1       2.093   8.037  18.069  0.00  0.00    +0.000 A 
BRANCH   8  15
ATOM     14  C   UNL     1       0.456  11.024  19.879  0.00  0.00    +0.000 C 
ATOM     15  C   UNL     1       1.078  10.305  18.675  0.00  0.00    +0.000 C 
ATOM     16  C   UNL     1       2.225  11.143  18.101  0.00  0.00    +0.000 C 
ENDBRANCH   8  15
ENDBRANCH   7  11
ENDBRANCH   1   7
BRANCH   1  17
ATOM     17  C   UNL     1       3.252   3.101  18.733  0.00  0.00    +0.000 C 
BRANCH  17  18
ATOM     18  C   UNL     1       4.363   3.854  18.030  0.00  0.00    +0.000 A 
ATOM     19  C   UNL     1       4.194   4.245  16.693  0.00  0.00    +0.000 A 
ATOM     20  C   UNL     1       5.144   5.041  16.055  0.00  0.00    +0.000 A 
ATOM     21  C   UNL     1       6.276   5.467  16.746  0.00  0.00    +0.000 A 
ATOM     22  C   UNL     1       6.471   5.091  18.082  0.00  0.00    +0.000 A 
ATOM     23  C   UNL     1       5.517   4.269  18.708  0.00  0.00    +0.000 A 
BRANCH  22  24
ATOM     24  C   UNL     1       7.658   5.590  18.868  0.00  0.00    +0.000 C 
ATOM     25  F   UNL     1       8.738   4.760  18.815  0.00  0.00    +0.000 F 
ATOM     26  F   UNL     1       8.101   6.800  18.423  0.00  0.00    +0.000 F 
ATOM     27  F   UNL     1       7.379   5.758  20.190  0.00  0.00    +0.000 F 
ENDBRANCH  22  24
ENDBRANCH  17  18
ENDBRANCH   1  17
TORSDOF 8
ENDMDL
MODEL 8
REMARK VINA RESULT:      -8.4      4.527      7.608
REMARK  Name = 
REMARK  11 active torsions:
REMARK  status: ('A' for Active; 'I' for Inactive)
REMARK    1  A    between atoms: C_1  and  C_2
REMARK    2  A    between atoms: C_2  and  C_3
REMARK    3  A    between atoms: C_2  and  C_4
REMARK    4  A    between atoms: C_7  and  O_8
REMARK    5  A    between atoms: O_8  and  C_9
REMARK    6  A    between atoms: C_9  and  C_10
REMARK    7  A    between atoms: C_9  and  C_11
REMARK    8  A    between atoms: C_9  and  C_22
REMARK    9  A    between atoms: C_11  and  C_12
REMARK   10  A    between atoms: C_16  and  C_17
REMARK   11  A    between atoms: C_22  and  O_24
REMARK                            x       y       z     vdW  Elec       q    Type
REMARK                         _______ _______ _______ _____ _____    ______ ____
ROOT
ATOM      1  C   UNL     1       2.642   3.906  19.846  0.00  0.00    +0.000 C 
ATOM      2  C   UNL     1       1.110   3.849  19.703  0.00  0.00    +0.000 C 
ENDROOT
BRANCH   1   3
ATOM      3  C   UNL     1       2.931   3.074  21.117  0.00  0.00    +0.000 C 
ATOM      4  O   UNL     1       3.846   2.265  21.230  0.00  0.00    +0.000 OA
BRANCH   3   5
ATOM      5  O   UNL     1       2.014   3.251  22.098  0.00  0.00    +0.000 OA
ATOM      6  H   UNL     1       2.238   2.683  22.864  0.00  0.00    +0.000 HD
ENDBRANCH   3   5
ENDBRANCH   1   3
BRANCH   1   7
ATOM      7  O   UNL     1       3.065   5.255  20.146  0.00  0.00    +0.000 OA
BRANCH   7  11
ATOM      8  C   UNL     1       1.422   8.941  18.954  0.00  0.00    +0.000 A 
ATOM      9  C   UNL     1       1.279   8.422  20.246  0.00  0.00    +0.000 A 
ATOM     10  C   UNL     1       1.818   7.170  20.584  0.00  0.00    +0.000 A 
ATOM     11  C   UNL     1       2.491   6.388  19.640  0.00  0.00    +0.000 A 
ATOM     12  C   UNL     1       2.583   6.878  18.341  0.00  0.00    +0.000 A 
ATOM     13  C   UNL     1       2.070   8.144  18.004  0.00  0.00    +0.000 A 
BRANCH   8  15
ATOM     14  C   UNL     1      -0.530  10.324  18.114  0.00  0.00    +0.000 C 
ATOM     15  C   UNL     1       0.915  10.339  18.630  0.00  0.00    +0.000 C 
ATOM     16  C   UNL     1       1.036  11.294  19.820  0.00  0.00    +0.000 C 
ENDBRANCH   8  15
ENDBRANCH   7  11
ENDBRANCH   1   7
BRANCH   1  17
ATOM     17  C   UNL     1       3.356   3.198  18.669  0.00  0.00    +0.000 C 
BRANCH  17  18
ATOM     18  C   UNL     1       4.571   3.867  18.059  0.00  0.00    +0.000 A 
ATOM     19  C   UNL     1       5.595   4.334  18.896  0.00  0.00    +0.000 A 
ATOM     20  C   UNL     1       6.778   4.845  18.363  0.00  0.00    +0.000 A 
ATOM     21  C   UNL     1       6.960   4.889  16.983  0.00  0.00    +0.000 A 
ATOM     22  C   UNL     1       5.953   4.429  16.122  0.00  0.00    +0.000 A 
ATOM     23  C   UNL     1       4.755   3.938  16.672  0.00  0.00    +0.000 A 
BRANCH  22  24
ATOM     24  C   UNL     1       6.152   4.411  14.628  0.00  0.00    +0.000 C 
ATOM     25  F   UNL     1       6.297   3.158  14.110  0.00  0.00    +0.000 F 
ATOM     26  F   UNL     1       5.102   4.967  13.959  0.00  0.00    +0.000 F 
ATOM     27  F   UNL     1       7.255   5.107  14.236  0.00  0.00    +0.000 F 
ENDBRANCH  22  24
ENDBRANCH  17  18
ENDBRANCH   1  17
TORSDOF 8
ENDMDL
MODEL 9
REMARK VINA RESULT:      -8.4      4.289      7.413
REMARK  Name = 
REMARK  11 active torsions:
REMARK  status: ('A' for Active; 'I' for Inactive)
REMARK    1  A    between atoms: C_1  and  C_2
REMARK    2  A    between atoms: C_2  and  C_3
REMARK    3  A    between atoms: C_2  and  C_4
REMARK    4  A    between atoms: C_7  and  O_8
REMARK    5  A    between atoms: O_8  and  C_9
REMARK    6  A    between atoms: C_9  and  C_10
REMARK    7  A    between atoms: C_9  and  C_11
REMARK    8  A    between atoms: C_9  and  C_22
REMARK    9  A    between atoms: C_11  and  C_12
REMARK   10  A    between atoms: C_16  and  C_17
REMARK   11  A    between atoms: C_22  and  O_24
REMARK                            x       y       z     vdW  Elec       q    Type
REMARK                         _______ _______ _______ _____ _____    ______ ____
ROOT
ATOM      1  C   UNL     1       2.967   4.163  19.692  0.00  0.00    +0.000 C 
ATOM      2  C   UNL     1       1.748   4.105  18.754  0.00  0.00    +0.000 C 
ENDROOT
BRANCH   1   3
ATOM      3  C   UNL     1       2.529   3.339  20.927  0.00  0.00    +0.000 C 
ATOM      4  O   UNL     1       3.232   2.517  21.503  0.00  0.00    +0.000 OA
BRANCH   3   5
ATOM      5  O   UNL     1       1.237   3.542  21.279  0.00  0.00    +0.000 OA
ATOM      6  H   UNL     1       1.139   3.430  22.248  0.00  0.00    +0.000 HD
ENDBRANCH   3   5
ENDBRANCH   1   3
BRANCH   1   7
ATOM      7  O   UNL     1       3.170   5.513  20.163  0.00  0.00    +0.000 OA
BRANCH   7  11
ATOM      8  C   UNL     1       1.380   9.126  18.958  0.00  0.00    +0.000 A 
ATOM      9  C   UNL     1       1.181   8.558  20.221  0.00  0.00    +0.000 A 
ATOM     10  C   UNL     1       1.775   7.332  20.563  0.00  0.00    +0.000 A 
ATOM     11  C   UNL     1       2.562   6.624  19.649  0.00  0.00    +0.000 A 
ATOM     12  C   UNL     1       2.713   7.160  18.374  0.00  0.00    +0.000 A 
ATOM     13  C   UNL     1       2.144   8.402  18.036  0.00  0.00    +0.000 A 
BRANCH   8  15
ATOM     14  C   UNL     1      -0.666  10.427  18.220  0.00  0.00    +0.000 C 
ATOM     15  C   UNL     1       0.808  10.499  18.636  0.00  0.00    +0.000 C 
ATOM     16  C   UNL     1       0.978  11.488  19.793  0.00  0.00    +0.000 C 
ENDBRANCH   8  15
ENDBRANCH   7  11
ENDBRANCH   1   7
BRANCH   1  17
ATOM     17  C   UNL     1       4.196   3.446  19.083  0.00  0.00    +0.000 C 
BRANCH  17  18
ATOM     18  C   UNL     1       4.966   4.149  17.984  0.00  0.00    +0.000 A 
ATOM     19  C   UNL     1       4.712   3.821  16.644  0.00  0.00    +0.000 A 
ATOM     20  C   UNL     1       5.315   4.531  15.607  0.00  0.00    +0.000 A 
ATOM     21  C   UNL     1       6.176   5.588  15.893  0.00  0.00    +0.000 A 
ATOM     22  C   UNL     1       6.449   5.938  17.222  0.00  0.00    +0.000 A 
ATOM     23  C   UNL     1       5.852   5.199  18.260  0.00  0.00    +0.000 A 
BRANCH  22  24
ATOM     24  C   UNL     1       7.329   7.116  17.555  0.00  0.00    +0.000 C 
ATOM     25  F   UNL     1       8.179   7.466  16.548  0.00  0.00    +0.000 F 
ATOM     26  F   UNL     1       6.606   8.238  17.834  0.00  0.00    +0.000 F 
ATOM     27  F   UNL     1       8.112   6.895  18.646  0.00  0.00    +0.000 F 
ENDBRANCH  22  24
ENDBRANCH  17  18
ENDBRANCH   1  17
TORSDOF 8
ENDMDL
