MODEL 1
REMARK VINA RESULT:      -6.8      0.000      0.000
REMARK  Name = 
REMARK  4 active torsions:
REMARK  status: ('A' for Active; 'I' for Inactive)
REMARK    1  A    between atoms: C_1  and  C_2
REMARK    2  A    between atoms: N_4  and  C_5
REMARK    3  A    between atoms: C_9  and  C_10
REMARK    4  A    between atoms: N_15  and  C_16
REMARK                            x       y       z     vdW  Elec       q    Type
REMARK                         _______ _______ _______ _____ _____    ______ ____
ROOT
ATOM      1  C   UNL     1       5.317   6.068  17.137  0.00  0.00    +0.000 A 
ATOM      2  S   UNL     1       3.861   6.491  17.904  0.00  0.00    +0.000 S 
ATOM      3  C   UNL     1       3.350   4.888  17.919  0.00  0.00    +0.000 A 
ATOM      4  C   UNL     1       4.200   4.032  17.234  0.00  0.00    +0.000 A 
ATOM      5  C   UNL     1       5.368   4.742  16.718  0.00  0.00    +0.000 A 
ATOM      6  C   UNL     1       3.860   2.561  17.194  0.00  0.00    +0.000 C 
ATOM      7  C   UNL     1       2.449   2.265  17.763  0.00  0.00    +0.000 C 
ATOM      8  N   UNL     1       2.064   3.049  18.952  0.00  0.00    +0.000 NA
ATOM      9  C   UNL     1       2.905   2.754  20.114  0.00  0.00    +0.000 C 
ATOM     10  C   UNL     1       2.086   4.491  18.627  0.00  0.00    +0.000 C 
ENDROOT
BRANCH   1  14
ATOM     11  C   UNL     1       8.180   8.414  17.490  0.00  0.00    +0.000 C 
ATOM     12  C   UNL     1       7.291   7.250  17.829  0.00  0.00    +0.000 C 
ATOM     13  O   UNL     1       7.543   6.535  18.795  0.00  0.00    +0.000 OA
ATOM     14  N   UNL     1       6.231   7.095  16.938  0.00  0.00    +0.000 N 
ATOM     15  H   UNL     1       6.432   7.324  15.965  0.00  0.00    +0.000 HD
ENDBRANCH   1  14
BRANCH   5  16
ATOM     16  C   UNL     1       6.522   4.237  15.961  0.00  0.00    +0.000 C 
ATOM     17  N   UNL     1       6.303   3.641  14.757  0.00  0.00    +0.000 N 
ATOM     18  O   UNL     1       7.680   4.338  16.382  0.00  0.00    +0.000 OA
ATOM     19  H   UNL     1       5.395   3.414  14.395  0.00  0.00    +0.000 HD
ATOM     20  H   UNL     1       7.109   3.264  14.282  0.00  0.00    +0.000 HD
ENDBRANCH   5  16
TORSDOF 2
ENDMDL
MODEL 2
REMARK VINA RESULT:      -6.7      2.586      5.254
REMARK  Name = 
REMARK  4 active torsions:
REMARK  status: ('A' for Active; 'I' for Inactive)
REMARK    1  A    between atoms: C_1  and  C_2
REMARK    2  A    between atoms: N_4  and  C_5
REMARK    3  A    between atoms: C_9  and  C_10
REMARK    4  A    between atoms: N_15  and  C_16
REMARK                            x       y       z     vdW  Elec       q    Type
REMARK                         _______ _______ _______ _____ _____    ______ ____
ROOT
ATOM      1  C   UNL     1       3.385   4.093  19.207  0.00  0.00    +0.000 A 
ATOM      2  S   UNL     1       4.250   5.535  19.450  0.00  0.00    +0.000 S 
ATOM      3  C   UNL     1       5.137   5.294  18.041  0.00  0.00    +0.000 A 
ATOM      4  C   UNL     1       4.893   4.069  17.439  0.00  0.00    +0.000 A 
ATOM      5  C   UNL     1       3.870   3.315  18.160  0.00  0.00    +0.000 A 
ATOM      6  C   UNL     1       5.615   3.743  16.152  0.00  0.00    +0.000 C 
ATOM      7  C   UNL     1       6.716   4.780  15.814  0.00  0.00    +0.000 C 
ATOM      8  N   UNL     1       6.375   6.188  16.099  0.00  0.00    +0.000 NA
ATOM      9  C   UNL     1       5.266   6.673  15.276  0.00  0.00    +0.000 C 
ATOM     10  C   UNL     1       6.083   6.347  17.539  0.00  0.00    +0.000 C 
ENDROOT
BRANCH   1  14
ATOM     11  C   UNL     1       1.404   2.679  22.019  0.00  0.00    +0.000 C 
ATOM     12  C   UNL     1       2.597   2.880  21.126  0.00  0.00    +0.000 C 
ATOM     13  O   UNL     1       3.639   2.264  21.331  0.00  0.00    +0.000 OA
ATOM     14  N   UNL     1       2.375   3.817  20.120  0.00  0.00    +0.000 N 
ATOM     15  H   UNL     1       1.781   4.607  20.372  0.00  0.00    +0.000 HD
ENDBRANCH   1  14
BRANCH   5  16
ATOM     16  C   UNL     1       3.290   1.996  17.872  0.00  0.00    +0.000 C 
ATOM     17  N   UNL     1       3.976   0.884  18.251  0.00  0.00    +0.000 N 
ATOM     18  O   UNL     1       2.201   1.867  17.300  0.00  0.00    +0.000 OA
ATOM     19  H   UNL     1       4.912   0.892  18.613  0.00  0.00    +0.000 HD
ATOM     20  H   UNL     1       3.575  -0.006  18.000  0.00  0.00    +0.000 HD
ENDBRANCH   5  16
TORSDOF 2
ENDMDL
MODEL 3
REMARK VINA RESULT:      -6.6      1.148      1.246
REMARK  Name = 
REMARK  4 active torsions:
REMARK  status: ('A' for Active; 'I' for Inactive)
REMARK    1  A    between atoms: C_1  and  C_2
REMARK    2  A    between atoms: N_4  and  C_5
REMARK    3  A    between atoms: C_9  and  C_10
REMARK    4  A    between atoms: N_15  and  C_16
REMARK                            x       y       z     vdW  Elec       q    Type
REMARK                         _______ _______ _______ _____ _____    ______ ____
ROOT
ATOM      1  C   UNL     1       4.529   6.032  17.579  0.00  0.00    +0.000 A 
ATOM      2  S   UNL     1       3.369   6.477  18.737  0.00  0.00    +0.000 S 
ATOM      3  C   UNL     1       2.656   4.954  18.675  0.00  0.00    +0.000 A 
ATOM      4  C   UNL     1       3.192   4.134  17.693  0.00  0.00    +0.000 A 
ATOM      5  C   UNL     1       4.293   4.791  16.994  0.00  0.00    +0.000 A 
ATOM      6  C   UNL     1       2.649   2.731  17.553  0.00  0.00    +0.000 C 
ATOM      7  C   UNL     1       1.385   2.498  18.418  0.00  0.00    +0.000 C 
ATOM      8  N   UNL     1       1.404   3.120  19.757  0.00  0.00    +0.000 NA
ATOM      9  C   UNL     1       2.446   2.558  20.619  0.00  0.00    +0.000 C 
ATOM     10  C   UNL     1       1.552   4.584  19.624  0.00  0.00    +0.000 C 
ENDROOT
BRANCH   1  14
ATOM     11  C   UNL     1       7.716   7.942  17.438  0.00  0.00    +0.000 C 
ATOM     12  C   UNL     1       6.780   6.832  17.830  0.00  0.00    +0.000 C 
ATOM     13  O   UNL     1       7.171   5.910  18.541  0.00  0.00    +0.000 OA
ATOM     14  N   UNL     1       5.505   6.976  17.287  0.00  0.00    +0.000 N 
ATOM     15  H   UNL     1       5.464   7.379  16.352  0.00  0.00    +0.000 HD
ENDBRANCH   1  14
BRANCH   5  16
ATOM     16  C   UNL     1       5.154   4.295  15.911  0.00  0.00    +0.000 C 
ATOM     17  N   UNL     1       5.886   3.168  16.122  0.00  0.00    +0.000 N 
ATOM     18  O   UNL     1       5.232   4.868  14.817  0.00  0.00    +0.000 OA
ATOM     19  H   UNL     1       5.973   2.708  17.010  0.00  0.00    +0.000 HD
ATOM     20  H   UNL     1       6.501   2.877  15.379  0.00  0.00    +0.000 HD
ENDBRANCH   5  16
TORSDOF 2
ENDMDL
MODEL 4
REMARK VINA RESULT:      -6.2      2.709      5.222
REMARK  Name = 
REMARK  4 active torsions:
REMARK  status: ('A' for Active; 'I' for Inactive)
REMARK    1  A    between atoms: C_1  and  C_2
REMARK    2  A    between atoms: N_4  and  C_5
REMARK    3  A    between atoms: C_9  and  C_10
REMARK    4  A    between atoms: N_15  and  C_16
REMARK                            x       y       z     vdW  Elec       q    Type
REMARK                         _______ _______ _______ _____ _____    ______ ____
ROOT
ATOM      1  C   UNL     1       4.144   3.778  19.305  0.00  0.00    +0.000 A 
ATOM      2  S   UNL     1       5.163   5.125  19.493  0.00  0.00    +0.000 S 
ATOM      3  C   UNL     1       5.574   5.098  17.861  0.00  0.00    +0.000 A 
ATOM      4  C   UNL     1       5.059   4.005  17.181  0.00  0.00    +0.000 A 
ATOM      5  C   UNL     1       4.231   3.176  18.053  0.00  0.00    +0.000 A 
ATOM      6  C   UNL     1       5.341   3.881  15.702  0.00  0.00    +0.000 C 
ATOM      7  C   UNL     1       6.380   4.920  15.209  0.00  0.00    +0.000 C 
ATOM      8  N   UNL     1       6.261   6.268  15.797  0.00  0.00    +0.000 NA
ATOM      9  C   UNL     1       5.006   6.928  15.434  0.00  0.00    +0.000 C 
ATOM     10  C   UNL     1       6.418   6.187  17.265  0.00  0.00    +0.000 C 
ENDROOT
BRANCH   1  14
ATOM     11  C   UNL     1       1.422   3.157  21.762  0.00  0.00    +0.000 C 
ATOM     12  C   UNL     1       2.052   3.620  20.478  0.00  0.00    +0.000 C 
ATOM     13  O   UNL     1       1.365   4.125  19.594  0.00  0.00    +0.000 OA
ATOM     14  N   UNL     1       3.425   3.386  20.427  0.00  0.00    +0.000 N 
ATOM     15  H   UNL     1       3.746   2.532  20.880  0.00  0.00    +0.000 HD
ENDBRANCH   1  14
BRANCH   5  16
ATOM     16  C   UNL     1       3.480   1.948  17.756  0.00  0.00    +0.000 C 
ATOM     17  N   UNL     1       4.005   0.753  18.139  0.00  0.00    +0.000 N 
ATOM     18  O   UNL     1       2.390   1.969  17.172  0.00  0.00    +0.000 OA
ATOM     19  H   UNL     1       4.930   0.634  18.510  0.00  0.00    +0.000 HD
ATOM     20  H   UNL     1       3.490  -0.075  17.881  0.00  0.00    +0.000 HD
ENDBRANCH   5  16
TORSDOF 2
ENDMDL
MODEL 5
REMARK VINA RESULT:      -6.1      2.764      5.528
REMARK  Name = 
REMARK  4 active torsions:
REMARK  status: ('A' for Active; 'I' for Inactive)
REMARK    1  A    between atoms: C_1  and  C_2
REMARK    2  A    between atoms: N_4  and  C_5
REMARK    3  A    between atoms: C_9  and  C_10
REMARK    4  A    between atoms: N_15  and  C_16
REMARK                            x       y       z     vdW  Elec       q    Type
REMARK                         _______ _______ _______ _____ _____    ______ ____
ROOT
ATOM      1  C   UNL     1       2.746   4.155  18.645  0.00  0.00    +0.000 A 
ATOM      2  S   UNL     1       3.424   2.932  17.680  0.00  0.00    +0.000 S 
ATOM      3  C   UNL     1       4.389   4.045  16.867  0.00  0.00    +0.000 A 
ATOM      4  C   UNL     1       4.123   5.362  17.213  0.00  0.00    +0.000 A 
ATOM      5  C   UNL     1       3.100   5.443  18.253  0.00  0.00    +0.000 A 
ATOM      6  C   UNL     1       4.941   6.454  16.566  0.00  0.00    +0.000 C 
ATOM      7  C   UNL     1       5.832   5.922  15.414  0.00  0.00    +0.000 C 
ATOM      8  N   UNL     1       6.464   4.610  15.652  0.00  0.00    +0.000 NA
ATOM      9  C   UNL     1       7.422   4.643  16.760  0.00  0.00    +0.000 C 
ATOM     10  C   UNL     1       5.421   3.588  15.877  0.00  0.00    +0.000 C 
ENDROOT
BRANCH   1  14
ATOM     11  C   UNL     1       1.260   2.623  21.690  0.00  0.00    +0.000 C 
ATOM     12  C   UNL     1       2.340   3.009  20.717  0.00  0.00    +0.000 C 
ATOM     13  O   UNL     1       3.509   2.696  20.928  0.00  0.00    +0.000 OA
ATOM     14  N   UNL     1       1.862   3.743  19.634  0.00  0.00    +0.000 N 
ATOM     15  H   UNL     1       1.097   4.385  19.836  0.00  0.00    +0.000 HD
ENDBRANCH   1  14
BRANCH   5  16
ATOM     16  C   UNL     1       2.531   6.617  18.928  0.00  0.00    +0.000 C 
ATOM     17  N   UNL     1       2.317   7.748  18.202  0.00  0.00    +0.000 N 
ATOM     18  O   UNL     1       2.239   6.609  20.130  0.00  0.00    +0.000 OA
ATOM     19  H   UNL     1       2.630   7.882  17.257  0.00  0.00    +0.000 HD
ATOM     20  H   UNL     1       1.969   8.552  18.701  0.00  0.00    +0.000 HD
ENDBRANCH   5  16
TORSDOF 2
ENDMDL
MODEL 6
REMARK VINA RESULT:      -6.0      2.110      3.373
REMARK  Name = 
REMARK  4 active torsions:
REMARK  status: ('A' for Active; 'I' for Inactive)
REMARK    1  A    between atoms: C_1  and  C_2
REMARK    2  A    between atoms: N_4  and  C_5
REMARK    3  A    between atoms: C_9  and  C_10
REMARK    4  A    between atoms: N_15  and  C_16
REMARK                            x       y       z     vdW  Elec       q    Type
REMARK                         _______ _______ _______ _____ _____    ______ ____
ROOT
ATOM      1  C   UNL     1       4.565   4.459  16.903  0.00  0.00    +0.000 A 
ATOM      2  S   UNL     1       4.365   2.874  17.479  0.00  0.00    +0.000 S 
ATOM      3  C   UNL     1       3.538   3.423  18.837  0.00  0.00    +0.000 A 
ATOM      4  C   UNL     1       3.514   4.805  18.947  0.00  0.00    +0.000 A 
ATOM      5  C   UNL     1       4.172   5.441  17.808  0.00  0.00    +0.000 A 
ATOM      6  C   UNL     1       2.781   5.421  20.115  0.00  0.00    +0.000 C 
ATOM      7  C   UNL     1       2.340   4.364  21.160  0.00  0.00    +0.000 C 
ATOM      8  N   UNL     1       1.847   3.088  20.607  0.00  0.00    +0.000 NA
ATOM      9  C   UNL     1       0.615   3.252  19.833  0.00  0.00    +0.000 C 
ATOM     10  C   UNL     1       2.908   2.453  19.796  0.00  0.00    +0.000 C 
ENDROOT
BRANCH   1  14
ATOM     11  C   UNL     1       7.064   4.793  14.169  0.00  0.00    +0.000 C 
ATOM     12  C   UNL     1       6.562   4.624  15.576  0.00  0.00    +0.000 C 
ATOM     13  O   UNL     1       7.352   4.507  16.509  0.00  0.00    +0.000 OA
ATOM     14  N   UNL     1       5.172   4.594  15.660  0.00  0.00    +0.000 N 
ATOM     15  H   UNL     1       4.690   4.143  14.883  0.00  0.00    +0.000 HD
ENDBRANCH   1  14
BRANCH   5  16
ATOM     16  C   UNL     1       4.359   6.866  17.500  0.00  0.00    +0.000 C 
ATOM     17  N   UNL     1       3.284   7.696  17.569  0.00  0.00    +0.000 N 
ATOM     18  O   UNL     1       5.461   7.331  17.184  0.00  0.00    +0.000 OA
ATOM     19  H   UNL     1       2.338   7.387  17.702  0.00  0.00    +0.000 HD
ATOM     20  H   UNL     1       3.433   8.658  17.308  0.00  0.00    +0.000 HD
ENDBRANCH   5  16
TORSDOF 2
ENDMDL
MODEL 7
REMARK VINA RESULT:      -6.0      2.708      5.568
REMARK  Name = 
REMARK  4 active torsions:
REMARK  status: ('A' for Active; 'I' for Inactive)
REMARK    1  A    between atoms: C_1  and  C_2
REMARK    2  A    between atoms: N_4  and  C_5
REMARK    3  A    between atoms: C_9  and  C_10
REMARK    4  A    between atoms: N_15  and  C_16
REMARK                            x       y       z     vdW  Elec       q    Type
REMARK                         _______ _______ _______ _____ _____    ______ ____
ROOT
ATOM      1  C   UNL     1       2.886   4.631  17.933  0.00  0.00    +0.000 A 
ATOM      2  S   UNL     1       3.772   3.487  17.043  0.00  0.00    +0.000 S 
ATOM      3  C   UNL     1       5.056   4.558  16.857  0.00  0.00    +0.000 A 
ATOM      4  C   UNL     1       4.789   5.829  17.344  0.00  0.00    +0.000 A 
ATOM      5  C   UNL     1       3.464   5.897  17.955  0.00  0.00    +0.000 A 
ATOM      6  C   UNL     1       5.874   6.876  17.255  0.00  0.00    +0.000 C 
ATOM      7  C   UNL     1       7.082   6.404  16.406  0.00  0.00    +0.000 C 
ATOM      8  N   UNL     1       7.472   4.992  16.582  0.00  0.00    +0.000 NA
ATOM      9  C   UNL     1       7.950   4.709  17.937  0.00  0.00    +0.000 C 
ATOM     10  C   UNL     1       6.341   4.113  16.220  0.00  0.00    +0.000 C 
ENDROOT
BRANCH   1  14
ATOM     11  C   UNL     1       0.248   3.143  20.091  0.00  0.00    +0.000 C 
ATOM     12  C   UNL     1       1.634   3.558  19.681  0.00  0.00    +0.000 C 
ATOM     13  O   UNL     1       2.593   3.338  20.416  0.00  0.00    +0.000 OA
ATOM     14  N   UNL     1       1.668   4.205  18.448  0.00  0.00    +0.000 N 
ATOM     15  H   UNL     1       0.868   4.801  18.237  0.00  0.00    +0.000 HD
ENDBRANCH   1  14
BRANCH   5  16
ATOM     16  C   UNL     1       2.782   7.023  18.609  0.00  0.00    +0.000 C 
ATOM     17  N   UNL     1       2.535   8.147  17.883  0.00  0.00    +0.000 N 
ATOM     18  O   UNL     1       2.425   6.979  19.792  0.00  0.00    +0.000 OA
ATOM     19  H   UNL     1       2.890   8.314  16.959  0.00  0.00    +0.000 HD
ATOM     20  H   UNL     1       2.108   8.920  18.370  0.00  0.00    +0.000 HD
ENDBRANCH   5  16
TORSDOF 2
ENDMDL
MODEL 8
REMARK VINA RESULT:      -5.9      2.163      3.576
REMARK  Name = 
REMARK  4 active torsions:
REMARK  status: ('A' for Active; 'I' for Inactive)
REMARK    1  A    between atoms: C_1  and  C_2
REMARK    2  A    between atoms: N_4  and  C_5
REMARK    3  A    between atoms: C_9  and  C_10
REMARK    4  A    between atoms: N_15  and  C_16
REMARK                            x       y       z     vdW  Elec       q    Type
REMARK                         _______ _______ _______ _____ _____    ______ ____
ROOT
ATOM      1  C   UNL     1       6.675   5.154  16.044  0.00  0.00    +0.000 A 
ATOM      2  S   UNL     1       5.702   3.789  15.772  0.00  0.00    +0.000 S 
ATOM      3  C   UNL     1       4.907   4.006  17.239  0.00  0.00    +0.000 A 
ATOM      4  C   UNL     1       5.446   5.023  18.012  0.00  0.00    +0.000 A 
ATOM      5  C   UNL     1       6.544   5.693  17.321  0.00  0.00    +0.000 A 
ATOM      6  C   UNL     1       4.804   5.330  19.345  0.00  0.00    +0.000 C 
ATOM      7  C   UNL     1       3.740   4.277  19.745  0.00  0.00    +0.000 C 
ATOM      8  N   UNL     1       2.889   3.781  18.645  0.00  0.00    +0.000 NA
ATOM      9  C   UNL     1       2.046   4.833  18.073  0.00  0.00    +0.000 C 
ATOM     10  C   UNL     1       3.731   3.148  17.610  0.00  0.00    +0.000 C 
ENDROOT
BRANCH   1  14
ATOM     11  C   UNL     1       8.342   5.488  12.737  0.00  0.00    +0.000 C 
ATOM     12  C   UNL     1       7.312   5.028  13.731  0.00  0.00    +0.000 C 
ATOM     13  O   UNL     1       6.377   4.316  13.374  0.00  0.00    +0.000 OA
ATOM     14  N   UNL     1       7.539   5.512  15.017  0.00  0.00    +0.000 N 
ATOM     15  H   UNL     1       7.928   6.452  15.075  0.00  0.00    +0.000 HD
ENDBRANCH   1  14
BRANCH   5  16
ATOM     16  C   UNL     1       7.380   6.824  17.748  0.00  0.00    +0.000 C 
ATOM     17  N   UNL     1       8.114   6.700  18.886  0.00  0.00    +0.000 N 
ATOM     18  O   UNL     1       7.437   7.880  17.106  0.00  0.00    +0.000 OA
ATOM     19  H   UNL     1       8.040   5.930  19.527  0.00  0.00    +0.000 HD
ATOM     20  H   UNL     1       8.642   7.508  19.179  0.00  0.00    +0.000 HD
ENDBRANCH   5  16
TORSDOF 2
ENDMDL
MODEL 9
REMARK VINA RESULT:      -5.9      2.880      5.610
REMARK  Name = 
REMARK  4 active torsions:
REMARK  status: ('A' for Active; 'I' for Inactive)
REMARK    1  A    between atoms: C_1  and  C_2
REMARK    2  A    between atoms: N_4  and  C_5
REMARK    3  A    between atoms: C_9  and  C_10
REMARK    4  A    between atoms: N_15  and  C_16
REMARK                            x       y       z     vdW  Elec       q    Type
REMARK                         _______ _______ _______ _____ _____    ______ ____
ROOT
ATOM      1  C   UNL     1       3.783   4.300  19.367  0.00  0.00    +0.000 A 
ATOM      2  S   UNL     1       5.397   3.791  19.522  0.00  0.00    +0.000 S 
ATOM      3  C   UNL     1       5.822   4.549  18.082  0.00  0.00    +0.000 A 
ATOM      4  C   UNL     1       4.739   5.080  17.398  0.00  0.00    +0.000 A 
ATOM      5  C   UNL     1       3.496   4.896  18.142  0.00  0.00    +0.000 A 
ATOM      6  C   UNL     1       4.995   5.807  16.098  0.00  0.00    +0.000 C 
ATOM      7  C   UNL     1       6.458   5.648  15.611  0.00  0.00    +0.000 C 
ATOM      8  N   UNL     1       7.490   5.695  16.665  0.00  0.00    +0.000 NA
ATOM      9  C   UNL     1       7.552   7.000  17.328  0.00  0.00    +0.000 C 
ATOM     10  C   UNL     1       7.256   4.610  17.640  0.00  0.00    +0.000 C 
ENDROOT
BRANCH   1  14
ATOM     11  C   UNL     1       1.323   2.608  21.584  0.00  0.00    +0.000 C 
ATOM     12  C   UNL     1       2.211   2.794  20.386  0.00  0.00    +0.000 C 
ATOM     13  O   UNL     1       2.266   1.933  19.512  0.00  0.00    +0.000 OA
ATOM     14  N   UNL     1       2.932   3.986  20.419  0.00  0.00    +0.000 N 
ATOM     15  H   UNL     1       3.240   4.293  21.341  0.00  0.00    +0.000 HD
ENDBRANCH   1  14
BRANCH   5  16
ATOM     16  C   UNL     1       2.126   5.313  17.813  0.00  0.00    +0.000 C 
ATOM     17  N   UNL     1       1.809   6.634  17.891  0.00  0.00    +0.000 N 
ATOM     18  O   UNL     1       1.256   4.505  17.466  0.00  0.00    +0.000 OA
ATOM     19  H   UNL     1       2.414   7.339  18.272  0.00  0.00    +0.000 HD
ATOM     20  H   UNL     1       0.851   6.885  17.704  0.00  0.00    +0.000 HD
ENDBRANCH   5  16
TORSDOF 2
ENDMDL
