MODEL 1
REMARK VINA RESULT:      -8.2      0.000      0.000
REMARK  Name = 
REMARK  7 active torsions:
REMARK  status: ('A' for Active; 'I' for Inactive)
REMARK    1  A    between atoms: C_1  and  C_2
REMARK    2  A    between atoms: C_2  and  C_4
REMARK    3  A    between atoms: C_8  and  S_9
REMARK    4  A    between atoms: S_9  and  N_12
REMARK    5  A    between atoms: C_16  and  C_17
REMARK    6  A    between atoms: N_19  and  C_20
REMARK    7  A    between atoms: C_20  and  C_21
REMARK                            x       y       z     vdW  Elec       q    Type
REMARK                         _______ _______ _______ _____ _____    ______ ____
ROOT
ATOM      1  N   UNL     1       2.981   3.345  19.379  0.00  0.00    +0.000 NA
ATOM      2  C   UNL     1       2.908   2.375  20.460  0.00  0.00    +0.000 C 
ATOM      3  S   UNL     1       1.540   2.904  21.511  0.00  0.00    +0.000 S 
ATOM      4  C   UNL     1       1.360   4.525  20.714  0.00  0.00    +0.000 C 
ATOM      5  C   UNL     1       2.578   4.692  19.797  0.00  0.00    +0.000 C 
ENDROOT
BRANCH   5   6
ATOM      6  C   UNL     1       2.273   5.724  18.718  0.00  0.00    +0.000 C 
ATOM      7  O   UNL     1       1.455   5.542  17.819  0.00  0.00    +0.000 OA
ATOM      8  N   UNL     1       3.006   6.895  18.829  0.00  0.00    +0.000 N 
ATOM      9  H   UNL     1       3.938   6.777  19.209  0.00  0.00    +0.000 HD
BRANCH   8  10
ATOM     10  C   UNL     1       2.870   7.924  17.794  0.00  0.00    +0.000 C 
BRANCH  10  11
ATOM     11  C   UNL     1       1.903   9.084  18.089  0.00  0.00    +0.000 C 
ATOM     12  F   UNL     1       1.579   9.181  19.397  0.00  0.00    +0.000 F 
ATOM     13  F   UNL     1       2.479  10.264  17.744  0.00  0.00    +0.000 F 
ATOM     14  F   UNL     1       0.762   8.977  17.376  0.00  0.00    +0.000 F 
ENDBRANCH  10  11
ENDBRANCH   8  10
ENDBRANCH   5   6
BRANCH   1  15
ATOM     15  S   UNL     1       3.425   2.843  17.867  0.00  0.00    +0.000 S 
ATOM     16  O   UNL     1       2.379   3.296  16.971  0.00  0.00    +0.000 OA
ATOM     17  O   UNL     1       3.814   1.452  17.887  0.00  0.00    +0.000 OA
BRANCH  15  22
ATOM     18  C   UNL     1       6.396   4.639  15.793  0.00  0.00    +0.000 A 
ATOM     19  C   UNL     1       7.186   5.188  16.812  0.00  0.00    +0.000 A 
ATOM     20  C   UNL     1       6.820   5.044  18.155  0.00  0.00    +0.000 A 
ATOM     21  C   UNL     1       5.672   4.332  18.496  0.00  0.00    +0.000 A 
ATOM     22  C   UNL     1       4.878   3.793  17.482  0.00  0.00    +0.000 A 
ATOM     23  C   UNL     1       5.218   3.967  16.132  0.00  0.00    +0.000 A 
BRANCH  18  25
ATOM     24  C   UNL     1       6.227   3.870  13.329  0.00  0.00    +0.000 C 
ATOM     25  C   UNL     1       6.865   4.744  14.378  0.00  0.00    +0.000 C 
ATOM     26  O   UNL     1       7.770   5.525  14.094  0.00  0.00    +0.000 OA
ENDBRANCH  18  25
ENDBRANCH  15  22
ENDBRANCH   1  15
TORSDOF 6
ENDMDL
MODEL 2
REMARK VINA RESULT:      -8.1      1.339      2.203
REMARK  Name = 
REMARK  7 active torsions:
REMARK  status: ('A' for Active; 'I' for Inactive)
REMARK    1  A    between atoms: C_1  and  C_2
REMARK    2  A    between atoms: C_2  and  C_4
REMARK    3  A    between atoms: C_8  and  S_9
REMARK    4  A    between atoms: S_9  and  N_12
REMARK    5  A    between atoms: C_16  and  C_17
REMARK    6  A    between atoms: N_19  and  C_20
REMARK    7  A    between atoms: C_20  and  C_21
REMARK                            x       y       z     vdW  Elec       q    Type
REMARK                         _______ _______ _______ _____ _____    ______ ____
ROOT
ATOM      1  N   UNL     1       3.125   3.362  19.356  0.00  0.00    +0.000 NA
ATOM      2  C   UNL     1       3.128   2.403  20.450  0.00  0.00    +0.000 C 
ATOM      3  S   UNL     1       1.823   2.932  21.580  0.00  0.00    +0.000 S 
ATOM      4  C   UNL     1       1.579   4.543  20.777  0.00  0.00    +0.000 C 
ATOM      5  C   UNL     1       2.736   4.710  19.784  0.00  0.00    +0.000 C 
ENDROOT
BRANCH   5   6
ATOM      6  C   UNL     1       2.355   5.727  18.716  0.00  0.00    +0.000 C 
ATOM      7  O   UNL     1       1.477   5.531  17.877  0.00  0.00    +0.000 OA
ATOM      8  N   UNL     1       3.089   6.901  18.761  0.00  0.00    +0.000 N 
ATOM      9  H   UNL     1       4.046   6.790  19.078  0.00  0.00    +0.000 HD
BRANCH   8  10
ATOM     10  C   UNL     1       2.880   7.916  17.725  0.00  0.00    +0.000 C 
BRANCH  10  11
ATOM     11  C   UNL     1       1.890   9.048  18.049  0.00  0.00    +0.000 C 
ATOM     12  F   UNL     1       1.594   9.129  19.366  0.00  0.00    +0.000 F 
ATOM     13  F   UNL     1       2.427  10.245  17.698  0.00  0.00    +0.000 F 
ATOM     14  F   UNL     1       0.736   8.915  17.362  0.00  0.00    +0.000 F 
ENDBRANCH  10  11
ENDBRANCH   8  10
ENDBRANCH   5   6
BRANCH   1  15
ATOM     15  S   UNL     1       3.477   2.846  17.825  0.00  0.00    +0.000 S 
ATOM     16  O   UNL     1       2.295   3.114  17.030  0.00  0.00    +0.000 OA
ATOM     17  O   UNL     1       4.050   1.521  17.854  0.00  0.00    +0.000 OA
BRANCH  15  22
ATOM     18  C   UNL     1       6.661   5.338  17.784  0.00  0.00    +0.000 A 
ATOM     19  C   UNL     1       6.692   5.768  16.450  0.00  0.00    +0.000 A 
ATOM     20  C   UNL     1       5.757   5.290  15.525  0.00  0.00    +0.000 A 
ATOM     21  C   UNL     1       4.767   4.394  15.927  0.00  0.00    +0.000 A 
ATOM     22  C   UNL     1       4.742   3.957  17.253  0.00  0.00    +0.000 A 
ATOM     23  C   UNL     1       5.700   4.403  18.176  0.00  0.00    +0.000 A 
BRANCH  18  25
ATOM     24  C   UNL     1       8.172   7.315  18.492  0.00  0.00    +0.000 C 
ATOM     25  C   UNL     1       7.625   5.935  18.757  0.00  0.00    +0.000 C 
ATOM     26  O   UNL     1       7.971   5.292  19.744  0.00  0.00    +0.000 OA
ENDBRANCH  18  25
ENDBRANCH  15  22
ENDBRANCH   1  15
TORSDOF 6
ENDMDL
MODEL 3
REMARK VINA RESULT:      -8.0      3.292      4.625
REMARK  Name = 
REMARK  7 active torsions:
REMARK  status: ('A' for Active; 'I' for Inactive)
REMARK    1  A    between atoms: C_1  and  C_2
REMARK    2  A    between atoms: C_2  and  C_4
REMARK    3  A    between atoms: C_8  and  S_9
REMARK    4  A    between atoms: S_9  and  N_12
REMARK    5  A    between atoms: C_16  and  C_17
REMARK    6  A    between atoms: N_19  and  C_20
REMARK    7  A    between atoms: C_20  and  C_21
REMARK                            x       y       z     vdW  Elec       q    Type
REMARK                         _______ _______ _______ _____ _____    ______ ____
ROOT
ATOM      1  N   UNL     1       4.198   5.354  16.986  0.00  0.00    +0.000 NA
ATOM      2  C   UNL     1       4.540   6.714  16.601  0.00  0.00    +0.000 C 
ATOM      3  S   UNL     1       3.603   7.794  17.703  0.00  0.00    +0.000 S 
ATOM      4  C   UNL     1       2.557   6.462  18.359  0.00  0.00    +0.000 C 
ATOM      5  C   UNL     1       2.822   5.234  17.480  0.00  0.00    +0.000 C 
ENDROOT
BRANCH   5   6
ATOM      6  C   UNL     1       2.431   3.968  18.233  0.00  0.00    +0.000 C 
ATOM      7  O   UNL     1       1.538   3.208  17.862  0.00  0.00    +0.000 OA
ATOM      8  N   UNL     1       3.165   3.743  19.386  0.00  0.00    +0.000 N 
ATOM      9  H   UNL     1       3.463   4.583  19.869  0.00  0.00    +0.000 HD
BRANCH   8  10
ATOM     10  C   UNL     1       2.816   2.609  20.246  0.00  0.00    +0.000 C 
BRANCH  10  11
ATOM     11  C   UNL     1       1.900   2.901  21.447  0.00  0.00    +0.000 C 
ATOM     12  F   UNL     1       2.361   3.901  22.231  0.00  0.00    +0.000 F 
ATOM     13  F   UNL     1       0.674   3.286  21.009  0.00  0.00    +0.000 F 
ATOM     14  F   UNL     1       1.721   1.807  22.217  0.00  0.00    +0.000 F 
ENDBRANCH  10  11
ENDBRANCH   8  10
ENDBRANCH   5   6
BRANCH   1  15
ATOM     15  S   UNL     1       5.348   4.170  16.891  0.00  0.00    +0.000 S 
ATOM     16  O   UNL     1       4.636   2.911  16.975  0.00  0.00    +0.000 OA
ATOM     17  O   UNL     1       6.441   4.449  17.794  0.00  0.00    +0.000 OA
BRANCH  15  22
ATOM     18  C   UNL     1       5.813   3.629  12.911  0.00  0.00    +0.000 A 
ATOM     19  C   UNL     1       6.979   4.359  12.640  0.00  0.00    +0.000 A 
ATOM     20  C   UNL     1       7.639   5.052  13.661  0.00  0.00    +0.000 A 
ATOM     21  C   UNL     1       7.153   5.007  14.967  0.00  0.00    +0.000 A 
ATOM     22  C   UNL     1       5.986   4.290  15.235  0.00  0.00    +0.000 A 
ATOM     23  C   UNL     1       5.298   3.624  14.210  0.00  0.00    +0.000 A 
BRANCH  18  25
ATOM     24  C   UNL     1       3.913   3.340  11.179  0.00  0.00    +0.000 C 
ATOM     25  C   UNL     1       5.186   2.836  11.811  0.00  0.00    +0.000 C 
ATOM     26  O   UNL     1       5.703   1.782  11.448  0.00  0.00    +0.000 OA
ENDBRANCH  18  25
ENDBRANCH  15  22
ENDBRANCH   1  15
TORSDOF 6
ENDMDL
MODEL 4
REMARK VINA RESULT:      -8.0      1.181      1.372
REMARK  Name = 
REMARK  7 active torsions:
REMARK  status: ('A' for Active; 'I' for Inactive)
REMARK    1  A    between atoms: C_1  and  C_2
REMARK    2  A    between atoms: C_2  and  C_4
REMARK    3  A    between atoms: C_8  and  S_9
REMARK    4  A    between atoms: S_9  and  N_12
REMARK    5  A    between atoms: C_16  and  C_17
REMARK    6  A    between atoms: N_19  and  C_20
REMARK    7  A    between atoms: C_20  and  C_21
REMARK                            x       y       z     vdW  Elec       q    Type
REMARK                         _______ _______ _______ _____ _____    ______ ____
ROOT
ATOM      1  N   UNL     1       3.159   3.803  19.497  0.00  0.00    +0.000 NA
ATOM      2  C   UNL     1       3.662   2.499  19.902  0.00  0.00    +0.000 C 
ATOM      3  S   UNL     1       2.794   2.083  21.428  0.00  0.00    +0.000 S 
ATOM      4  C   UNL     1       2.096   3.744  21.658  0.00  0.00    +0.000 C 
ATOM      5  C   UNL     1       2.796   4.650  20.638  0.00  0.00    +0.000 C 
ENDROOT
BRANCH   5   6
ATOM      6  C   UNL     1       1.945   5.887  20.379  0.00  0.00    +0.000 C 
ATOM      7  O   UNL     1       0.725   5.913  20.531  0.00  0.00    +0.000 OA
ATOM      8  N   UNL     1       2.663   6.991  19.948  0.00  0.00    +0.000 N 
ATOM      9  H   UNL     1       3.476   6.773  19.383  0.00  0.00    +0.000 HD
BRANCH   8  10
ATOM     10  C   UNL     1       1.942   8.211  19.574  0.00  0.00    +0.000 C 
BRANCH  10  11
ATOM     11  C   UNL     1       2.107   8.702  18.126  0.00  0.00    +0.000 C 
ATOM     12  F   UNL     1       2.321  10.034  18.041  0.00  0.00    +0.000 F 
ATOM     13  F   UNL     1       3.181   8.100  17.553  0.00  0.00    +0.000 F 
ATOM     14  F   UNL     1       1.032   8.397  17.369  0.00  0.00    +0.000 F 
ENDBRANCH  10  11
ENDBRANCH   8  10
ENDBRANCH   5   6
BRANCH   1  15
ATOM     15  S   UNL     1       2.999   4.147  17.887  0.00  0.00    +0.000 S 
ATOM     16  O   UNL     1       2.014   5.206  17.799  0.00  0.00    +0.000 OA
ATOM     17  O   UNL     1       2.833   2.933  17.122  0.00  0.00    +0.000 OA
BRANCH  15  22
ATOM     18  C   UNL     1       6.266   5.140  15.722  0.00  0.00    +0.000 A 
ATOM     19  C   UNL     1       7.034   5.862  16.646  0.00  0.00    +0.000 A 
ATOM     20  C   UNL     1       6.564   6.083  17.945  0.00  0.00    +0.000 A 
ATOM     21  C   UNL     1       5.331   5.567  18.342  0.00  0.00    +0.000 A 
ATOM     22  C   UNL     1       4.560   4.858  17.419  0.00  0.00    +0.000 A 
ATOM     23  C   UNL     1       5.009   4.666  16.103  0.00  0.00    +0.000 A 
BRANCH  18  25
ATOM     24  C   UNL     1       6.171   3.832  13.492  0.00  0.00    +0.000 C 
ATOM     25  C   UNL     1       6.841   4.857  14.372  0.00  0.00    +0.000 C 
ATOM     26  O   UNL     1       7.853   5.447  14.005  0.00  0.00    +0.000 OA
ENDBRANCH  18  25
ENDBRANCH  15  22
ENDBRANCH   1  15
TORSDOF 6
ENDMDL
MODEL 5
REMARK VINA RESULT:      -7.8      1.669      2.434
REMARK  Name = 
REMARK  7 active torsions:
REMARK  status: ('A' for Active; 'I' for Inactive)
REMARK    1  A    between atoms: C_1  and  C_2
REMARK    2  A    between atoms: C_2  and  C_4
REMARK    3  A    between atoms: C_8  and  S_9
REMARK    4  A    between atoms: S_9  and  N_12
REMARK    5  A    between atoms: C_16  and  C_17
REMARK    6  A    between atoms: N_19  and  C_20
REMARK    7  A    between atoms: C_20  and  C_21
REMARK                            x       y       z     vdW  Elec       q    Type
REMARK                         _______ _______ _______ _____ _____    ______ ____
ROOT
ATOM      1  N   UNL     1       3.127   3.735  19.394  0.00  0.00    +0.000 NA
ATOM      2  C   UNL     1       3.655   2.438  19.785  0.00  0.00    +0.000 C 
ATOM      3  S   UNL     1       2.886   2.044  21.370  0.00  0.00    +0.000 S 
ATOM      4  C   UNL     1       2.204   3.708  21.619  0.00  0.00    +0.000 C 
ATOM      5  C   UNL     1       2.837   4.599  20.543  0.00  0.00    +0.000 C 
ENDROOT
BRANCH   5   6
ATOM      6  C   UNL     1       1.970   5.833  20.321  0.00  0.00    +0.000 C 
ATOM      7  O   UNL     1       0.750   5.839  20.477  0.00  0.00    +0.000 OA
ATOM      8  N   UNL     1       2.673   6.956  19.918  0.00  0.00    +0.000 N 
ATOM      9  H   UNL     1       3.487   6.764  19.346  0.00  0.00    +0.000 HD
BRANCH   8  10
ATOM     10  C   UNL     1       1.937   8.178  19.581  0.00  0.00    +0.000 C 
BRANCH  10  11
ATOM     11  C   UNL     1       2.117   8.728  18.155  0.00  0.00    +0.000 C 
ATOM     12  F   UNL     1       2.267  10.071  18.123  0.00  0.00    +0.000 F 
ATOM     13  F   UNL     1       3.234   8.200  17.593  0.00  0.00    +0.000 F 
ATOM     14  F   UNL     1       1.078   8.399  17.358  0.00  0.00    +0.000 F 
ENDBRANCH  10  11
ENDBRANCH   8  10
ENDBRANCH   5   6
BRANCH   1  15
ATOM     15  S   UNL     1       2.864   4.055  17.792  0.00  0.00    +0.000 S 
ATOM     16  O   UNL     1       2.098   5.285  17.749  0.00  0.00    +0.000 OA
ATOM     17  O   UNL     1       2.386   2.875  17.110  0.00  0.00    +0.000 OA
BRANCH  15  22
ATOM     18  C   UNL     1       6.580   5.600  17.395  0.00  0.00    +0.000 A 
ATOM     19  C   UNL     1       6.969   5.132  16.133  0.00  0.00    +0.000 A 
ATOM     20  C   UNL     1       6.117   4.316  15.381  0.00  0.00    +0.000 A 
ATOM     21  C   UNL     1       4.858   3.974  15.874  0.00  0.00    +0.000 A 
ATOM     22  C   UNL     1       4.474   4.430  17.136  0.00  0.00    +0.000 A 
ATOM     23  C   UNL     1       5.339   5.218  17.911  0.00  0.00    +0.000 A 
BRANCH  18  25
ATOM     24  C   UNL     1       7.691   7.928  17.588  0.00  0.00    +0.000 C 
ATOM     25  C   UNL     1       7.485   6.536  18.129  0.00  0.00    +0.000 C 
ATOM     26  O   UNL     1       8.058   6.156  19.147  0.00  0.00    +0.000 OA
ENDBRANCH  18  25
ENDBRANCH  15  22
ENDBRANCH   1  15
TORSDOF 6
ENDMDL
MODEL 6
REMARK VINA RESULT:      -7.8      4.003      6.427
REMARK  Name = 
REMARK  7 active torsions:
REMARK  status: ('A' for Active; 'I' for Inactive)
REMARK    1  A    between atoms: C_1  and  C_2
REMARK    2  A    between atoms: C_2  and  C_4
REMARK    3  A    between atoms: C_8  and  S_9
REMARK    4  A    between atoms: S_9  and  N_12
REMARK    5  A    between atoms: C_16  and  C_17
REMARK    6  A    between atoms: N_19  and  C_20
REMARK    7  A    between atoms: C_20  and  C_21
REMARK                            x       y       z     vdW  Elec       q    Type
REMARK                         _______ _______ _______ _____ _____    ______ ____
ROOT
ATOM      1  N   UNL     1       5.856   4.422  17.933  0.00  0.00    +0.000 NA
ATOM      2  C   UNL     1       6.470   4.743  19.211  0.00  0.00    +0.000 C 
ATOM      3  S   UNL     1       7.486   6.207  18.922  0.00  0.00    +0.000 S 
ATOM      4  C   UNL     1       7.353   6.123  17.113  0.00  0.00    +0.000 C 
ATOM      5  C   UNL     1       6.709   4.768  16.791  0.00  0.00    +0.000 C 
ENDROOT
BRANCH   5   6
ATOM      6  C   UNL     1       6.079   4.814  15.404  0.00  0.00    +0.000 C 
ATOM      7  O   UNL     1       5.531   5.814  14.943  0.00  0.00    +0.000 OA
ATOM      8  N   UNL     1       6.168   3.624  14.700  0.00  0.00    +0.000 N 
ATOM      9  H   UNL     1       6.139   2.789  15.273  0.00  0.00    +0.000 HD
BRANCH   8  10
ATOM     10  C   UNL     1       5.514   3.517  13.392  0.00  0.00    +0.000 C 
BRANCH  10  11
ATOM     11  C   UNL     1       6.412   3.654  12.151  0.00  0.00    +0.000 C 
ATOM     12  F   UNL     1       7.025   2.497  11.813  0.00  0.00    +0.000 F 
ATOM     13  F   UNL     1       5.666   4.025  11.079  0.00  0.00    +0.000 F 
ATOM     14  F   UNL     1       7.360   4.600  12.321  0.00  0.00    +0.000 F 
ENDBRANCH  10  11
ENDBRANCH   8  10
ENDBRANCH   5   6
BRANCH   1  15
ATOM     15  S   UNL     1       4.325   3.796  17.902  0.00  0.00    +0.000 S 
ATOM     16  O   UNL     1       4.363   2.602  18.722  0.00  0.00    +0.000 OA
ATOM     17  O   UNL     1       3.829   3.734  16.548  0.00  0.00    +0.000 OA
BRANCH  15  22
ATOM     18  C   UNL     1       2.331   7.192  18.822  0.00  0.00    +0.000 A 
ATOM     19  C   UNL     1       1.865   6.928  20.117  0.00  0.00    +0.000 A 
ATOM     20  C   UNL     1       2.128   5.700  20.733  0.00  0.00    +0.000 A 
ATOM     21  C   UNL     1       2.878   4.729  20.069  0.00  0.00    +0.000 A 
ATOM     22  C   UNL     1       3.333   4.986  18.775  0.00  0.00    +0.000 A 
ATOM     23  C   UNL     1       3.040   6.201  18.138  0.00  0.00    +0.000 A 
BRANCH  18  25
ATOM     24  C   UNL     1       1.218   9.523  18.970  0.00  0.00    +0.000 C 
ATOM     25  C   UNL     1       2.100   8.546  18.233  0.00  0.00    +0.000 C 
ATOM     26  O   UNL     1       2.613   8.838  17.156  0.00  0.00    +0.000 OA
ENDBRANCH  18  25
ENDBRANCH  15  22
ENDBRANCH   1  15
TORSDOF 6
ENDMDL
MODEL 7
REMARK VINA RESULT:      -7.7      0.945      1.191
REMARK  Name = 
REMARK  7 active torsions:
REMARK  status: ('A' for Active; 'I' for Inactive)
REMARK    1  A    between atoms: C_1  and  C_2
REMARK    2  A    between atoms: C_2  and  C_4
REMARK    3  A    between atoms: C_8  and  S_9
REMARK    4  A    between atoms: S_9  and  N_12
REMARK    5  A    between atoms: C_16  and  C_17
REMARK    6  A    between atoms: N_19  and  C_20
REMARK    7  A    between atoms: C_20  and  C_21
REMARK                            x       y       z     vdW  Elec       q    Type
REMARK                         _______ _______ _______ _____ _____    ______ ____
ROOT
ATOM      1  N   UNL     1       3.371   3.782  19.287  0.00  0.00    +0.000 NA
ATOM      2  C   UNL     1       3.109   2.825  20.352  0.00  0.00    +0.000 C 
ATOM      3  S   UNL     1       2.039   3.674  21.532  0.00  0.00    +0.000 S 
ATOM      4  C   UNL     1       2.268   5.313  20.786  0.00  0.00    +0.000 C 
ATOM      5  C   UNL     1       3.405   5.168  19.767  0.00  0.00    +0.000 C 
ENDROOT
BRANCH   5   6
ATOM      6  C   UNL     1       3.324   6.291  18.740  0.00  0.00    +0.000 C 
ATOM      7  O   UNL     1       4.309   6.774  18.185  0.00  0.00    +0.000 OA
ATOM      8  N   UNL     1       2.036   6.735  18.485  0.00  0.00    +0.000 N 
ATOM      9  H   UNL     1       1.407   6.688  19.277  0.00  0.00    +0.000 HD
BRANCH   8  10
ATOM     10  C   UNL     1       1.838   7.876  17.587  0.00  0.00    +0.000 C 
BRANCH  10  11
ATOM     11  C   UNL     1       1.516   9.230  18.243  0.00  0.00    +0.000 C 
ATOM     12  F   UNL     1       2.427  10.186  17.954  0.00  0.00    +0.000 F 
ATOM     13  F   UNL     1       0.319   9.688  17.795  0.00  0.00    +0.000 F 
ATOM     14  F   UNL     1       1.423   9.126  19.586  0.00  0.00    +0.000 F 
ENDBRANCH  10  11
ENDBRANCH   8  10
ENDBRANCH   5   6
BRANCH   1  15
ATOM     15  S   UNL     1       3.529   3.242  17.732  0.00  0.00    +0.000 S 
ATOM     16  O   UNL     1       2.513   3.932  16.963  0.00  0.00    +0.000 OA
ATOM     17  O   UNL     1       3.613   1.801  17.700  0.00  0.00    +0.000 OA
BRANCH  15  22
ATOM     18  C   UNL     1       6.540   4.504  15.347  0.00  0.00    +0.000 A 
ATOM     19  C   UNL     1       7.562   4.775  16.267  0.00  0.00    +0.000 A 
ATOM     20  C   UNL     1       7.351   4.601  17.639  0.00  0.00    +0.000 A 
ATOM     21  C   UNL     1       6.122   4.135  18.106  0.00  0.00    +0.000 A 
ATOM     22  C   UNL     1       5.100   3.876  17.191  0.00  0.00    +0.000 A 
ATOM     23  C   UNL     1       5.294   4.085  15.817  0.00  0.00    +0.000 A 
BRANCH  18  25
ATOM     24  C   UNL     1       6.143   3.693  12.923  0.00  0.00    +0.000 C 
ATOM     25  C   UNL     1       6.833   4.624  13.886  0.00  0.00    +0.000 C 
ATOM     26  O   UNL     1       7.640   5.464  13.494  0.00  0.00    +0.000 OA
ENDBRANCH  18  25
ENDBRANCH  15  22
ENDBRANCH   1  15
TORSDOF 6
ENDMDL
MODEL 8
REMARK VINA RESULT:      -7.7      1.485      2.443
REMARK  Name = 
REMARK  7 active torsions:
REMARK  status: ('A' for Active; 'I' for Inactive)
REMARK    1  A    between atoms: C_1  and  C_2
REMARK    2  A    between atoms: C_2  and  C_4
REMARK    3  A    between atoms: C_8  and  S_9
REMARK    4  A    between atoms: S_9  and  N_12
REMARK    5  A    between atoms: C_16  and  C_17
REMARK    6  A    between atoms: N_19  and  C_20
REMARK    7  A    between atoms: C_20  and  C_21
REMARK                            x       y       z     vdW  Elec       q    Type
REMARK                         _______ _______ _______ _____ _____    ______ ____
ROOT
ATOM      1  N   UNL     1       3.107   3.789  19.321  0.00  0.00    +0.000 NA
ATOM      2  C   UNL     1       3.660   2.498  19.702  0.00  0.00    +0.000 C 
ATOM      3  S   UNL     1       2.990   2.134  21.338  0.00  0.00    +0.000 S 
ATOM      4  C   UNL     1       2.324   3.803  21.599  0.00  0.00    +0.000 C 
ATOM      5  C   UNL     1       2.888   4.674  20.470  0.00  0.00    +0.000 C 
ENDROOT
BRANCH   5   6
ATOM      6  C   UNL     1       2.009   5.903  20.279  0.00  0.00    +0.000 C 
ATOM      7  O   UNL     1       0.803   5.917  20.521  0.00  0.00    +0.000 OA
ATOM      8  N   UNL     1       2.682   7.015  19.799  0.00  0.00    +0.000 N 
ATOM      9  H   UNL     1       3.453   6.806  19.175  0.00  0.00    +0.000 HD
BRANCH   8  10
ATOM     10  C   UNL     1       1.925   8.230  19.484  0.00  0.00    +0.000 C 
BRANCH  10  11
ATOM     11  C   UNL     1       2.084   8.802  18.065  0.00  0.00    +0.000 C 
ATOM     12  F   UNL     1       3.030   8.161  17.341  0.00  0.00    +0.000 F 
ATOM     13  F   UNL     1       0.919   8.672  17.381  0.00  0.00    +0.000 F 
ATOM     14  F   UNL     1       2.386  10.117  18.087  0.00  0.00    +0.000 F 
ENDBRANCH  10  11
ENDBRANCH   8  10
ENDBRANCH   5   6
BRANCH   1  15
ATOM     15  S   UNL     1       2.746   4.079  17.733  0.00  0.00    +0.000 S 
ATOM     16  O   UNL     1       1.977   5.307  17.715  0.00  0.00    +0.000 OA
ATOM     17  O   UNL     1       2.230   2.887  17.103  0.00  0.00    +0.000 OA
BRANCH  15  22
ATOM     18  C   UNL     1       6.379   5.708  17.022  0.00  0.00    +0.000 A 
ATOM     19  C   UNL     1       6.735   5.130  15.795  0.00  0.00    +0.000 A 
ATOM     20  C   UNL     1       5.886   4.212  15.167  0.00  0.00    +0.000 A 
ATOM     21  C   UNL     1       4.663   3.877  15.746  0.00  0.00    +0.000 A 
ATOM     22  C   UNL     1       4.312   4.444  16.973  0.00  0.00    +0.000 A 
ATOM     23  C   UNL     1       5.176   5.335  17.627  0.00  0.00    +0.000 A 
BRANCH  18  25
ATOM     24  C   UNL     1       7.977   6.444  18.918  0.00  0.00    +0.000 C 
ATOM     25  C   UNL     1       7.275   6.745  17.618  0.00  0.00    +0.000 C 
ATOM     26  O   UNL     1       7.413   7.827  17.054  0.00  0.00    +0.000 OA
ENDBRANCH  18  25
ENDBRANCH  15  22
ENDBRANCH   1  15
TORSDOF 6
ENDMDL
MODEL 9
REMARK VINA RESULT:      -7.7      3.714      6.571
REMARK  Name = 
REMARK  7 active torsions:
REMARK  status: ('A' for Active; 'I' for Inactive)
REMARK    1  A    between atoms: C_1  and  C_2
REMARK    2  A    between atoms: C_2  and  C_4
REMARK    3  A    between atoms: C_8  and  S_9
REMARK    4  A    between atoms: S_9  and  N_12
REMARK    5  A    between atoms: C_16  and  C_17
REMARK    6  A    between atoms: N_19  and  C_20
REMARK    7  A    between atoms: C_20  and  C_21
REMARK                            x       y       z     vdW  Elec       q    Type
REMARK                         _______ _______ _______ _____ _____    ______ ____
ROOT
ATOM      1  N   UNL     1       2.292   4.568  18.922  0.00  0.00    +0.000 NA
ATOM      2  C   UNL     1       1.158   3.756  19.335  0.00  0.00    +0.000 C 
ATOM      3  S   UNL     1       1.357   2.165  18.506  0.00  0.00    +0.000 S 
ATOM      4  C   UNL     1       2.681   2.739  17.404  0.00  0.00    +0.000 C 
ATOM      5  C   UNL     1       2.741   4.263  17.559  0.00  0.00    +0.000 C 
ENDROOT
BRANCH   5   6
ATOM      6  C   UNL     1       4.107   4.772  17.117  0.00  0.00    +0.000 C 
ATOM      7  O   UNL     1       4.289   5.885  16.625  0.00  0.00    +0.000 OA
ATOM      8  N   UNL     1       5.140   3.868  17.308  0.00  0.00    +0.000 N 
ATOM      9  H   UNL     1       4.874   2.895  17.211  0.00  0.00    +0.000 HD
BRANCH   8  10
ATOM     10  C   UNL     1       6.484   4.207  16.833  0.00  0.00    +0.000 C 
BRANCH  10  11
ATOM     11  C   UNL     1       7.455   4.810  17.862  0.00  0.00    +0.000 C 
ATOM     12  F   UNL     1       7.774   6.097  17.595  0.00  0.00    +0.000 F 
ATOM     13  F   UNL     1       6.887   4.800  19.095  0.00  0.00    +0.000 F 
ATOM     14  F   UNL     1       8.600   4.099  17.947  0.00  0.00    +0.000 F 
ENDBRANCH  10  11
ENDBRANCH   8  10
ENDBRANCH   5   6
BRANCH   1  15
ATOM     15  S   UNL     1       2.954   5.641  19.992  0.00  0.00    +0.000 S 
ATOM     16  O   UNL     1       4.364   5.714  19.666  0.00  0.00    +0.000 OA
ATOM     17  O   UNL     1       2.533   5.340  21.340  0.00  0.00    +0.000 OA
BRANCH  15  22
ATOM     18  C   UNL     1       0.911   9.123  20.217  0.00  0.00    +0.000 A 
ATOM     19  C   UNL     1       1.033   9.631  18.916  0.00  0.00    +0.000 A 
ATOM     20  C   UNL     1       1.760   8.934  17.944  0.00  0.00    +0.000 A 
ATOM     21  C   UNL     1       2.357   7.713  18.256  0.00  0.00    +0.000 A 
ATOM     22  C   UNL     1       2.245   7.213  19.555  0.00  0.00    +0.000 A 
ATOM     23  C   UNL     1       1.549   7.925  20.543  0.00  0.00    +0.000 A 
BRANCH  18  25
ATOM     24  C   UNL     1       0.031   9.393  22.635  0.00  0.00    +0.000 C 
ATOM     25  C   UNL     1       0.057   9.856  21.200  0.00  0.00    +0.000 C 
ATOM     26  O   UNL     1      -0.620  10.810  20.826  0.00  0.00    +0.000 OA
ENDBRANCH  18  25
ENDBRANCH  15  22
ENDBRANCH   1  15
TORSDOF 6
ENDMDL
