MODEL 1
REMARK VINA RESULT:      -7.3      0.000      0.000
REMARK  Name = 
REMARK  8 active torsions:
REMARK  status: ('A' for Active; 'I' for Inactive)
REMARK    1  A    between atoms: C_1  and  C_2
REMARK    2  A    between atoms: C_2  and  C_3
REMARK    3  A    between atoms: C_3  and  C_4
REMARK    4  A    between atoms: C_3  and  C_5
REMARK    5  A    between atoms: C_10  and  N_11
REMARK    6  A    between atoms: N_14  and  C_15
REMARK    7  A    between atoms: C_18  and  C_19
REMARK    8  A    between atoms: C_19  and  C_20
REMARK                            x       y       z     vdW  Elec       q    Type
REMARK                         _______ _______ _______ _____ _____    ______ ____
ROOT
ATOM      1  N   UNL     1       3.494   6.419  19.576  0.00  0.00    +0.000 N 
ATOM      2  C   UNL     1       2.266   6.702  20.125  0.00  0.00    +0.000 C 
ATOM      3  O   UNL     1       1.380   5.878  20.282  0.00  0.00    +0.000 OA
ATOM      4  N   UNL     1       2.147   8.042  20.417  0.00  0.00    +0.000 N 
ATOM      5  H   UNL     1       4.221   7.102  19.721  0.00  0.00    +0.000 HD
ATOM      6  H   UNL     1       2.998   8.570  20.517  0.00  0.00    +0.000 HD
ENDROOT
BRANCH   1  12
ATOM      7  C   UNL     1       6.765   4.876  16.103  0.00  0.00    +0.000 C 
ATOM      8  O   UNL     1       7.870   4.478  16.486  0.00  0.00    +0.000 OA
ATOM      9  N   UNL     1       5.809   5.305  17.012  0.00  0.00    +0.000 N 
ATOM     10  C   UNL     1       6.226   5.562  18.393  0.00  0.00    +0.000 C 
ATOM     11  C   UNL     1       5.363   4.798  19.388  0.00  0.00    +0.000 C 
ATOM     12  C   UNL     1       3.873   5.072  19.160  0.00  0.00    +0.000 C 
ATOM     13  C   UNL     1       3.495   4.836  17.690  0.00  0.00    +0.000 C 
ATOM     14  C   UNL     1       4.408   5.593  16.726  0.00  0.00    +0.000 C 
BRANCH   7  15
ATOM     15  C   UNL     1       6.442   4.914  14.603  0.00  0.00    +0.000 C 
ATOM     16  C   UNL     1       5.911   3.561  14.124  0.00  0.00    +0.000 C 
BRANCH  15  18
ATOM     17  C   UNL     1       7.650   5.147  12.339  0.00  0.00    +0.000 C 
ATOM     18  C   UNL     1       7.728   5.323  13.848  0.00  0.00    +0.000 C 
ENDBRANCH  15  18
ENDBRANCH   7  15
ENDBRANCH   1  12
BRANCH   4  19
ATOM     19  C   UNL     1       0.954   8.573  21.056  0.00  0.00    +0.000 C 
ATOM     20  C   UNL     1       1.258   8.957  22.506  0.00  0.00    +0.000 C 
ATOM     21  C   UNL     1       0.041   9.564  23.194  0.00  0.00    +0.000 C 
ATOM     22  C   UNL     1      -0.489  10.787  22.427  0.00  0.00    +0.000 C 
ATOM     23  C   UNL     1      -0.796  10.404  20.969  0.00  0.00    +0.000 C 
ATOM     24  C   UNL     1       0.419   9.782  20.279  0.00  0.00    +0.000 C 
BRANCH  22  25
ATOM     25  C   UNL     1      -1.729  11.399  23.103  0.00  0.00    +0.000 C 
ATOM     26  C   UNL     1      -1.695  12.923  23.143  0.00  0.00    +0.000 C 
ENDBRANCH  22  25
ENDBRANCH   4  19
TORSDOF 5
ENDMDL
MODEL 2
REMARK VINA RESULT:      -7.2      5.244      8.056
REMARK  Name = 
REMARK  8 active torsions:
REMARK  status: ('A' for Active; 'I' for Inactive)
REMARK    1  A    between atoms: C_1  and  C_2
REMARK    2  A    between atoms: C_2  and  C_3
REMARK    3  A    between atoms: C_3  and  C_4
REMARK    4  A    between atoms: C_3  and  C_5
REMARK    5  A    between atoms: C_10  and  N_11
REMARK    6  A    between atoms: N_14  and  C_15
REMARK    7  A    between atoms: C_18  and  C_19
REMARK    8  A    between atoms: C_19  and  C_20
REMARK                            x       y       z     vdW  Elec       q    Type
REMARK                         _______ _______ _______ _____ _____    ______ ____
ROOT
ATOM      1  N   UNL     1       7.963   7.071  18.273  0.00  0.00    +0.000 N 
ATOM      2  C   UNL     1       8.173   8.417  18.091  0.00  0.00    +0.000 C 
ATOM      3  O   UNL     1       7.850   9.031  17.087  0.00  0.00    +0.000 OA
ATOM      4  N   UNL     1       8.846   8.966  19.158  0.00  0.00    +0.000 N 
ATOM      5  H   UNL     1       8.041   6.726  19.217  0.00  0.00    +0.000 HD
ATOM      6  H   UNL     1       8.817   8.464  20.030  0.00  0.00    +0.000 HD
ENDROOT
BRANCH   1  12
ATOM      7  C   UNL     1       3.545   4.707  18.465  0.00  0.00    +0.000 C 
ATOM      8  O   UNL     1       2.586   5.228  17.888  0.00  0.00    +0.000 OA
ATOM      9  N   UNL     1       4.799   5.302  18.441  0.00  0.00    +0.000 N 
ATOM     10  C   UNL     1       4.902   6.690  17.983  0.00  0.00    +0.000 C 
ATOM     11  C   UNL     1       5.931   6.834  16.870  0.00  0.00    +0.000 C 
ATOM     12  C   UNL     1       7.284   6.245  17.279  0.00  0.00    +0.000 C 
ATOM     13  C   UNL     1       7.117   4.808  17.796  0.00  0.00    +0.000 C 
ATOM     14  C   UNL     1       6.052   4.702  18.888  0.00  0.00    +0.000 C 
BRANCH   7  15
ATOM     15  C   UNL     1       3.355   3.392  19.234  0.00  0.00    +0.000 C 
ATOM     16  C   UNL     1       2.656   2.346  18.365  0.00  0.00    +0.000 C 
BRANCH  15  18
ATOM     17  C   UNL     1       1.085   3.296  20.448  0.00  0.00    +0.000 C 
ATOM     18  C   UNL     1       2.549   3.702  20.517  0.00  0.00    +0.000 C 
ENDBRANCH  15  18
ENDBRANCH   7  15
ENDBRANCH   1  12
BRANCH   4  19
ATOM     19  C   UNL     1       9.136  10.390  19.219  0.00  0.00    +0.000 C 
ATOM     20  C   UNL     1       9.355  10.823  20.670  0.00  0.00    +0.000 C 
ATOM     21  C   UNL     1       9.709  12.302  20.767  0.00  0.00    +0.000 C 
ATOM     22  C   UNL     1      10.951  12.641  19.927  0.00  0.00    +0.000 C 
ATOM     23  C   UNL     1      10.735  12.206  18.466  0.00  0.00    +0.000 C 
ATOM     24  C   UNL     1      10.365  10.725  18.366  0.00  0.00    +0.000 C 
BRANCH  22  25
ATOM     25  C   UNL     1      11.310  14.136  20.004  0.00  0.00    +0.000 C 
ATOM     26  C   UNL     1      11.862  14.683  18.692  0.00  0.00    +0.000 C 
ENDBRANCH  22  25
ENDBRANCH   4  19
TORSDOF 5
ENDMDL
MODEL 3
REMARK VINA RESULT:      -7.0      4.923      7.883
REMARK  Name = 
REMARK  8 active torsions:
REMARK  status: ('A' for Active; 'I' for Inactive)
REMARK    1  A    between atoms: C_1  and  C_2
REMARK    2  A    between atoms: C_2  and  C_3
REMARK    3  A    between atoms: C_3  and  C_4
REMARK    4  A    between atoms: C_3  and  C_5
REMARK    5  A    between atoms: C_10  and  N_11
REMARK    6  A    between atoms: N_14  and  C_15
REMARK    7  A    between atoms: C_18  and  C_19
REMARK    8  A    between atoms: C_19  and  C_20
REMARK                            x       y       z     vdW  Elec       q    Type
REMARK                         _______ _______ _______ _____ _____    ______ ____
ROOT
ATOM      1  N   UNL     1       7.352   6.854  18.297  0.00  0.00    +0.000 N 
ATOM      2  C   UNL     1       8.042   7.980  17.918  0.00  0.00    +0.000 C 
ATOM      3  O   UNL     1       8.223   8.316  16.759  0.00  0.00    +0.000 OA
ATOM      4  N   UNL     1       8.551   8.644  19.012  0.00  0.00    +0.000 N 
ATOM      5  H   UNL     1       7.055   6.808  19.259  0.00  0.00    +0.000 HD
ATOM      6  H   UNL     1       8.124   8.459  19.904  0.00  0.00    +0.000 HD
ENDROOT
BRANCH   1  12
ATOM      7  C   UNL     1       2.958   4.442  18.451  0.00  0.00    +0.000 C 
ATOM      8  O   UNL     1       2.017   4.913  17.805  0.00  0.00    +0.000 OA
ATOM      9  N   UNL     1       4.205   5.052  18.442  0.00  0.00    +0.000 N 
ATOM     10  C   UNL     1       4.310   6.412  17.906  0.00  0.00    +0.000 C 
ATOM     11  C   UNL     1       5.382   6.504  16.829  0.00  0.00    +0.000 C 
ATOM     12  C   UNL     1       6.724   5.960  17.328  0.00  0.00    +0.000 C 
ATOM     13  C   UNL     1       6.554   4.554  17.923  0.00  0.00    +0.000 C 
ATOM     14  C   UNL     1       5.445   4.499  18.975  0.00  0.00    +0.000 C 
BRANCH   7  15
ATOM     15  C   UNL     1       2.752   3.173  19.290  0.00  0.00    +0.000 C 
ATOM     16  C   UNL     1       2.820   1.921  18.413  0.00  0.00    +0.000 C 
BRANCH  15  18
ATOM     17  C   UNL     1       1.400   2.808  21.452  0.00  0.00    +0.000 C 
ATOM     18  C   UNL     1       1.390   3.293  20.011  0.00  0.00    +0.000 C 
ENDBRANCH  15  18
ENDBRANCH   7  15
ENDBRANCH   1  12
BRANCH   4  19
ATOM     19  C   UNL     1       9.276   9.896  18.866  0.00  0.00    +0.000 C 
ATOM     20  C   UNL     1       8.471  10.875  18.007  0.00  0.00    +0.000 C 
ATOM     21  C   UNL     1       9.180  12.218  17.874  0.00  0.00    +0.000 C 
ATOM     22  C   UNL     1       9.468  12.842  19.249  0.00  0.00    +0.000 C 
ATOM     23  C   UNL     1      10.277  11.861  20.115  0.00  0.00    +0.000 C 
ATOM     24  C   UNL     1       9.576  10.507  20.240  0.00  0.00    +0.000 C 
BRANCH  22  25
ATOM     25  C   UNL     1      10.199  14.192  19.127  0.00  0.00    +0.000 C 
ATOM     26  C   UNL     1      10.593  14.528  17.693  0.00  0.00    +0.000 C 
ENDBRANCH  22  25
ENDBRANCH   4  19
TORSDOF 5
ENDMDL
MODEL 4
REMARK VINA RESULT:      -6.8      5.284      7.904
REMARK  Name = 
REMARK  8 active torsions:
REMARK  status: ('A' for Active; 'I' for Inactive)
REMARK    1  A    between atoms: C_1  and  C_2
REMARK    2  A    between atoms: C_2  and  C_3
REMARK    3  A    between atoms: C_3  and  C_4
REMARK    4  A    between atoms: C_3  and  C_5
REMARK    5  A    between atoms: C_10  and  N_11
REMARK    6  A    between atoms: N_14  and  C_15
REMARK    7  A    between atoms: C_18  and  C_19
REMARK    8  A    between atoms: C_19  and  C_20
REMARK                            x       y       z     vdW  Elec       q    Type
REMARK                         _______ _______ _______ _____ _____    ______ ____
ROOT
ATOM      1  N   UNL     1       7.407   7.632  17.190  0.00  0.00    +0.000 N 
ATOM      2  C   UNL     1       8.132   8.525  17.943  0.00  0.00    +0.000 C 
ATOM      3  O   UNL     1       8.837   8.210  18.888  0.00  0.00    +0.000 OA
ATOM      4  N   UNL     1       7.912   9.819  17.531  0.00  0.00    +0.000 N 
ATOM      5  H   UNL     1       7.067   7.963  16.301  0.00  0.00    +0.000 HD
ATOM      6  H   UNL     1       7.555   9.953  16.599  0.00  0.00    +0.000 HD
ENDROOT
BRANCH   1  12
ATOM      7  C   UNL     1       3.696   4.280  17.559  0.00  0.00    +0.000 C 
ATOM      8  O   UNL     1       3.471   3.558  16.583  0.00  0.00    +0.000 OA
ATOM      9  N   UNL     1       4.717   5.220  17.529  0.00  0.00    +0.000 N 
ATOM     10  C   UNL     1       5.321   5.550  16.235  0.00  0.00    +0.000 C 
ATOM     11  C   UNL     1       6.836   5.399  16.273  0.00  0.00    +0.000 C 
ATOM     12  C   UNL     1       7.448   6.193  17.431  0.00  0.00    +0.000 C 
ATOM     13  C   UNL     1       6.750   5.849  18.756  0.00  0.00    +0.000 C 
ATOM     14  C   UNL     1       5.230   5.980  18.663  0.00  0.00    +0.000 C 
BRANCH   7  15
ATOM     15  C   UNL     1       2.832   4.154  18.822  0.00  0.00    +0.000 C 
ATOM     16  C   UNL     1       3.369   3.059  19.744  0.00  0.00    +0.000 C 
BRANCH  15  18
ATOM     17  C   UNL     1       0.845   2.515  18.825  0.00  0.00    +0.000 C 
ATOM     18  C   UNL     1       1.379   3.867  18.379  0.00  0.00    +0.000 C 
ENDBRANCH  15  18
ENDBRANCH   7  15
ENDBRANCH   1  12
BRANCH   4  19
ATOM     19  C   UNL     1       8.611  10.938  18.143  0.00  0.00    +0.000 C 
ATOM     20  C   UNL     1      10.116  10.821  17.891  0.00  0.00    +0.000 C 
ATOM     21  C   UNL     1      10.877  12.003  18.479  0.00  0.00    +0.000 C 
ATOM     22  C   UNL     1      10.356  13.340  17.926  0.00  0.00    +0.000 C 
ATOM     23  C   UNL     1       8.842  13.461  18.177  0.00  0.00    +0.000 C 
ATOM     24  C   UNL     1       8.076  12.269  17.602  0.00  0.00    +0.000 C 
BRANCH  22  25
ATOM     25  C   UNL     1      11.106  14.543  18.524  0.00  0.00    +0.000 C 
ATOM     26  C   UNL     1      10.801  14.760  20.003  0.00  0.00    +0.000 C 
ENDBRANCH  22  25
ENDBRANCH   4  19
TORSDOF 5
ENDMDL
MODEL 5
REMARK VINA RESULT:      -6.6      5.197      7.742
REMARK  Name = 
REMARK  8 active torsions:
REMARK  status: ('A' for Active; 'I' for Inactive)
REMARK    1  A    between atoms: C_1  and  C_2
REMARK    2  A    between atoms: C_2  and  C_3
REMARK    3  A    between atoms: C_3  and  C_4
REMARK    4  A    between atoms: C_3  and  C_5
REMARK    5  A    between atoms: C_10  and  N_11
REMARK    6  A    between atoms: N_14  and  C_15
REMARK    7  A    between atoms: C_18  and  C_19
REMARK    8  A    between atoms: C_19  and  C_20
REMARK                            x       y       z     vdW  Elec       q    Type
REMARK                         _______ _______ _______ _____ _____    ______ ____
ROOT
ATOM      1  N   UNL     1       7.860   7.155  17.982  0.00  0.00    +0.000 N 
ATOM      2  C   UNL     1       8.086   8.509  17.933  0.00  0.00    +0.000 C 
ATOM      3  O   UNL     1       7.792   9.219  16.985  0.00  0.00    +0.000 OA
ATOM      4  N   UNL     1       8.740   8.947  19.063  0.00  0.00    +0.000 N 
ATOM      5  H   UNL     1       7.913   6.721  18.891  0.00  0.00    +0.000 HD
ATOM      6  H   UNL     1       8.686   8.365  19.882  0.00  0.00    +0.000 HD
ENDROOT
BRANCH   1  12
ATOM      7  C   UNL     1       3.777   4.244  18.025  0.00  0.00    +0.000 C 
ATOM      8  O   UNL     1       2.717   4.729  17.618  0.00  0.00    +0.000 OA
ATOM      9  N   UNL     1       4.947   4.991  18.029  0.00  0.00    +0.000 N 
ATOM     10  C   UNL     1       4.849   6.439  17.828  0.00  0.00    +0.000 C 
ATOM     11  C   UNL     1       5.753   6.906  16.696  0.00  0.00    +0.000 C 
ATOM     12  C   UNL     1       7.196   6.434  16.901  0.00  0.00    +0.000 C 
ATOM     13  C   UNL     1       7.241   4.920  17.154  0.00  0.00    +0.000 C 
ATOM     14  C   UNL     1       6.295   4.489  18.275  0.00  0.00    +0.000 C 
BRANCH   7  15
ATOM     15  C   UNL     1       3.807   2.802  18.551  0.00  0.00    +0.000 C 
ATOM     16  C   UNL     1       2.730   1.951  17.876  0.00  0.00    +0.000 C 
BRANCH  15  18
ATOM     17  C   UNL     1       4.553   1.928  20.856  0.00  0.00    +0.000 C 
ATOM     18  C   UNL     1       3.621   2.849  20.085  0.00  0.00    +0.000 C 
ENDBRANCH  15  18
ENDBRANCH   7  15
ENDBRANCH   1  12
BRANCH   4  19
ATOM     19  C   UNL     1       9.042  10.356  19.264  0.00  0.00    +0.000 C 
ATOM     20  C   UNL     1       9.331  10.627  20.742  0.00  0.00    +0.000 C 
ATOM     21  C   UNL     1       9.699  12.086  20.983  0.00  0.00    +0.000 C 
ATOM     22  C   UNL     1      10.903  12.513  20.126  0.00  0.00    +0.000 C 
ATOM     23  C   UNL     1      10.616  12.241  18.639  0.00  0.00    +0.000 C 
ATOM     24  C   UNL     1      10.231  10.781  18.395  0.00  0.00    +0.000 C 
BRANCH  22  25
ATOM     25  C   UNL     1      11.274  13.990  20.348  0.00  0.00    +0.000 C 
ATOM     26  C   UNL     1      10.344  14.697  21.329  0.00  0.00    +0.000 C 
ENDBRANCH  22  25
ENDBRANCH   4  19
TORSDOF 5
ENDMDL
MODEL 6
REMARK VINA RESULT:      -6.4      4.570      7.764
REMARK  Name = 
REMARK  8 active torsions:
REMARK  status: ('A' for Active; 'I' for Inactive)
REMARK    1  A    between atoms: C_1  and  C_2
REMARK    2  A    between atoms: C_2  and  C_3
REMARK    3  A    between atoms: C_3  and  C_4
REMARK    4  A    between atoms: C_3  and  C_5
REMARK    5  A    between atoms: C_10  and  N_11
REMARK    6  A    between atoms: N_14  and  C_15
REMARK    7  A    between atoms: C_18  and  C_19
REMARK    8  A    between atoms: C_19  and  C_20
REMARK                            x       y       z     vdW  Elec       q    Type
REMARK                         _______ _______ _______ _____ _____    ______ ____
ROOT
ATOM      1  N   UNL     1       6.703   6.814  17.322  0.00  0.00    +0.000 N 
ATOM      2  C   UNL     1       7.722   7.563  17.860  0.00  0.00    +0.000 C 
ATOM      3  O   UNL     1       8.583   7.116  18.601  0.00  0.00    +0.000 OA
ATOM      4  N   UNL     1       7.608   8.888  17.505  0.00  0.00    +0.000 N 
ATOM      5  H   UNL     1       6.207   7.220  16.544  0.00  0.00    +0.000 HD
ATOM      6  H   UNL     1       7.055   9.102  16.692  0.00  0.00    +0.000 HD
ENDROOT
BRANCH   1  12
ATOM      7  C   UNL     1       2.775   4.080  18.819  0.00  0.00    +0.000 C 
ATOM      8  O   UNL     1       2.158   3.439  17.963  0.00  0.00    +0.000 OA
ATOM      9  N   UNL     1       3.879   4.847  18.475  0.00  0.00    +0.000 N 
ATOM     10  C   UNL     1       4.120   5.124  17.056  0.00  0.00    +0.000 C 
ATOM     11  C   UNL     1       5.533   4.734  16.644  0.00  0.00    +0.000 C 
ATOM     12  C   UNL     1       6.579   5.379  17.558  0.00  0.00    +0.000 C 
ATOM     13  C   UNL     1       6.258   5.101  19.034  0.00  0.00    +0.000 C 
ATOM     14  C   UNL     1       4.820   5.475  19.396  0.00  0.00    +0.000 C 
BRANCH   7  15
ATOM     15  C   UNL     1       2.314   4.046  20.283  0.00  0.00    +0.000 C 
ATOM     16  C   UNL     1       1.911   2.630  20.696  0.00  0.00    +0.000 C 
BRANCH  15  18
ATOM     17  C   UNL     1       1.569   6.461  20.779  0.00  0.00    +0.000 C 
ATOM     18  C   UNL     1       1.142   5.043  20.437  0.00  0.00    +0.000 C 
ENDBRANCH  15  18
ENDBRANCH   7  15
ENDBRANCH   1  12
BRANCH   4  19
ATOM     19  C   UNL     1       8.602   9.868  17.913  0.00  0.00    +0.000 C 
ATOM     20  C   UNL     1       8.113  11.282  17.591  0.00  0.00    +0.000 C 
ATOM     21  C   UNL     1       9.110  12.339  18.048  0.00  0.00    +0.000 C 
ATOM     22  C   UNL     1       9.410  12.218  19.552  0.00  0.00    +0.000 C 
ATOM     23  C   UNL     1       9.903  10.798  19.879  0.00  0.00    +0.000 C 
ATOM     24  C   UNL     1       8.911   9.733  19.408  0.00  0.00    +0.000 C 
BRANCH  22  25
ATOM     25  C   UNL     1      10.429  13.271  20.023  0.00  0.00    +0.000 C 
ATOM     26  C   UNL     1      10.447  14.518  19.145  0.00  0.00    +0.000 C 
ENDBRANCH  22  25
ENDBRANCH   4  19
TORSDOF 5
ENDMDL
MODEL 7
REMARK VINA RESULT:      -6.4      0.667      1.088
REMARK  Name = 
REMARK  8 active torsions:
REMARK  status: ('A' for Active; 'I' for Inactive)
REMARK    1  A    between atoms: C_1  and  C_2
REMARK    2  A    between atoms: C_2  and  C_3
REMARK    3  A    between atoms: C_3  and  C_4
REMARK    4  A    between atoms: C_3  and  C_5
REMARK    5  A    between atoms: C_10  and  N_11
REMARK    6  A    between atoms: N_14  and  C_15
REMARK    7  A    between atoms: C_18  and  C_19
REMARK    8  A    between atoms: C_19  and  C_20
REMARK                            x       y       z     vdW  Elec       q    Type
REMARK                         _______ _______ _______ _____ _____    ______ ____
ROOT
ATOM      1  N   UNL     1       3.239   6.408  19.222  0.00  0.00    +0.000 N 
ATOM      2  C   UNL     1       2.139   6.737  19.977  0.00  0.00    +0.000 C 
ATOM      3  O   UNL     1       1.445   5.925  20.567  0.00  0.00    +0.000 OA
ATOM      4  N   UNL     1       1.889   8.090  19.931  0.00  0.00    +0.000 N 
ATOM      5  H   UNL     1       3.869   7.160  18.990  0.00  0.00    +0.000 HD
ATOM      6  H   UNL     1       2.651   8.691  19.665  0.00  0.00    +0.000 HD
ENDROOT
BRANCH   1  12
ATOM      7  C   UNL     1       7.043   4.511  16.561  0.00  0.00    +0.000 C 
ATOM      8  O   UNL     1       8.086   4.233  17.162  0.00  0.00    +0.000 OA
ATOM      9  N   UNL     1       5.948   5.027  17.239  0.00  0.00    +0.000 N 
ATOM     10  C   UNL     1       6.142   5.515  18.607  0.00  0.00    +0.000 C 
ATOM     11  C   UNL     1       5.156   4.872  19.573  0.00  0.00    +0.000 C 
ATOM     12  C   UNL     1       3.712   5.033  19.088  0.00  0.00    +0.000 C 
ATOM     13  C   UNL     1       3.570   4.554  17.635  0.00  0.00    +0.000 C 
ATOM     14  C   UNL     1       4.600   5.198  16.707  0.00  0.00    +0.000 C 
BRANCH   7  15
ATOM     15  C   UNL     1       6.953   4.300  15.043  0.00  0.00    +0.000 C 
ATOM     16  C   UNL     1       7.405   5.552  14.290  0.00  0.00    +0.000 C 
BRANCH  15  18
ATOM     17  C   UNL     1       5.247   3.655  13.224  0.00  0.00    +0.000 C 
ATOM     18  C   UNL     1       5.494   3.922  14.700  0.00  0.00    +0.000 C 
ENDBRANCH  15  18
ENDBRANCH   7  15
ENDBRANCH   1  12
BRANCH   4  19
ATOM     19  C   UNL     1       0.805   8.685  20.696  0.00  0.00    +0.000 C 
ATOM     20  C   UNL     1       1.242   8.906  22.146  0.00  0.00    +0.000 C 
ATOM     21  C   UNL     1       0.146   9.574  22.967  0.00  0.00    +0.000 C 
ATOM     22  C   UNL     1      -0.293  10.909  22.343  0.00  0.00    +0.000 C 
ATOM     23  C   UNL     1      -0.733  10.691  20.884  0.00  0.00    +0.000 C 
ATOM     24  C   UNL     1       0.360  10.007  20.060  0.00  0.00    +0.000 C 
BRANCH  22  25
ATOM     25  C   UNL     1      -1.412  11.585  23.154  0.00  0.00    +0.000 C 
ATOM     26  C   UNL     1      -2.503  12.189  22.276  0.00  0.00    +0.000 C 
ENDBRANCH  22  25
ENDBRANCH   4  19
TORSDOF 5
ENDMDL
MODEL 8
REMARK VINA RESULT:      -6.3      4.662      7.747
REMARK  Name = 
REMARK  8 active torsions:
REMARK  status: ('A' for Active; 'I' for Inactive)
REMARK    1  A    between atoms: C_1  and  C_2
REMARK    2  A    between atoms: C_2  and  C_3
REMARK    3  A    between atoms: C_3  and  C_4
REMARK    4  A    between atoms: C_3  and  C_5
REMARK    5  A    between atoms: C_10  and  N_11
REMARK    6  A    between atoms: N_14  and  C_15
REMARK    7  A    between atoms: C_18  and  C_19
REMARK    8  A    between atoms: C_19  and  C_20
REMARK                            x       y       z     vdW  Elec       q    Type
REMARK                         _______ _______ _______ _____ _____    ______ ____
ROOT
ATOM      1  N   UNL     1       6.619   6.852  17.622  0.00  0.00    +0.000 N 
ATOM      2  C   UNL     1       7.701   7.571  18.070  0.00  0.00    +0.000 C 
ATOM      3  O   UNL     1       8.598   7.104  18.754  0.00  0.00    +0.000 OA
ATOM      4  N   UNL     1       7.609   8.893  17.700  0.00  0.00    +0.000 N 
ATOM      5  H   UNL     1       6.081   7.263  16.876  0.00  0.00    +0.000 HD
ATOM      6  H   UNL     1       7.005   9.115  16.925  0.00  0.00    +0.000 HD
ENDROOT
BRANCH   1  12
ATOM      7  C   UNL     1       2.482   4.051  18.062  0.00  0.00    +0.000 C 
ATOM      8  O   UNL     1       2.157   3.347  17.102  0.00  0.00    +0.000 OA
ATOM      9  N   UNL     1       3.623   4.840  18.012  0.00  0.00    +0.000 N 
ATOM     10  C   UNL     1       4.263   5.057  16.712  0.00  0.00    +0.000 C 
ATOM     11  C   UNL     1       5.742   4.700  16.753  0.00  0.00    +0.000 C 
ATOM     12  C   UNL     1       6.461   5.426  17.894  0.00  0.00    +0.000 C 
ATOM     13  C   UNL     1       5.727   5.209  19.225  0.00  0.00    +0.000 C 
ATOM     14  C   UNL     1       4.239   5.546  19.130  0.00  0.00    +0.000 C 
BRANCH   7  15
ATOM     15  C   UNL     1       1.613   4.071  19.328  0.00  0.00    +0.000 C 
ATOM     16  C   UNL     1       1.787   5.387  20.088  0.00  0.00    +0.000 C 
BRANCH  15  18
ATOM     17  C   UNL     1       2.184   3.168  21.671  0.00  0.00    +0.000 C 
ATOM     18  C   UNL     1       2.004   2.853  20.195  0.00  0.00    +0.000 C 
ENDBRANCH  15  18
ENDBRANCH   7  15
ENDBRANCH   1  12
BRANCH   4  19
ATOM     19  C   UNL     1       8.666   9.842  18.014  0.00  0.00    +0.000 C 
ATOM     20  C   UNL     1       8.259  11.250  17.574  0.00  0.00    +0.000 C 
ATOM     21  C   UNL     1       9.323  12.280  17.931  0.00  0.00    +0.000 C 
ATOM     22  C   UNL     1       9.633  12.271  19.437  0.00  0.00    +0.000 C 
ATOM     23  C   UNL     1      10.043  10.856  19.884  0.00  0.00    +0.000 C 
ATOM     24  C   UNL     1       8.983   9.817  19.513  0.00  0.00    +0.000 C 
BRANCH  22  25
ATOM     25  C   UNL     1      10.720  13.295  19.809  0.00  0.00    +0.000 C 
ATOM     26  C   UNL     1      10.343  14.154  21.012  0.00  0.00    +0.000 C 
ENDBRANCH  22  25
ENDBRANCH   4  19
TORSDOF 5
ENDMDL
MODEL 9
REMARK VINA RESULT:      -6.3      5.018      7.838
REMARK  Name = 
REMARK  8 active torsions:
REMARK  status: ('A' for Active; 'I' for Inactive)
REMARK    1  A    between atoms: C_1  and  C_2
REMARK    2  A    between atoms: C_2  and  C_3
REMARK    3  A    between atoms: C_3  and  C_4
REMARK    4  A    between atoms: C_3  and  C_5
REMARK    5  A    between atoms: C_10  and  N_11
REMARK    6  A    between atoms: N_14  and  C_15
REMARK    7  A    between atoms: C_18  and  C_19
REMARK    8  A    between atoms: C_19  and  C_20
REMARK                            x       y       z     vdW  Elec       q    Type
REMARK                         _______ _______ _______ _____ _____    ______ ____
ROOT
ATOM      1  N   UNL     1       6.977   7.600  17.160  0.00  0.00    +0.000 N 
ATOM      2  C   UNL     1       8.007   8.190  17.853  0.00  0.00    +0.000 C 
ATOM      3  O   UNL     1       8.854   7.573  18.479  0.00  0.00    +0.000 OA
ATOM      4  N   UNL     1       7.922   9.563  17.799  0.00  0.00    +0.000 N 
ATOM      5  H   UNL     1       6.495   8.178  16.489  0.00  0.00    +0.000 HD
ATOM      6  H   UNL     1       7.380   9.963  17.051  0.00  0.00    +0.000 HD
ENDROOT
BRANCH   1  12
ATOM      7  C   UNL     1       3.208   4.627  18.609  0.00  0.00    +0.000 C 
ATOM      8  O   UNL     1       2.433   4.213  17.742  0.00  0.00    +0.000 OA
ATOM      9  N   UNL     1       4.280   5.443  18.275  0.00  0.00    +0.000 N 
ATOM     10  C   UNL     1       4.306   6.047  16.940  0.00  0.00    +0.000 C 
ATOM     11  C   UNL     1       5.615   5.752  16.220  0.00  0.00    +0.000 C 
ATOM     12  C   UNL     1       6.823   6.151  17.073  0.00  0.00    +0.000 C 
ATOM     13  C   UNL     1       6.727   5.534  18.476  0.00  0.00    +0.000 C 
ATOM     14  C   UNL     1       5.384   5.825  19.148  0.00  0.00    +0.000 C 
BRANCH   7  15
ATOM     15  C   UNL     1       2.984   4.252  20.081  0.00  0.00    +0.000 C 
ATOM     16  C   UNL     1       3.584   2.880  20.392  0.00  0.00    +0.000 C 
BRANCH  15  18
ATOM     17  C   UNL     1       0.895   2.985  20.898  0.00  0.00    +0.000 C 
ATOM     18  C   UNL     1       1.463   4.287  20.356  0.00  0.00    +0.000 C 
ENDBRANCH  15  18
ENDBRANCH   7  15
ENDBRANCH   1  12
BRANCH   4  19
ATOM     19  C   UNL     1       8.933  10.408  18.415  0.00  0.00    +0.000 C 
ATOM     20  C   UNL     1       8.810  11.842  17.895  0.00  0.00    +0.000 C 
ATOM     21  C   UNL     1       9.825  12.768  18.556  0.00  0.00    +0.000 C 
ATOM     22  C   UNL     1       9.688  12.751  20.088  0.00  0.00    +0.000 C 
ATOM     23  C   UNL     1       9.812  11.310  20.614  0.00  0.00    +0.000 C 
ATOM     24  C   UNL     1       8.805  10.375  19.942  0.00  0.00    +0.000 C 
BRANCH  22  25
ATOM     25  C   UNL     1      10.719  13.670  20.769  0.00  0.00    +0.000 C 
ATOM     26  C   UNL     1      10.529  15.142  20.417  0.00  0.00    +0.000 C 
ENDBRANCH  22  25
ENDBRANCH   4  19
TORSDOF 5
ENDMDL
