MODEL 1
REMARK VINA RESULT:      -8.4      0.000      0.000
REMARK  Name = 
REMARK  5 active torsions:
REMARK  status: ('A' for Active; 'I' for Inactive)
REMARK    1  A    between atoms: C_2  and  C_3
REMARK    2  A    between atoms: C_3  and  C_4
REMARK    3  A    between atoms: C_3  and  N_6
REMARK    4  A    between atoms: C_4  and  O_5
REMARK    5  A    between atoms: N_9  and  C_10
REMARK                            x       y       z     vdW  Elec       q    Type
REMARK                         _______ _______ _______ _____ _____    ______ ____
ROOT
ATOM      1  C   UNL     1       2.663   6.050  18.233  0.00  0.00    +0.000 C 
ATOM      2  C   UNL     1       2.043   7.403  18.650  0.00  0.00    +0.000 A 
ATOM      3  C   UNL     1       1.872   8.360  17.615  0.00  0.00    +0.000 A 
ATOM      4  C   UNL     1       1.468   9.669  17.864  0.00  0.00    +0.000 A 
ATOM      5  C   UNL     1       1.187  10.060  19.160  0.00  0.00    +0.000 A 
ATOM      6  C   UNL     1       1.286   9.127  20.190  0.00  0.00    +0.000 A 
ATOM      7  C   UNL     1       1.706   7.791  19.964  0.00  0.00    +0.000 A 
ATOM      8  C   UNL     1       1.639   6.897  21.181  0.00  0.00    +0.000 C 
ATOM      9  C   UNL     1       2.344   5.549  21.198  0.00  0.00    +0.000 C 
ATOM     10  C   UNL     1       1.798   4.584  20.182  0.00  0.00    +0.000 A 
ATOM     11  C   UNL     1       1.166   3.404  20.620  0.00  0.00    +0.000 A 
ATOM     12  C   UNL     1       0.641   2.490  19.707  0.00  0.00    +0.000 A 
ATOM     13  C   UNL     1       0.729   2.746  18.347  0.00  0.00    +0.000 A 
ATOM     14  C   UNL     1       1.356   3.911  17.898  0.00  0.00    +0.000 A 
ATOM     15  C   UNL     1       1.913   4.838  18.801  0.00  0.00    +0.000 A 
ENDROOT
BRANCH   1  19
ATOM     16  N   UNL     1       5.345   4.482  16.057  0.00  0.00    +0.000 NA
ATOM     17  C   UNL     1       4.826   3.802  17.258  0.00  0.00    +0.000 C 
ATOM     18  C   UNL     1       4.711   4.642  18.565  0.00  0.00    +0.000 C 
ATOM     19  N   UNL     1       4.149   6.007  18.436  0.00  0.00    +0.000 NA
ATOM     20  C   UNL     1       4.897   6.655  17.332  0.00  0.00    +0.000 C 
ATOM     21  C   UNL     1       4.877   5.877  15.990  0.00  0.00    +0.000 C 
BRANCH  16  22
ATOM     22  C   UNL     1       6.789   4.348  15.758  0.00  0.00    +0.000 C 
BRANCH  22  24
ATOM     23  C   UNL     1       6.785   4.242  13.245  0.00  0.00    +0.000 C 
ATOM     24  C   UNL     1       7.207   4.808  14.386  0.00  0.00    +0.000 C 
ENDBRANCH  22  24
BRANCH  22  25
ATOM     25  C   UNL     1       7.666   5.015  16.853  0.00  0.00    +0.000 C 
BRANCH  25  26
ATOM     26  O   UNL     1       8.241   4.022  17.710  0.00  0.00    +0.000 OA
ATOM     27  H   UNL     1       7.481   3.626  18.178  0.00  0.00    +0.000 HD
ENDBRANCH  25  26
ENDBRANCH  22  25
ENDBRANCH  16  22
ENDBRANCH   1  19
TORSDOF 5
ENDMDL
MODEL 2
REMARK VINA RESULT:      -8.0      0.958      1.487
REMARK  Name = 
REMARK  5 active torsions:
REMARK  status: ('A' for Active; 'I' for Inactive)
REMARK    1  A    between atoms: C_2  and  C_3
REMARK    2  A    between atoms: C_3  and  C_4
REMARK    3  A    between atoms: C_3  and  N_6
REMARK    4  A    between atoms: C_4  and  O_5
REMARK    5  A    between atoms: N_9  and  C_10
REMARK                            x       y       z     vdW  Elec       q    Type
REMARK                         _______ _______ _______ _____ _____    ______ ____
ROOT
ATOM      1  C   UNL     1       2.618   6.169  18.261  0.00  0.00    +0.000 C 
ATOM      2  C   UNL     1       1.973   7.513  18.673  0.00  0.00    +0.000 A 
ATOM      3  C   UNL     1       1.812   8.473  17.640  0.00  0.00    +0.000 A 
ATOM      4  C   UNL     1       1.388   9.777  17.888  0.00  0.00    +0.000 A 
ATOM      5  C   UNL     1       1.076  10.156  19.180  0.00  0.00    +0.000 A 
ATOM      6  C   UNL     1       1.165   9.219  20.206  0.00  0.00    +0.000 A 
ATOM      7  C   UNL     1       1.605   7.890  19.982  0.00  0.00    +0.000 A 
ATOM      8  C   UNL     1       1.524   6.988  21.193  0.00  0.00    +0.000 C 
ATOM      9  C   UNL     1       2.245   5.648  21.216  0.00  0.00    +0.000 C 
ATOM     10  C   UNL     1       1.731   4.682  20.185  0.00  0.00    +0.000 A 
ATOM     11  C   UNL     1       1.104   3.493  20.603  0.00  0.00    +0.000 A 
ATOM     12  C   UNL     1       0.608   2.578  19.675  0.00  0.00    +0.000 A 
ATOM     13  C   UNL     1       0.721   2.842  18.318  0.00  0.00    +0.000 A 
ATOM     14  C   UNL     1       1.343   4.017  17.888  0.00  0.00    +0.000 A 
ATOM     15  C   UNL     1       1.870   4.946  18.808  0.00  0.00    +0.000 A 
ENDROOT
BRANCH   1  19
ATOM     16  N   UNL     1       5.411   5.206  15.884  0.00  0.00    +0.000 NA
ATOM     17  C   UNL     1       4.898   4.266  16.898  0.00  0.00    +0.000 C 
ATOM     18  C   UNL     1       4.719   4.805  18.349  0.00  0.00    +0.000 C 
ATOM     19  N   UNL     1       4.099   6.143  18.495  0.00  0.00    +0.000 NA
ATOM     20  C   UNL     1       4.841   7.040  17.575  0.00  0.00    +0.000 C 
ATOM     21  C   UNL     1       4.882   6.564  16.099  0.00  0.00    +0.000 C 
BRANCH  16  22
ATOM     22  C   UNL     1       6.865   5.195  15.606  0.00  0.00    +0.000 C 
BRANCH  22  24
ATOM     23  C   UNL     1       7.932   4.718  17.834  0.00  0.00    +0.000 C 
ATOM     24  C   UNL     1       7.695   4.375  16.558  0.00  0.00    +0.000 C 
ENDBRANCH  22  24
BRANCH  22  25
ATOM     25  C   UNL     1       7.166   4.800  14.134  0.00  0.00    +0.000 C 
BRANCH  25  26
ATOM     26  O   UNL     1       8.229   5.601  13.606  0.00  0.00    +0.000 OA
ATOM     27  H   UNL     1       8.695   5.015  12.979  0.00  0.00    +0.000 HD
ENDBRANCH  25  26
ENDBRANCH  22  25
ENDBRANCH  16  22
ENDBRANCH   1  19
TORSDOF 5
ENDMDL
MODEL 3
REMARK VINA RESULT:      -6.5      7.749      9.715
REMARK  Name = 
REMARK  5 active torsions:
REMARK  status: ('A' for Active; 'I' for Inactive)
REMARK    1  A    between atoms: C_2  and  C_3
REMARK    2  A    between atoms: C_3  and  C_4
REMARK    3  A    between atoms: C_3  and  N_6
REMARK    4  A    between atoms: C_4  and  O_5
REMARK    5  A    between atoms: N_9  and  C_10
REMARK                            x       y       z     vdW  Elec       q    Type
REMARK                         _______ _______ _______ _____ _____    ______ ____
ROOT
ATOM      1  C   UNL     1      -1.519  12.287  19.925  0.00  0.00    +0.000 C 
ATOM      2  C   UNL     1      -2.195  11.431  18.829  0.00  0.00    +0.000 A 
ATOM      3  C   UNL     1      -1.346  10.551  18.109  0.00  0.00    +0.000 A 
ATOM      4  C   UNL     1      -1.781   9.831  16.998  0.00  0.00    +0.000 A 
ATOM      5  C   UNL     1      -3.096   9.943  16.587  0.00  0.00    +0.000 A 
ATOM      6  C   UNL     1      -3.969  10.752  17.311  0.00  0.00    +0.000 A 
ATOM      7  C   UNL     1      -3.549  11.502  18.437  0.00  0.00    +0.000 A 
ATOM      8  C   UNL     1      -4.662  12.227  19.161  0.00  0.00    +0.000 C 
ATOM      9  C   UNL     1      -4.351  13.318  20.176  0.00  0.00    +0.000 C 
ATOM     10  C   UNL     1      -3.598  12.813  21.374  0.00  0.00    +0.000 A 
ATOM     11  C   UNL     1      -4.206  12.862  22.644  0.00  0.00    +0.000 A 
ATOM     12  C   UNL     1      -3.541  12.395  23.777  0.00  0.00    +0.000 A 
ATOM     13  C   UNL     1      -2.265  11.863  23.658  0.00  0.00    +0.000 A 
ATOM     14  C   UNL     1      -1.648  11.810  22.406  0.00  0.00    +0.000 A 
ATOM     15  C   UNL     1      -2.293  12.296  21.250  0.00  0.00    +0.000 A 
ENDROOT
BRANCH   1  19
ATOM     16  N   UNL     1       1.925  13.864  19.737  0.00  0.00    +0.000 NA
ATOM     17  C   UNL     1       0.992  14.169  20.837  0.00  0.00    +0.000 C 
ATOM     18  C   UNL     1      -0.480  14.506  20.457  0.00  0.00    +0.000 C 
ATOM     19  N   UNL     1      -1.121  13.647  19.434  0.00  0.00    +0.000 NA
ATOM     20  C   UNL     1      -0.172  13.590  18.295  0.00  0.00    +0.000 C 
ATOM     21  C   UNL     1       1.255  13.107  18.665  0.00  0.00    +0.000 C 
BRANCH  16  22
ATOM     22  C   UNL     1       2.766  14.967  19.219  0.00  0.00    +0.000 C 
BRANCH  22  24
ATOM     23  C   UNL     1       3.069  17.251  20.231  0.00  0.00    +0.000 C 
ATOM     24  C   UNL     1       3.280  15.926  20.261  0.00  0.00    +0.000 C 
ENDBRANCH  22  24
BRANCH  22  25
ATOM     25  C   UNL     1       3.929  14.437  18.337  0.00  0.00    +0.000 C 
BRANCH  25  26
ATOM     26  O   UNL     1       3.968  15.133  17.086  0.00  0.00    +0.000 OA
ATOM     27  H   UNL     1       4.917  15.288  16.916  0.00  0.00    +0.000 HD
ENDBRANCH  25  26
ENDBRANCH  22  25
ENDBRANCH  16  22
ENDBRANCH   1  19
TORSDOF 5
ENDMDL
MODEL 4
REMARK VINA RESULT:      -6.5      7.459     11.220
REMARK  Name = 
REMARK  5 active torsions:
REMARK  status: ('A' for Active; 'I' for Inactive)
REMARK    1  A    between atoms: C_2  and  C_3
REMARK    2  A    between atoms: C_3  and  C_4
REMARK    3  A    between atoms: C_3  and  N_6
REMARK    4  A    between atoms: C_4  and  O_5
REMARK    5  A    between atoms: N_9  and  C_10
REMARK                            x       y       z     vdW  Elec       q    Type
REMARK                         _______ _______ _______ _____ _____    ______ ____
ROOT
ATOM      1  C   UNL     1      -1.203  12.686  19.750  0.00  0.00    +0.000 C 
ATOM      2  C   UNL     1      -1.938  11.725  18.787  0.00  0.00    +0.000 A 
ATOM      3  C   UNL     1      -3.309  12.006  18.547  0.00  0.00    +0.000 A 
ATOM      4  C   UNL     1      -4.135  11.147  17.826  0.00  0.00    +0.000 A 
ATOM      5  C   UNL     1      -3.607   9.988  17.289  0.00  0.00    +0.000 A 
ATOM      6  C   UNL     1      -2.252   9.715  17.455  0.00  0.00    +0.000 A 
ATOM      7  C   UNL     1      -1.393  10.568  18.194  0.00  0.00    +0.000 A 
ATOM      8  C   UNL     1       0.065  10.168  18.166  0.00  0.00    +0.000 C 
ATOM      9  C   UNL     1       1.058  10.770  19.150  0.00  0.00    +0.000 C 
ATOM     10  C   UNL     1       1.230  12.254  18.982  0.00  0.00    +0.000 A 
ATOM     11  C   UNL     1       2.480  12.764  18.581  0.00  0.00    +0.000 A 
ATOM     12  C   UNL     1       2.675  14.134  18.407  0.00  0.00    +0.000 A 
ATOM     13  C   UNL     1       1.622  15.012  18.621  0.00  0.00    +0.000 A 
ATOM     14  C   UNL     1       0.378  14.521  19.021  0.00  0.00    +0.000 A 
ATOM     15  C   UNL     1       0.164  13.143  19.224  0.00  0.00    +0.000 A 
ENDROOT
BRANCH   1  19
ATOM     16  N   UNL     1      -2.522  14.333  22.902  0.00  0.00    +0.000 NA
ATOM     17  C   UNL     1      -1.092  14.375  22.546  0.00  0.00    +0.000 C 
ATOM     18  C   UNL     1      -0.422  13.038  22.107  0.00  0.00    +0.000 C 
ATOM     19  N   UNL     1      -1.185  12.186  21.164  0.00  0.00    +0.000 NA
ATOM     20  C   UNL     1      -2.544  12.051  21.742  0.00  0.00    +0.000 C 
ATOM     21  C   UNL     1      -3.260  13.396  22.036  0.00  0.00    +0.000 C 
BRANCH  16  22
ATOM     22  C   UNL     1      -2.873  14.187  24.333  0.00  0.00    +0.000 C 
BRANCH  22  24
ATOM     23  C   UNL     1      -1.641  15.563  26.041  0.00  0.00    +0.000 C 
ATOM     24  C   UNL     1      -2.656  15.416  25.176  0.00  0.00    +0.000 C 
ENDBRANCH  22  24
BRANCH  22  25
ATOM     25  C   UNL     1      -4.315  13.640  24.518  0.00  0.00    +0.000 C 
BRANCH  25  26
ATOM     26  O   UNL     1      -4.317  12.520  25.409  0.00  0.00    +0.000 OA
ATOM     27  H   UNL     1      -3.688  11.886  25.015  0.00  0.00    +0.000 HD
ENDBRANCH  25  26
ENDBRANCH  22  25
ENDBRANCH  16  22
ENDBRANCH   1  19
TORSDOF 5
ENDMDL
MODEL 5
REMARK VINA RESULT:      -6.5      7.949      9.734
REMARK  Name = 
REMARK  5 active torsions:
REMARK  status: ('A' for Active; 'I' for Inactive)
REMARK    1  A    between atoms: C_2  and  C_3
REMARK    2  A    between atoms: C_3  and  C_4
REMARK    3  A    between atoms: C_3  and  N_6
REMARK    4  A    between atoms: C_4  and  O_5
REMARK    5  A    between atoms: N_9  and  C_10
REMARK                            x       y       z     vdW  Elec       q    Type
REMARK                         _______ _______ _______ _____ _____    ______ ____
ROOT
ATOM      1  C   UNL     1      -1.503  12.290  19.854  0.00  0.00    +0.000 C 
ATOM      2  C   UNL     1      -2.188  11.424  18.772  0.00  0.00    +0.000 A 
ATOM      3  C   UNL     1      -1.341  10.556  18.035  0.00  0.00    +0.000 A 
ATOM      4  C   UNL     1      -1.787   9.830  16.933  0.00  0.00    +0.000 A 
ATOM      5  C   UNL     1      -3.111   9.923  16.548  0.00  0.00    +0.000 A 
ATOM      6  C   UNL     1      -3.981  10.719  17.288  0.00  0.00    +0.000 A 
ATOM      7  C   UNL     1      -3.550  11.476  18.407  0.00  0.00    +0.000 A 
ATOM      8  C   UNL     1      -4.658  12.185  19.152  0.00  0.00    +0.000 C 
ATOM      9  C   UNL     1      -4.344  13.280  20.161  0.00  0.00    +0.000 C 
ATOM     10  C   UNL     1      -3.560  12.786  21.344  0.00  0.00    +0.000 A 
ATOM     11  C   UNL     1      -4.144  12.827  22.626  0.00  0.00    +0.000 A 
ATOM     12  C   UNL     1      -3.450  12.369  23.745  0.00  0.00    +0.000 A 
ATOM     13  C   UNL     1      -2.169  11.856  23.601  0.00  0.00    +0.000 A 
ATOM     14  C   UNL     1      -1.576  11.812  22.337  0.00  0.00    +0.000 A 
ATOM     15  C   UNL     1      -2.250  12.288  21.195  0.00  0.00    +0.000 A 
ENDROOT
BRANCH   1  19
ATOM     16  N   UNL     1       1.870  14.023  19.860  0.00  0.00    +0.000 NA
ATOM     17  C   UNL     1       0.850  14.309  20.886  0.00  0.00    +0.000 C 
ATOM     18  C   UNL     1      -0.606  14.567  20.397  0.00  0.00    +0.000 C 
ATOM     19  N   UNL     1      -1.134  13.655  19.356  0.00  0.00    +0.000 NA
ATOM     20  C   UNL     1      -0.106  13.617  18.287  0.00  0.00    +0.000 C 
ATOM     21  C   UNL     1       1.312  13.210  18.766  0.00  0.00    +0.000 C 
BRANCH  16  22
ATOM     22  C   UNL     1       2.694  15.152  19.372  0.00  0.00    +0.000 C 
BRANCH  22  24
ATOM     23  C   UNL     1       4.696  14.764  17.899  0.00  0.00    +0.000 C 
ATOM     24  C   UNL     1       3.372  14.928  18.047  0.00  0.00    +0.000 C 
ENDBRANCH  22  24
BRANCH  22  25
ATOM     25  C   UNL     1       1.894  16.484  19.363  0.00  0.00    +0.000 C 
BRANCH  25  26
ATOM     26  O   UNL     1       2.529  17.445  18.513  0.00  0.00    +0.000 OA
ATOM     27  H   UNL     1       2.172  17.265  17.622  0.00  0.00    +0.000 HD
ENDBRANCH  25  26
ENDBRANCH  22  25
ENDBRANCH  16  22
ENDBRANCH   1  19
TORSDOF 5
ENDMDL
MODEL 6
REMARK VINA RESULT:      -6.2      7.204     11.721
REMARK  Name = 
REMARK  5 active torsions:
REMARK  status: ('A' for Active; 'I' for Inactive)
REMARK    1  A    between atoms: C_2  and  C_3
REMARK    2  A    between atoms: C_3  and  C_4
REMARK    3  A    between atoms: C_3  and  N_6
REMARK    4  A    between atoms: C_4  and  O_5
REMARK    5  A    between atoms: N_9  and  C_10
REMARK                            x       y       z     vdW  Elec       q    Type
REMARK                         _______ _______ _______ _____ _____    ______ ____
ROOT
ATOM      1  C   UNL     1      -0.152  13.766  19.815  0.00  0.00    +0.000 C 
ATOM      2  C   UNL     1       0.235  12.452  19.096  0.00  0.00    +0.000 A 
ATOM      3  C   UNL     1      -0.817  11.524  18.880  0.00  0.00    +0.000 A 
ATOM      4  C   UNL     1      -0.595  10.242  18.384  0.00  0.00    +0.000 A 
ATOM      5  C   UNL     1       0.690   9.853  18.054  0.00  0.00    +0.000 A 
ATOM      6  C   UNL     1       1.735  10.763  18.198  0.00  0.00    +0.000 A 
ATOM      7  C   UNL     1       1.536  12.069  18.711  0.00  0.00    +0.000 A 
ATOM      8  C   UNL     1       2.766  12.949  18.683  0.00  0.00    +0.000 C 
ATOM      9  C   UNL     1       2.815  14.246  19.477  0.00  0.00    +0.000 C 
ATOM     10  C   UNL     1       1.805  15.260  19.016  0.00  0.00    +0.000 A 
ATOM     11  C   UNL     1       2.250  16.474  18.457  0.00  0.00    +0.000 A 
ATOM     12  C   UNL     1       1.343  17.434  18.011  0.00  0.00    +0.000 A 
ATOM     13  C   UNL     1      -0.020  17.192  18.107  0.00  0.00    +0.000 A 
ATOM     14  C   UNL     1      -0.476  15.994  18.661  0.00  0.00    +0.000 A 
ATOM     15  C   UNL     1       0.423  15.018  19.138  0.00  0.00    +0.000 A 
ENDROOT
BRANCH   1  19
ATOM     16  N   UNL     1      -2.676  13.814  22.644  0.00  0.00    +0.000 NA
ATOM     17  C   UNL     1      -1.938  15.027  22.243  0.00  0.00    +0.000 C 
ATOM     18  C   UNL     1      -0.399  14.895  22.040  0.00  0.00    +0.000 C 
ATOM     19  N   UNL     1       0.078  13.706  21.296  0.00  0.00    +0.000 NA
ATOM     20  C   UNL     1      -0.578  12.536  21.930  0.00  0.00    +0.000 C 
ATOM     21  C   UNL     1      -2.126  12.615  21.990  0.00  0.00    +0.000 C 
BRANCH  16  22
ATOM     22  C   UNL     1      -2.938  13.611  24.087  0.00  0.00    +0.000 C 
BRANCH  22  24
ATOM     23  C   UNL     1      -2.220  15.380  25.726  0.00  0.00    +0.000 C 
ATOM     24  C   UNL     1      -3.136  14.871  24.887  0.00  0.00    +0.000 C 
ENDBRANCH  22  24
BRANCH  22  25
ATOM     25  C   UNL     1      -4.108  12.618  24.324  0.00  0.00    +0.000 C 
BRANCH  25  26
ATOM     26  O   UNL     1      -4.439  12.555  25.715  0.00  0.00    +0.000 OA
ATOM     27  H   UNL     1      -3.856  11.863  26.080  0.00  0.00    +0.000 HD
ENDBRANCH  25  26
ENDBRANCH  22  25
ENDBRANCH  16  22
ENDBRANCH   1  19
TORSDOF 5
ENDMDL
MODEL 7
REMARK VINA RESULT:      -6.2      7.834     11.619
REMARK  Name = 
REMARK  5 active torsions:
REMARK  status: ('A' for Active; 'I' for Inactive)
REMARK    1  A    between atoms: C_2  and  C_3
REMARK    2  A    between atoms: C_3  and  C_4
REMARK    3  A    between atoms: C_3  and  N_6
REMARK    4  A    between atoms: C_4  and  O_5
REMARK    5  A    between atoms: N_9  and  C_10
REMARK                            x       y       z     vdW  Elec       q    Type
REMARK                         _______ _______ _______ _____ _____    ______ ____
ROOT
ATOM      1  C   UNL     1      -1.710  12.883  19.489  0.00  0.00    +0.000 C 
ATOM      2  C   UNL     1      -2.037  11.773  18.463  0.00  0.00    +0.000 A 
ATOM      3  C   UNL     1      -3.307  11.855  17.834  0.00  0.00    +0.000 A 
ATOM      4  C   UNL     1      -3.800  10.850  17.006  0.00  0.00    +0.000 A 
ATOM      5  C   UNL     1      -3.021   9.737  16.749  0.00  0.00    +0.000 A 
ATOM      6  C   UNL     1      -1.746   9.656  17.303  0.00  0.00    +0.000 A 
ATOM      7  C   UNL     1      -1.226  10.660  18.158  0.00  0.00    +0.000 A 
ATOM      8  C   UNL     1       0.216  10.454  18.566  0.00  0.00    +0.000 C 
ATOM      9  C   UNL     1       0.821  11.244  19.717  0.00  0.00    +0.000 C 
ATOM     10  C   UNL     1       0.873  12.724  19.455  0.00  0.00    +0.000 A 
ATOM     11  C   UNL     1       2.123  13.366  19.358  0.00  0.00    +0.000 A 
ATOM     12  C   UNL     1       2.209  14.735  19.108  0.00  0.00    +0.000 A 
ATOM     13  C   UNL     1       1.051  15.480  18.940  0.00  0.00    +0.000 A 
ATOM     14  C   UNL     1      -0.196  14.858  19.036  0.00  0.00    +0.000 A 
ATOM     15  C   UNL     1      -0.308  13.479  19.309  0.00  0.00    +0.000 A 
ENDROOT
BRANCH   1  19
ATOM     16  N   UNL     1      -3.899  14.637  22.041  0.00  0.00    +0.000 NA
ATOM     17  C   UNL     1      -2.430  14.763  22.063  0.00  0.00    +0.000 C 
ATOM     18  C   UNL     1      -1.596  13.454  21.927  0.00  0.00    +0.000 C 
ATOM     19  N   UNL     1      -2.036  12.484  20.897  0.00  0.00    +0.000 NA
ATOM     20  C   UNL     1      -3.490  12.286  21.116  0.00  0.00    +0.000 C 
ATOM     21  C   UNL     1      -4.331  13.590  21.098  0.00  0.00    +0.000 C 
BRANCH  16  22
ATOM     22  C   UNL     1      -4.605  14.563  23.341  0.00  0.00    +0.000 C 
BRANCH  22  24
ATOM     23  C   UNL     1      -4.320  12.476  24.716  0.00  0.00    +0.000 C 
ATOM     24  C   UNL     1      -3.932  13.719  24.390  0.00  0.00    +0.000 C 
ENDBRANCH  22  24
BRANCH  22  25
ATOM     25  C   UNL     1      -4.932  15.976  23.897  0.00  0.00    +0.000 C 
BRANCH  25  26
ATOM     26  O   UNL     1      -4.325  16.164  25.180  0.00  0.00    +0.000 OA
ATOM     27  H   UNL     1      -5.063  16.101  25.816  0.00  0.00    +0.000 HD
ENDBRANCH  25  26
ENDBRANCH  22  25
ENDBRANCH  16  22
ENDBRANCH   1  19
TORSDOF 5
ENDMDL
MODEL 8
REMARK VINA RESULT:      -6.1      7.724     11.717
REMARK  Name = 
REMARK  5 active torsions:
REMARK  status: ('A' for Active; 'I' for Inactive)
REMARK    1  A    between atoms: C_2  and  C_3
REMARK    2  A    between atoms: C_3  and  C_4
REMARK    3  A    between atoms: C_3  and  N_6
REMARK    4  A    between atoms: C_4  and  O_5
REMARK    5  A    between atoms: N_9  and  C_10
REMARK                            x       y       z     vdW  Elec       q    Type
REMARK                         _______ _______ _______ _____ _____    ______ ____
ROOT
ATOM      1  C   UNL     1      -1.488  12.937  19.682  0.00  0.00    +0.000 C 
ATOM      2  C   UNL     1      -1.964  11.834  18.707  0.00  0.00    +0.000 A 
ATOM      3  C   UNL     1      -3.296  11.951  18.231  0.00  0.00    +0.000 A 
ATOM      4  C   UNL     1      -3.910  10.959  17.471  0.00  0.00    +0.000 A 
ATOM      5  C   UNL     1      -3.198   9.824  17.130  0.00  0.00    +0.000 A 
ATOM      6  C   UNL     1      -1.869   9.708  17.530  0.00  0.00    +0.000 A 
ATOM      7  C   UNL     1      -1.225  10.699  18.314  0.00  0.00    +0.000 A 
ATOM      8  C   UNL     1       0.248  10.453  18.551  0.00  0.00    +0.000 C 
ATOM      9  C   UNL     1       1.007  11.228  19.619  0.00  0.00    +0.000 C 
ATOM     10  C   UNL     1       1.068  12.705  19.346  0.00  0.00    +0.000 A 
ATOM     11  C   UNL     1       2.315  13.312  19.100  0.00  0.00    +0.000 A 
ATOM     12  C   UNL     1       2.409  14.677  18.836  0.00  0.00    +0.000 A 
ATOM     13  C   UNL     1       1.260  15.454  18.802  0.00  0.00    +0.000 A 
ATOM     14  C   UNL     1       0.017  14.867  19.046  0.00  0.00    +0.000 A 
ATOM     15  C   UNL     1      -0.100  13.493  19.337  0.00  0.00    +0.000 A 
ENDROOT
BRANCH   1  19
ATOM     16  N   UNL     1      -3.370  14.720  22.450  0.00  0.00    +0.000 NA
ATOM     17  C   UNL     1      -1.906  14.837  22.307  0.00  0.00    +0.000 C 
ATOM     18  C   UNL     1      -1.100  13.522  22.089  0.00  0.00    +0.000 C 
ATOM     19  N   UNL     1      -1.657  12.548  21.121  0.00  0.00    +0.000 NA
ATOM     20  C   UNL     1      -3.078  12.361  21.501  0.00  0.00    +0.000 C 
ATOM     21  C   UNL     1      -3.909  13.670  21.569  0.00  0.00    +0.000 C 
BRANCH  16  22
ATOM     22  C   UNL     1      -3.926  14.659  23.821  0.00  0.00    +0.000 C 
BRANCH  22  24
ATOM     23  C   UNL     1      -4.555  16.829  24.928  0.00  0.00    +0.000 C 
ATOM     24  C   UNL     1      -3.654  15.867  24.679  0.00  0.00    +0.000 C 
ENDBRANCH  22  24
BRANCH  22  25
ATOM     25  C   UNL     1      -5.442  14.322  23.810  0.00  0.00    +0.000 C 
BRANCH  25  26
ATOM     26  O   UNL     1      -5.694  13.117  24.540  0.00  0.00    +0.000 OA
ATOM     27  H   UNL     1      -5.900  12.450  23.857  0.00  0.00    +0.000 HD
ENDBRANCH  25  26
ENDBRANCH  22  25
ENDBRANCH  16  22
ENDBRANCH   1  19
TORSDOF 5
ENDMDL
MODEL 9
REMARK VINA RESULT:      -6.1      9.067     11.789
REMARK  Name = 
REMARK  5 active torsions:
REMARK  status: ('A' for Active; 'I' for Inactive)
REMARK    1  A    between atoms: C_2  and  C_3
REMARK    2  A    between atoms: C_3  and  C_4
REMARK    3  A    between atoms: C_3  and  N_6
REMARK    4  A    between atoms: C_4  and  O_5
REMARK    5  A    between atoms: N_9  and  C_10
REMARK                            x       y       z     vdW  Elec       q    Type
REMARK                         _______ _______ _______ _____ _____    ______ ____
ROOT
ATOM      1  C   UNL     1       8.368  13.843  20.124  0.00  0.00    +0.000 C 
ATOM      2  C   UNL     1       9.482  13.418  19.139  0.00  0.00    +0.000 A 
ATOM      3  C   UNL     1       9.558  12.033  18.838  0.00  0.00    +0.000 A 
ATOM      4  C   UNL     1      10.597  11.484  18.091  0.00  0.00    +0.000 A 
ATOM      5  C   UNL     1      11.583  12.311  17.586  0.00  0.00    +0.000 A 
ATOM      6  C   UNL     1      11.503  13.683  17.812  0.00  0.00    +0.000 A 
ATOM      7  C   UNL     1      10.462  14.264  18.580  0.00  0.00    +0.000 A 
ATOM      8  C   UNL     1      10.479  15.776  18.617  0.00  0.00    +0.000 C 
ATOM      9  C   UNL     1       9.646  16.540  19.637  0.00  0.00    +0.000 C 
ATOM     10  C   UNL     1       8.167  16.337  19.463  0.00  0.00    +0.000 A 
ATOM     11  C   UNL     1       7.355  17.433  19.111  0.00  0.00    +0.000 A 
ATOM     12  C   UNL     1       5.980  17.280  18.934  0.00  0.00    +0.000 A 
ATOM     13  C   UNL     1       5.399  16.031  19.095  0.00  0.00    +0.000 A 
ATOM     14  C   UNL     1       6.190  14.936  19.447  0.00  0.00    +0.000 A 
ATOM     15  C   UNL     1       7.578  15.071  19.652  0.00  0.00    +0.000 A 
ENDROOT
BRANCH   1  19
ATOM     16  N   UNL     1       7.108  12.026  23.205  0.00  0.00    +0.000 NA
ATOM     17  C   UNL     1       6.711  13.415  22.907  0.00  0.00    +0.000 C 
ATOM     18  C   UNL     1       7.837  14.413  22.507  0.00  0.00    +0.000 C 
ATOM     19  N   UNL     1       8.851  13.927  21.542  0.00  0.00    +0.000 NA
ATOM     20  C   UNL     1       9.321  12.621  22.065  0.00  0.00    +0.000 C 
ATOM     21  C   UNL     1       8.197  11.581  22.318  0.00  0.00    +0.000 C 
BRANCH  16  22
ATOM     22  C   UNL     1       7.339  11.663  24.622  0.00  0.00    +0.000 C 
BRANCH  22  24
ATOM     23  C   UNL     1       8.093  13.260  26.414  0.00  0.00    +0.000 C 
ATOM     24  C   UNL     1       8.364  12.501  25.341  0.00  0.00    +0.000 C 
ENDBRANCH  22  24
BRANCH  22  25
ATOM     25  C   UNL     1       6.011  11.610  25.425  0.00  0.00    +0.000 C 
BRANCH  25  26
ATOM     26  O   UNL     1       5.178  10.547  24.948  0.00  0.00    +0.000 OA
ATOM     27  H   UNL     1       4.592  10.966  24.289  0.00  0.00    +0.000 HD
ENDBRANCH  25  26
ENDBRANCH  22  25
ENDBRANCH  16  22
ENDBRANCH   1  19
TORSDOF 5
ENDMDL
