MODEL 1
REMARK VINA RESULT:      -7.2      0.000      0.000
REMARK  Name = 
REMARK  8 active torsions:
REMARK  status: ('A' for Active; 'I' for Inactive)
REMARK    1  A    between atoms: C_1  and  O_2
REMARK    2  A    between atoms: O_2  and  C_3
REMARK    3  A    between atoms: C_7  and  C_8
REMARK    4  A    between atoms: C_8  and  N_9
REMARK    5  A    between atoms: C_12  and  C_13
REMARK    6  A    between atoms: C_12  and  C_15
REMARK    7  A    between atoms: C_13  and  O_14
REMARK    8  A    between atoms: C_15  and  C_16
REMARK                            x       y       z     vdW  Elec       q    Type
REMARK                         _______ _______ _______ _____ _____    ______ ____
ROOT
ATOM      1  N   UNL     1       6.254   5.434  17.081  0.00  0.00    +0.000 NA
ATOM      2  C   UNL     1       5.130   5.843  16.225  0.00  0.00    +0.000 C 
ATOM      3  C   UNL     1       4.123   6.718  16.980  0.00  0.00    +0.000 C 
ATOM      4  C   UNL     1       3.517   6.014  18.212  0.00  0.00    +0.000 C 
ATOM      5  C   UNL     1       4.724   5.548  19.082  0.00  0.00    +0.000 C 
ATOM      6  C   UNL     1       5.793   4.762  18.308  0.00  0.00    +0.000 C 
ENDROOT
BRANCH   1   7
ATOM      7  C   UNL     1       7.187   4.531  16.358  0.00  0.00    +0.000 C 
BRANCH   7  12
ATOM      8  C   UNL     1       6.192   3.567  12.787  0.00  0.00    +0.000 A 
ATOM      9  C   UNL     1       6.970   4.455  12.041  0.00  0.00    +0.000 A 
ATOM     10  C   UNL     1       7.820   5.360  12.672  0.00  0.00    +0.000 A 
ATOM     11  C   UNL     1       7.887   5.391  14.063  0.00  0.00    +0.000 A 
ATOM     12  C   UNL     1       7.090   4.543  14.841  0.00  0.00    +0.000 A 
ATOM     13  C   UNL     1       6.250   3.616  14.184  0.00  0.00    +0.000 A 
BRANCH   8  15
ATOM     14  C   UNL     1       4.248   3.251  11.445  0.00  0.00    +0.000 C 
ATOM     15  O   UNL     1       5.431   2.722  12.028  0.00  0.00    +0.000 OA
ENDBRANCH   8  15
ENDBRANCH   7  12
ENDBRANCH   1   7
BRANCH   4  16
ATOM     16  C   UNL     1       2.720   7.050  19.041  0.00  0.00    +0.000 C 
BRANCH  16  17
ATOM     17  O   UNL     1       2.448   8.231  18.298  0.00  0.00    +0.000 OA
ATOM     18  H   UNL     1       2.262   7.974  17.380  0.00  0.00    +0.000 HD
ENDBRANCH  16  17
ENDBRANCH   4  16
BRANCH   4  19
ATOM     19  C   UNL     1       2.644   4.766  17.847  0.00  0.00    +0.000 C 
BRANCH  19  20
ATOM     20  C   UNL     1       1.368   4.418  18.653  0.00  0.00    +0.000 C 
ATOM     21  C   UNL     1       1.416   4.326  20.173  0.00  0.00    +0.000 C 
ATOM     22  C   UNL     1       2.202   3.141  20.717  0.00  0.00    +0.000 C 
ATOM     23  C   UNL     1       2.300   1.925  19.802  0.00  0.00    +0.000 C 
ATOM     24  C   UNL     1       1.701   2.044  18.404  0.00  0.00    +0.000 C 
ATOM     25  O   UNL     1       0.836   3.156  18.207  0.00  0.00    +0.000 OA
ENDBRANCH  19  20
ENDBRANCH   4  19
TORSDOF 7
ENDMDL
MODEL 2
REMARK VINA RESULT:      -7.1      1.416      1.846
REMARK  Name = 
REMARK  8 active torsions:
REMARK  status: ('A' for Active; 'I' for Inactive)
REMARK    1  A    between atoms: C_1  and  O_2
REMARK    2  A    between atoms: O_2  and  C_3
REMARK    3  A    between atoms: C_7  and  C_8
REMARK    4  A    between atoms: C_8  and  N_9
REMARK    5  A    between atoms: C_12  and  C_13
REMARK    6  A    between atoms: C_12  and  C_15
REMARK    7  A    between atoms: C_13  and  O_14
REMARK    8  A    between atoms: C_15  and  C_16
REMARK                            x       y       z     vdW  Elec       q    Type
REMARK                         _______ _______ _______ _____ _____    ______ ____
ROOT
ATOM      1  N   UNL     1       5.493   5.149  16.501  0.00  0.00    +0.000 NA
ATOM      2  C   UNL     1       4.464   4.116  16.697  0.00  0.00    +0.000 C 
ATOM      3  C   UNL     1       3.199   4.685  17.352  0.00  0.00    +0.000 C 
ATOM      4  C   UNL     1       3.468   5.320  18.733  0.00  0.00    +0.000 C 
ATOM      5  C   UNL     1       4.593   6.377  18.511  0.00  0.00    +0.000 C 
ATOM      6  C   UNL     1       5.820   5.843  17.759  0.00  0.00    +0.000 C 
ENDROOT
BRANCH   1   7
ATOM      7  C   UNL     1       6.738   4.573  15.930  0.00  0.00    +0.000 C 
BRANCH   7  12
ATOM      8  C   UNL     1       6.077   3.434  12.333  0.00  0.00    +0.000 A 
ATOM      9  C   UNL     1       6.980   4.231  11.627  0.00  0.00    +0.000 A 
ATOM     10  C   UNL     1       7.809   5.130  12.295  0.00  0.00    +0.000 A 
ATOM     11  C   UNL     1       7.729   5.246  13.680  0.00  0.00    +0.000 A 
ATOM     12  C   UNL     1       6.805   4.492  14.413  0.00  0.00    +0.000 A 
ATOM     13  C   UNL     1       5.988   3.569  13.723  0.00  0.00    +0.000 A 
BRANCH   8  15
ATOM     14  C   UNL     1       4.065   3.011  11.129  0.00  0.00    +0.000 C 
ATOM     15  O   UNL     1       5.354   2.582  11.546  0.00  0.00    +0.000 OA
ENDBRANCH   8  15
ENDBRANCH   7  12
ENDBRANCH   1   7
BRANCH   4  16
ATOM     16  C   UNL     1       2.200   6.080  19.191  0.00  0.00    +0.000 C 
BRANCH  16  17
ATOM     17  O   UNL     1       2.170   6.264  20.600  0.00  0.00    +0.000 OA
ATOM     18  H   UNL     1       1.743   7.116  20.784  0.00  0.00    +0.000 HD
ENDBRANCH  16  17
ENDBRANCH   4  16
BRANCH   4  19
ATOM     19  C   UNL     1       3.947   4.287  19.808  0.00  0.00    +0.000 C 
BRANCH  19  20
ATOM     20  C   UNL     1       3.535   2.796  19.725  0.00  0.00    +0.000 C 
ATOM     21  C   UNL     1       2.265   2.386  18.990  0.00  0.00    +0.000 C 
ATOM     22  C   UNL     1       0.969   2.807  19.669  0.00  0.00    +0.000 C 
ATOM     23  C   UNL     1       1.036   3.000  21.180  0.00  0.00    +0.000 C 
ATOM     24  C   UNL     1       2.400   2.857  21.850  0.00  0.00    +0.000 C 
ATOM     25  O   UNL     1       3.407   2.250  21.051  0.00  0.00    +0.000 OA
ENDBRANCH  19  20
ENDBRANCH   4  19
TORSDOF 7
ENDMDL
MODEL 3
REMARK VINA RESULT:      -7.0      1.091      1.482
REMARK  Name = 
REMARK  8 active torsions:
REMARK  status: ('A' for Active; 'I' for Inactive)
REMARK    1  A    between atoms: C_1  and  O_2
REMARK    2  A    between atoms: O_2  and  C_3
REMARK    3  A    between atoms: C_7  and  C_8
REMARK    4  A    between atoms: C_8  and  N_9
REMARK    5  A    between atoms: C_12  and  C_13
REMARK    6  A    between atoms: C_12  and  C_15
REMARK    7  A    between atoms: C_13  and  O_14
REMARK    8  A    between atoms: C_15  and  C_16
REMARK                            x       y       z     vdW  Elec       q    Type
REMARK                         _______ _______ _______ _____ _____    ______ ____
ROOT
ATOM      1  N   UNL     1       6.216   5.444  16.873  0.00  0.00    +0.000 NA
ATOM      2  C   UNL     1       4.996   5.737  16.105  0.00  0.00    +0.000 C 
ATOM      3  C   UNL     1       4.060   6.690  16.857  0.00  0.00    +0.000 C 
ATOM      4  C   UNL     1       3.608   6.136  18.225  0.00  0.00    +0.000 C 
ATOM      5  C   UNL     1       4.913   5.789  19.004  0.00  0.00    +0.000 C 
ATOM      6  C   UNL     1       5.906   4.923  18.216  0.00  0.00    +0.000 C 
ENDROOT
BRANCH   1   7
ATOM      7  C   UNL     1       7.082   4.467  16.164  0.00  0.00    +0.000 C 
BRANCH   7  12
ATOM      8  C   UNL     1       6.152   3.540  12.566  0.00  0.00    +0.000 A 
ATOM      9  C   UNL     1       6.953   4.427  11.843  0.00  0.00    +0.000 A 
ATOM     10  C   UNL     1       7.798   5.318  12.499  0.00  0.00    +0.000 A 
ATOM     11  C   UNL     1       7.838   5.338  13.890  0.00  0.00    +0.000 A 
ATOM     12  C   UNL     1       7.017   4.491  14.645  0.00  0.00    +0.000 A 
ATOM     13  C   UNL     1       6.182   3.577  13.965  0.00  0.00    +0.000 A 
BRANCH   8  15
ATOM     14  C   UNL     1       5.998   1.493  11.357  0.00  0.00    +0.000 C 
ATOM     15  O   UNL     1       5.399   2.708  11.786  0.00  0.00    +0.000 OA
ENDBRANCH   8  15
ENDBRANCH   7  12
ENDBRANCH   1   7
BRANCH   4  16
ATOM     16  C   UNL     1       2.885   7.258  19.007  0.00  0.00    +0.000 C 
BRANCH  16  17
ATOM     17  O   UNL     1       2.577   6.867  20.339  0.00  0.00    +0.000 OA
ATOM     18  H   UNL     1       2.627   7.654  20.904  0.00  0.00    +0.000 HD
ENDBRANCH  16  17
ENDBRANCH   4  16
BRANCH   4  19
ATOM     19  C   UNL     1       2.727   4.846  18.112  0.00  0.00    +0.000 C 
BRANCH  19  20
ATOM     20  C   UNL     1       3.061   3.574  18.929  0.00  0.00    +0.000 C 
ATOM     21  C   UNL     1       2.492   2.221  18.518  0.00  0.00    +0.000 C 
ATOM     22  C   UNL     1       0.990   2.072  18.716  0.00  0.00    +0.000 C 
ATOM     23  C   UNL     1       0.367   2.948  19.798  0.00  0.00    +0.000 C 
ATOM     24  C   UNL     1       1.274   3.955  20.500  0.00  0.00    +0.000 C 
ATOM     25  O   UNL     1       2.668   3.757  20.302  0.00  0.00    +0.000 OA
ENDBRANCH  19  20
ENDBRANCH   4  19
TORSDOF 7
ENDMDL
MODEL 4
REMARK VINA RESULT:      -6.9      3.113      7.857
REMARK  Name = 
REMARK  8 active torsions:
REMARK  status: ('A' for Active; 'I' for Inactive)
REMARK    1  A    between atoms: C_1  and  O_2
REMARK    2  A    between atoms: O_2  and  C_3
REMARK    3  A    between atoms: C_7  and  C_8
REMARK    4  A    between atoms: C_8  and  N_9
REMARK    5  A    between atoms: C_12  and  C_13
REMARK    6  A    between atoms: C_12  and  C_15
REMARK    7  A    between atoms: C_13  and  O_14
REMARK    8  A    between atoms: C_15  and  C_16
REMARK                            x       y       z     vdW  Elec       q    Type
REMARK                         _______ _______ _______ _____ _____    ______ ____
ROOT
ATOM      1  N   UNL     1       2.467   6.464  18.885  0.00  0.00    +0.000 NA
ATOM      2  C   UNL     1       2.020   5.490  17.878  0.00  0.00    +0.000 C 
ATOM      3  C   UNL     1       2.185   4.045  18.364  0.00  0.00    +0.000 C 
ATOM      4  C   UNL     1       3.646   3.691  18.715  0.00  0.00    +0.000 C 
ATOM      5  C   UNL     1       4.115   4.761  19.747  0.00  0.00    +0.000 C 
ATOM      6  C   UNL     1       3.853   6.211  19.314  0.00  0.00    +0.000 C 
ENDROOT
BRANCH   1   7
ATOM      7  C   UNL     1       2.366   7.856  18.376  0.00  0.00    +0.000 C 
BRANCH   7  12
ATOM      8  C   UNL     1       0.417   9.407  21.286  0.00  0.00    +0.000 A 
ATOM      9  C   UNL     1      -0.268  10.435  20.634  0.00  0.00    +0.000 A 
ATOM     10  C   UNL     1      -0.118  10.634  19.264  0.00  0.00    +0.000 A 
ATOM     11  C   UNL     1       0.735   9.809  18.536  0.00  0.00    +0.000 A 
ATOM     12  C   UNL     1       1.468   8.795  19.165  0.00  0.00    +0.000 A 
ATOM     13  C   UNL     1       1.286   8.592  20.551  0.00  0.00    +0.000 A 
BRANCH   8  15
ATOM     14  C   UNL     1      -0.833  10.202  23.152  0.00  0.00    +0.000 C 
ATOM     15  O   UNL     1       0.145   9.317  22.622  0.00  0.00    +0.000 OA
ENDBRANCH   8  15
ENDBRANCH   7  12
ENDBRANCH   1   7
BRANCH   4  16
ATOM     16  C   UNL     1       3.671   2.317  19.427  0.00  0.00    +0.000 C 
BRANCH  16  17
ATOM     17  O   UNL     1       4.996   1.902  19.737  0.00  0.00    +0.000 OA
ATOM     18  H   UNL     1       5.324   2.458  20.462  0.00  0.00    +0.000 HD
ENDBRANCH  16  17
ENDBRANCH   4  16
BRANCH   4  19
ATOM     19  C   UNL     1       4.606   3.723  17.479  0.00  0.00    +0.000 C 
BRANCH  19  20
ATOM     20  C   UNL     1       5.749   4.764  17.379  0.00  0.00    +0.000 C 
ATOM     21  C   UNL     1       5.512   6.108  16.700  0.00  0.00    +0.000 C 
ATOM     22  C   UNL     1       5.313   6.036  15.193  0.00  0.00    +0.000 C 
ATOM     23  C   UNL     1       5.953   4.845  14.489  0.00  0.00    +0.000 C 
ATOM     24  C   UNL     1       6.634   3.792  15.360  0.00  0.00    +0.000 C 
ATOM     25  O   UNL     1       6.881   4.185  16.704  0.00  0.00    +0.000 OA
ENDBRANCH  19  20
ENDBRANCH   4  19
TORSDOF 7
ENDMDL
MODEL 5
REMARK VINA RESULT:      -6.8      2.892      6.958
REMARK  Name = 
REMARK  8 active torsions:
REMARK  status: ('A' for Active; 'I' for Inactive)
REMARK    1  A    between atoms: C_1  and  O_2
REMARK    2  A    between atoms: O_2  and  C_3
REMARK    3  A    between atoms: C_7  and  C_8
REMARK    4  A    between atoms: C_8  and  N_9
REMARK    5  A    between atoms: C_12  and  C_13
REMARK    6  A    between atoms: C_12  and  C_15
REMARK    7  A    between atoms: C_13  and  O_14
REMARK    8  A    between atoms: C_15  and  C_16
REMARK                            x       y       z     vdW  Elec       q    Type
REMARK                         _______ _______ _______ _____ _____    ______ ____
ROOT
ATOM      1  N   UNL     1       2.133   4.794  20.284  0.00  0.00    +0.000 NA
ATOM      2  C   UNL     1       1.445   4.600  18.999  0.00  0.00    +0.000 C 
ATOM      3  C   UNL     1       1.768   3.237  18.375  0.00  0.00    +0.000 C 
ATOM      4  C   UNL     1       3.276   3.036  18.113  0.00  0.00    +0.000 C 
ATOM      5  C   UNL     1       3.990   3.292  19.476  0.00  0.00    +0.000 C 
ATOM      6  C   UNL     1       3.589   4.607  20.160  0.00  0.00    +0.000 C 
ENDROOT
BRANCH   1   7
ATOM      7  C   UNL     1       1.866   6.144  20.844  0.00  0.00    +0.000 C 
BRANCH   7  12
ATOM      8  C   UNL     1       1.235   9.557  19.223  0.00  0.00    +0.000 A 
ATOM      9  C   UNL     1       1.938   9.421  18.024  0.00  0.00    +0.000 A 
ATOM     10  C   UNL     1       2.610   8.238  17.724  0.00  0.00    +0.000 A 
ATOM     11  C   UNL     1       2.594   7.184  18.633  0.00  0.00    +0.000 A 
ATOM     12  C   UNL     1       1.933   7.303  19.862  0.00  0.00    +0.000 A 
ATOM     13  C   UNL     1       1.238   8.500  20.141  0.00  0.00    +0.000 A 
BRANCH   8  15
ATOM     14  C   UNL     1       1.249  11.906  18.824  0.00  0.00    +0.000 C 
ATOM     15  O   UNL     1       0.604  10.761  19.364  0.00  0.00    +0.000 OA
ENDBRANCH   8  15
ENDBRANCH   7  12
ENDBRANCH   1   7
BRANCH   4  16
ATOM     16  C   UNL     1       3.526   1.558  17.728  0.00  0.00    +0.000 C 
BRANCH  16  17
ATOM     17  O   UNL     1       4.384   0.904  18.655  0.00  0.00    +0.000 OA
ATOM     18  H   UNL     1       5.265   0.835  18.254  0.00  0.00    +0.000 HD
ENDBRANCH  16  17
ENDBRANCH   4  16
BRANCH   4  19
ATOM     19  C   UNL     1       3.857   4.021  17.044  0.00  0.00    +0.000 C 
BRANCH  19  20
ATOM     20  C   UNL     1       5.354   3.982  16.648  0.00  0.00    +0.000 C 
ATOM     21  C   UNL     1       6.427   4.409  17.643  0.00  0.00    +0.000 C 
ATOM     22  C   UNL     1       6.449   5.897  17.961  0.00  0.00    +0.000 C 
ATOM     23  C   UNL     1       5.894   6.821  16.882  0.00  0.00    +0.000 C 
ATOM     24  C   UNL     1       5.280   6.172  15.645  0.00  0.00    +0.000 C 
ATOM     25  O   UNL     1       5.571   4.790  15.476  0.00  0.00    +0.000 OA
ENDBRANCH  19  20
ENDBRANCH   4  19
TORSDOF 7
ENDMDL
MODEL 6
REMARK VINA RESULT:      -6.8      3.080      7.838
REMARK  Name = 
REMARK  8 active torsions:
REMARK  status: ('A' for Active; 'I' for Inactive)
REMARK    1  A    between atoms: C_1  and  O_2
REMARK    2  A    between atoms: O_2  and  C_3
REMARK    3  A    between atoms: C_7  and  C_8
REMARK    4  A    between atoms: C_8  and  N_9
REMARK    5  A    between atoms: C_12  and  C_13
REMARK    6  A    between atoms: C_12  and  C_15
REMARK    7  A    between atoms: C_13  and  O_14
REMARK    8  A    between atoms: C_15  and  C_16
REMARK                            x       y       z     vdW  Elec       q    Type
REMARK                         _______ _______ _______ _____ _____    ______ ____
ROOT
ATOM      1  N   UNL     1       2.413   6.204  19.121  0.00  0.00    +0.000 NA
ATOM      2  C   UNL     1       1.966   5.374  17.992  0.00  0.00    +0.000 C 
ATOM      3  C   UNL     1       2.149   3.878  18.273  0.00  0.00    +0.000 C 
ATOM      4  C   UNL     1       3.615   3.493  18.562  0.00  0.00    +0.000 C 
ATOM      5  C   UNL     1       4.083   4.416  19.729  0.00  0.00    +0.000 C 
ATOM      6  C   UNL     1       3.805   5.909  19.502  0.00  0.00    +0.000 C 
ENDROOT
BRANCH   1   7
ATOM      7  C   UNL     1       2.294   7.652  18.809  0.00  0.00    +0.000 C 
BRANCH   7  12
ATOM      8  C   UNL     1       0.116  10.476  20.206  0.00  0.00    +0.000 A 
ATOM      9  C   UNL     1       0.002  10.092  21.544  0.00  0.00    +0.000 A 
ATOM     10  C   UNL     1       0.625   8.937  22.008  0.00  0.00    +0.000 A 
ATOM     11  C   UNL     1       1.358   8.146  21.129  0.00  0.00    +0.000 A 
ATOM     12  C   UNL     1       1.458   8.479  19.772  0.00  0.00    +0.000 A 
ATOM     13  C   UNL     1       0.840   9.667  19.323  0.00  0.00    +0.000 A 
BRANCH   8  15
ATOM     14  C   UNL     1       0.018  12.439  18.859  0.00  0.00    +0.000 C 
ATOM     15  O   UNL     1      -0.524  11.646  19.906  0.00  0.00    +0.000 OA
ENDBRANCH   8  15
ENDBRANCH   7  12
ENDBRANCH   1   7
BRANCH   4  16
ATOM     16  C   UNL     1       3.660   2.035  19.077  0.00  0.00    +0.000 C 
BRANCH  16  17
ATOM     17  O   UNL     1       4.913   1.716  19.668  0.00  0.00    +0.000 OA
ATOM     18  H   UNL     1       5.478   1.324  18.983  0.00  0.00    +0.000 HD
ENDBRANCH  16  17
ENDBRANCH   4  16
BRANCH   4  19
ATOM     19  C   UNL     1       4.565   3.705  17.336  0.00  0.00    +0.000 C 
BRANCH  19  20
ATOM     20  C   UNL     1       5.673   4.788  17.358  0.00  0.00    +0.000 C 
ATOM     21  C   UNL     1       5.440   6.143  16.700  0.00  0.00    +0.000 C 
ATOM     22  C   UNL     1       5.365   6.112  15.180  0.00  0.00    +0.000 C 
ATOM     23  C   UNL     1       6.103   4.966  14.497  0.00  0.00    +0.000 C 
ATOM     24  C   UNL     1       6.752   3.912  15.390  0.00  0.00    +0.000 C 
ATOM     25  O   UNL     1       6.876   4.271  16.760  0.00  0.00    +0.000 OA
ENDBRANCH  19  20
ENDBRANCH   4  19
TORSDOF 7
ENDMDL
MODEL 7
REMARK VINA RESULT:      -6.8      2.599      7.046
REMARK  Name = 
REMARK  8 active torsions:
REMARK  status: ('A' for Active; 'I' for Inactive)
REMARK    1  A    between atoms: C_1  and  O_2
REMARK    2  A    between atoms: O_2  and  C_3
REMARK    3  A    between atoms: C_7  and  C_8
REMARK    4  A    between atoms: C_8  and  N_9
REMARK    5  A    between atoms: C_12  and  C_13
REMARK    6  A    between atoms: C_12  and  C_15
REMARK    7  A    between atoms: C_13  and  O_14
REMARK    8  A    between atoms: C_15  and  C_16
REMARK                            x       y       z     vdW  Elec       q    Type
REMARK                         _______ _______ _______ _____ _____    ______ ____
ROOT
ATOM      1  N   UNL     1       2.146   4.802  20.386  0.00  0.00    +0.000 NA
ATOM      2  C   UNL     1       1.432   4.597  19.116  0.00  0.00    +0.000 C 
ATOM      3  C   UNL     1       1.729   3.220  18.508  0.00  0.00    +0.000 C 
ATOM      4  C   UNL     1       3.229   2.997  18.223  0.00  0.00    +0.000 C 
ATOM      5  C   UNL     1       3.970   3.265  19.569  0.00  0.00    +0.000 C 
ATOM      6  C   UNL     1       3.596   4.595  20.240  0.00  0.00    +0.000 C 
ENDROOT
BRANCH   1   7
ATOM      7  C   UNL     1       1.904   6.163  20.930  0.00  0.00    +0.000 C 
BRANCH   7  12
ATOM      8  C   UNL     1       1.131   9.510  19.235  0.00  0.00    +0.000 A 
ATOM      9  C   UNL     1       1.835   9.374  18.037  0.00  0.00    +0.000 A 
ATOM     10  C   UNL     1       2.554   8.214  17.761  0.00  0.00    +0.000 A 
ATOM     11  C   UNL     1       2.583   7.181  18.693  0.00  0.00    +0.000 A 
ATOM     12  C   UNL     1       1.921   7.301  19.922  0.00  0.00    +0.000 A 
ATOM     13  C   UNL     1       1.179   8.475  20.176  0.00  0.00    +0.000 A 
BRANCH   8  15
ATOM     14  C   UNL     1       1.197  11.842  19.718  0.00  0.00    +0.000 C 
ATOM     15  O   UNL     1       0.451  10.690  19.350  0.00  0.00    +0.000 OA
ENDBRANCH   8  15
ENDBRANCH   7  12
ENDBRANCH   1   7
BRANCH   4  16
ATOM     16  C   UNL     1       3.455   1.511  17.856  0.00  0.00    +0.000 C 
BRANCH  16  17
ATOM     17  O   UNL     1       4.399   0.887  18.717  0.00  0.00    +0.000 OA
ATOM     18  H   UNL     1       4.497   1.440  19.509  0.00  0.00    +0.000 HD
ENDBRANCH  16  17
ENDBRANCH   4  16
BRANCH   4  19
ATOM     19  C   UNL     1       3.802   3.959  17.128  0.00  0.00    +0.000 C 
BRANCH  19  20
ATOM     20  C   UNL     1       5.183   4.640  17.304  0.00  0.00    +0.000 C 
ATOM     21  C   UNL     1       5.404   6.070  16.827  0.00  0.00    +0.000 C 
ATOM     22  C   UNL     1       5.398   6.249  15.316  0.00  0.00    +0.000 C 
ATOM     23  C   UNL     1       5.787   5.025  14.495  0.00  0.00    +0.000 C 
ATOM     24  C   UNL     1       6.041   3.722  15.247  0.00  0.00    +0.000 C 
ATOM     25  O   UNL     1       6.201   3.855  16.654  0.00  0.00    +0.000 OA
ENDBRANCH  19  20
ENDBRANCH   4  19
TORSDOF 7
ENDMDL
MODEL 8
REMARK VINA RESULT:      -6.8      2.969      7.842
REMARK  Name = 
REMARK  8 active torsions:
REMARK  status: ('A' for Active; 'I' for Inactive)
REMARK    1  A    between atoms: C_1  and  O_2
REMARK    2  A    between atoms: O_2  and  C_3
REMARK    3  A    between atoms: C_7  and  C_8
REMARK    4  A    between atoms: C_8  and  N_9
REMARK    5  A    between atoms: C_12  and  C_13
REMARK    6  A    between atoms: C_12  and  C_15
REMARK    7  A    between atoms: C_13  and  O_14
REMARK    8  A    between atoms: C_15  and  C_16
REMARK                            x       y       z     vdW  Elec       q    Type
REMARK                         _______ _______ _______ _____ _____    ______ ____
ROOT
ATOM      1  N   UNL     1       2.117   6.146  19.347  0.00  0.00    +0.000 NA
ATOM      2  C   UNL     1       2.021   5.730  17.939  0.00  0.00    +0.000 C 
ATOM      3  C   UNL     1       1.766   4.224  17.803  0.00  0.00    +0.000 C 
ATOM      4  C   UNL     1       2.872   3.364  18.452  0.00  0.00    +0.000 C 
ATOM      5  C   UNL     1       2.990   3.853  19.928  0.00  0.00    +0.000 C 
ATOM      6  C   UNL     1       3.136   5.374  20.079  0.00  0.00    +0.000 C 
ENDROOT
BRANCH   1   7
ATOM      7  C   UNL     1       2.431   7.593  19.464  0.00  0.00    +0.000 C 
BRANCH   7  12
ATOM      8  C   UNL     1      -0.166  10.333  20.113  0.00  0.00    +0.000 A 
ATOM      9  C   UNL     1      -0.445  10.125  21.465  0.00  0.00    +0.000 A 
ATOM     10  C   UNL     1       0.198   9.117  22.178  0.00  0.00    +0.000 A 
ATOM     11  C   UNL     1       1.120   8.296  21.535  0.00  0.00    +0.000 A 
ATOM     12  C   UNL     1       1.393   8.450  20.170  0.00  0.00    +0.000 A 
ATOM     13  C   UNL     1       0.749   9.493  19.467  0.00  0.00    +0.000 A 
BRANCH   8  15
ATOM     14  C   UNL     1      -0.098  12.355  18.855  0.00  0.00    +0.000 C 
ATOM     15  O   UNL     1      -0.852  11.376  19.557  0.00  0.00    +0.000 OA
ENDBRANCH   8  15
ENDBRANCH   7  12
ENDBRANCH   1   7
BRANCH   4  16
ATOM     16  C   UNL     1       2.406   1.889  18.487  0.00  0.00    +0.000 C 
BRANCH  16  17
ATOM     17  O   UNL     1       0.991   1.779  18.570  0.00  0.00    +0.000 OA
ATOM     18  H   UNL     1       0.666   1.417  17.730  0.00  0.00    +0.000 HD
ENDBRANCH  16  17
ENDBRANCH   4  16
BRANCH   4  19
ATOM     19  C   UNL     1       4.266   3.516  17.754  0.00  0.00    +0.000 C 
BRANCH  19  20
ATOM     20  C   UNL     1       4.569   4.718  16.824  0.00  0.00    +0.000 C 
ATOM     21  C   UNL     1       5.316   4.509  15.512  0.00  0.00    +0.000 C 
ATOM     22  C   UNL     1       6.783   4.132  15.665  0.00  0.00    +0.000 C 
ATOM     23  C   UNL     1       7.462   4.590  16.950  0.00  0.00    +0.000 C 
ATOM     24  C   UNL     1       6.596   5.283  17.998  0.00  0.00    +0.000 C 
ATOM     25  O   UNL     1       5.320   5.715  17.542  0.00  0.00    +0.000 OA
ENDBRANCH  19  20
ENDBRANCH   4  19
TORSDOF 7
ENDMDL
MODEL 9
REMARK VINA RESULT:      -6.6      3.930      7.854
REMARK  Name = 
REMARK  8 active torsions:
REMARK  status: ('A' for Active; 'I' for Inactive)
REMARK    1  A    between atoms: C_1  and  O_2
REMARK    2  A    between atoms: O_2  and  C_3
REMARK    3  A    between atoms: C_7  and  C_8
REMARK    4  A    between atoms: C_8  and  N_9
REMARK    5  A    between atoms: C_12  and  C_13
REMARK    6  A    between atoms: C_12  and  C_15
REMARK    7  A    between atoms: C_13  and  O_14
REMARK    8  A    between atoms: C_15  and  C_16
REMARK                            x       y       z     vdW  Elec       q    Type
REMARK                         _______ _______ _______ _____ _____    ______ ____
ROOT
ATOM      1  N   UNL     1       1.586   8.056  18.935  0.00  0.00    +0.000 NA
ATOM      2  C   UNL     1       2.454   7.651  17.819  0.00  0.00    +0.000 C 
ATOM      3  C   UNL     1       2.584   6.126  17.719  0.00  0.00    +0.000 C 
ATOM      4  C   UNL     1       3.165   5.485  18.997  0.00  0.00    +0.000 C 
ATOM      5  C   UNL     1       2.259   5.965  20.173  0.00  0.00    +0.000 C 
ATOM      6  C   UNL     1       2.035   7.483  20.216  0.00  0.00    +0.000 C 
ENDROOT
BRANCH   1   7
ATOM      7  C   UNL     1       1.524   9.535  19.064  0.00  0.00    +0.000 C 
BRANCH   7  12
ATOM      8  C   UNL     1      -1.905  10.282  17.529  0.00  0.00    +0.000 A 
ATOM      9  C   UNL     1      -2.302  11.390  18.281  0.00  0.00    +0.000 A 
ATOM     10  C   UNL     1      -1.476  11.908  19.275  0.00  0.00    +0.000 A 
ATOM     11  C   UNL     1      -0.246  11.309  19.533  0.00  0.00    +0.000 A 
ATOM     12  C   UNL     1       0.164  10.172  18.826  0.00  0.00    +0.000 A 
ATOM     13  C   UNL     1      -0.676   9.673  17.806  0.00  0.00    +0.000 A 
BRANCH   8  15
ATOM     14  C   UNL     1      -2.857  10.681  15.381  0.00  0.00    +0.000 C 
ATOM     15  O   UNL     1      -2.807   9.907  16.572  0.00  0.00    +0.000 OA
ENDBRANCH   8  15
ENDBRANCH   7  12
ENDBRANCH   1   7
BRANCH   4  16
ATOM     16  C   UNL     1       3.021   3.947  18.898  0.00  0.00    +0.000 C 
BRANCH  16  17
ATOM     17  O   UNL     1       2.143   3.561  17.848  0.00  0.00    +0.000 OA
ATOM     18  H   UNL     1       1.536   2.888  18.195  0.00  0.00    +0.000 HD
ENDBRANCH  16  17
ENDBRANCH   4  16
BRANCH   4  19
ATOM     19  C   UNL     1       4.643   5.912  19.289  0.00  0.00    +0.000 C 
BRANCH  19  20
ATOM     20  C   UNL     1       5.835   5.021  18.857  0.00  0.00    +0.000 C 
ATOM     21  C   UNL     1       7.251   5.352  19.311  0.00  0.00    +0.000 C 
ATOM     22  C   UNL     1       7.842   6.612  18.693  0.00  0.00    +0.000 C 
ATOM     23  C   UNL     1       7.283   7.016  17.334  0.00  0.00    +0.000 C 
ATOM     24  C   UNL     1       6.126   6.195  16.773  0.00  0.00    +0.000 C 
ATOM     25  O   UNL     1       5.897   4.949  17.421  0.00  0.00    +0.000 OA
ENDBRANCH  19  20
ENDBRANCH   4  19
TORSDOF 7
ENDMDL
