MODEL 1
REMARK VINA RESULT:      -6.5      0.000      0.000
REMARK  Name = 
REMARK  9 active torsions:
REMARK  status: ('A' for Active; 'I' for Inactive)
REMARK    1  A    between atoms: C_1  and  C_2
REMARK    2  A    between atoms: C_2  and  C_3
REMARK    3  A    between atoms: C_3  and  N_4
REMARK    4  A    between atoms: C_7  and  C_8
REMARK    5  A    between atoms: C_8  and  N_9
REMARK    6  A    between atoms: C_13  and  C_14
REMARK    7  A    between atoms: C_14  and  O_15
REMARK    8  A    between atoms: O_15  and  C_16
REMARK    9  A    between atoms: C_17  and  C_18
REMARK                            x       y       z     vdW  Elec       q    Type
REMARK                         _______ _______ _______ _____ _____    ______ ____
ROOT
ATOM      1  N   UNL     1       6.185   5.485  15.538  0.00  0.00    +0.000 N 
ATOM      2  N   UNL     1       5.221   6.391  15.356  0.00  0.00    +0.000 NA
ATOM      3  C   UNL     1       4.716   6.573  16.588  0.00  0.00    +0.000 A 
ATOM      4  C   UNL     1       5.302   5.722  17.556  0.00  0.00    +0.000 A 
ATOM      5  C   UNL     1       6.358   5.142  16.865  0.00  0.00    +0.000 A 
ATOM      6  C   UNL     1       7.528   4.366  17.349  0.00  0.00    +0.000 C 
ENDROOT
BRANCH   1   7
ATOM      7  C   UNL     1       6.961   5.056  14.387  0.00  0.00    +0.000 C 
BRANCH   7   9
ATOM      8  C   UNL     1       6.849   3.820  12.202  0.00  0.00    +0.000 C 
ATOM      9  C   UNL     1       6.297   3.914  13.616  0.00  0.00    +0.000 C 
ENDBRANCH   7   9
ENDBRANCH   1   7
BRANCH   4  10
ATOM     10  C   UNL     1       4.977   5.629  19.022  0.00  0.00    +0.000 C 
BRANCH  10  11
ATOM     11  N   UNL     1       3.906   4.691  19.391  0.00  0.00    +0.000 NA
ATOM     12  C   UNL     1       3.921   3.392  18.739  0.00  0.00    +0.000 C 
ATOM     13  C   UNL     1       2.852   3.468  17.670  0.00  0.00    +0.000 C 
ATOM     14  C   UNL     1       1.809   4.406  18.256  0.00  0.00    +0.000 C 
ATOM     15  C   UNL     1       2.529   5.212  19.345  0.00  0.00    +0.000 C 
BRANCH  15  16
ATOM     16  C   UNL     1       1.808   5.031  20.703  0.00  0.00    +0.000 C 
BRANCH  16  17
ATOM     17  O   UNL     1       1.012   3.840  20.661  0.00  0.00    +0.000 OA
ATOM     18  C   UNL     1       1.503   2.839  21.538  0.00  0.00    +0.000 C 
ENDBRANCH  16  17
ENDBRANCH  15  16
ENDBRANCH  10  11
ENDBRANCH   4  10
TORSDOF 6
ENDMDL
MODEL 2
REMARK VINA RESULT:      -6.2      2.683      5.946
REMARK  Name = 
REMARK  9 active torsions:
REMARK  status: ('A' for Active; 'I' for Inactive)
REMARK    1  A    between atoms: C_1  and  C_2
REMARK    2  A    between atoms: C_2  and  C_3
REMARK    3  A    between atoms: C_3  and  N_4
REMARK    4  A    between atoms: C_7  and  C_8
REMARK    5  A    between atoms: C_8  and  N_9
REMARK    6  A    between atoms: C_13  and  C_14
REMARK    7  A    between atoms: C_14  and  O_15
REMARK    8  A    between atoms: O_15  and  C_16
REMARK    9  A    between atoms: C_17  and  C_18
REMARK                            x       y       z     vdW  Elec       q    Type
REMARK                         _______ _______ _______ _____ _____    ______ ____
ROOT
ATOM      1  N   UNL     1       3.319   3.951  19.442  0.00  0.00    +0.000 N 
ATOM      2  N   UNL     1       3.102   5.065  20.147  0.00  0.00    +0.000 NA
ATOM      3  C   UNL     1       3.502   6.049  19.324  0.00  0.00    +0.000 A 
ATOM      4  C   UNL     1       4.054   5.565  18.114  0.00  0.00    +0.000 A 
ATOM      5  C   UNL     1       3.774   4.205  18.163  0.00  0.00    +0.000 A 
ATOM      6  C   UNL     1       3.836   3.160  17.109  0.00  0.00    +0.000 C 
ENDROOT
BRANCH   1   7
ATOM      7  C   UNL     1       2.980   2.673  20.043  0.00  0.00    +0.000 C 
BRANCH   7   9
ATOM      8  C   UNL     1       0.696   2.500  19.011  0.00  0.00    +0.000 C 
ATOM      9  C   UNL     1       1.482   2.521  20.312  0.00  0.00    +0.000 C 
ENDBRANCH   7   9
ENDBRANCH   1   7
BRANCH   4  10
ATOM     10  C   UNL     1       4.621   6.365  16.972  0.00  0.00    +0.000 C 
BRANCH  10  11
ATOM     11  N   UNL     1       6.081   6.319  16.811  0.00  0.00    +0.000 NA
ATOM     12  C   UNL     1       6.594   5.521  15.709  0.00  0.00    +0.000 C 
ATOM     13  C   UNL     1       7.088   4.237  16.341  0.00  0.00    +0.000 C 
ATOM     14  C   UNL     1       7.564   4.663  17.720  0.00  0.00    +0.000 C 
ATOM     15  C   UNL     1       6.868   5.998  18.014  0.00  0.00    +0.000 C 
BRANCH  15  16
ATOM     16  C   UNL     1       7.922   7.092  18.311  0.00  0.00    +0.000 C 
BRANCH  16  17
ATOM     17  O   UNL     1       7.583   8.284  17.593  0.00  0.00    +0.000 OA
ATOM     18  C   UNL     1       8.325   9.408  18.040  0.00  0.00    +0.000 C 
ENDBRANCH  16  17
ENDBRANCH  15  16
ENDBRANCH  10  11
ENDBRANCH   4  10
TORSDOF 6
ENDMDL
MODEL 3
REMARK VINA RESULT:      -6.2      2.898      6.180
REMARK  Name = 
REMARK  9 active torsions:
REMARK  status: ('A' for Active; 'I' for Inactive)
REMARK    1  A    between atoms: C_1  and  C_2
REMARK    2  A    between atoms: C_2  and  C_3
REMARK    3  A    between atoms: C_3  and  N_4
REMARK    4  A    between atoms: C_7  and  C_8
REMARK    5  A    between atoms: C_8  and  N_9
REMARK    6  A    between atoms: C_13  and  C_14
REMARK    7  A    between atoms: C_14  and  O_15
REMARK    8  A    between atoms: O_15  and  C_16
REMARK    9  A    between atoms: C_17  and  C_18
REMARK                            x       y       z     vdW  Elec       q    Type
REMARK                         _______ _______ _______ _____ _____    ______ ____
ROOT
ATOM      1  N   UNL     1       3.115   5.649  19.275  0.00  0.00    +0.000 N 
ATOM      2  N   UNL     1       2.753   6.921  19.087  0.00  0.00    +0.000 NA
ATOM      3  C   UNL     1       3.363   7.262  17.939  0.00  0.00    +0.000 A 
ATOM      4  C   UNL     1       4.186   6.231  17.425  0.00  0.00    +0.000 A 
ATOM      5  C   UNL     1       3.876   5.147  18.237  0.00  0.00    +0.000 A 
ATOM      6  C   UNL     1       4.174   3.701  18.086  0.00  0.00    +0.000 C 
ENDROOT
BRANCH   1   7
ATOM      7  C   UNL     1       2.614   4.952  20.447  0.00  0.00    +0.000 C 
BRANCH   7   9
ATOM      8  C   UNL     1       1.147   2.987  20.995  0.00  0.00    +0.000 C 
ATOM      9  C   UNL     1       1.261   4.281  20.205  0.00  0.00    +0.000 C 
ENDBRANCH   7   9
ENDBRANCH   1   7
BRANCH   4  10
ATOM     10  C   UNL     1       5.032   6.258  16.181  0.00  0.00    +0.000 C 
BRANCH  10  11
ATOM     11  N   UNL     1       6.487   6.282  16.386  0.00  0.00    +0.000 NA
ATOM     12  C   UNL     1       7.189   5.015  16.254  0.00  0.00    +0.000 C 
ATOM     13  C   UNL     1       7.461   4.559  17.671  0.00  0.00    +0.000 C 
ATOM     14  C   UNL     1       7.642   5.853  18.448  0.00  0.00    +0.000 C 
ATOM     15  C   UNL     1       6.969   6.947  17.609  0.00  0.00    +0.000 C 
BRANCH  15  16
ATOM     16  C   UNL     1       7.988   8.067  17.283  0.00  0.00    +0.000 C 
BRANCH  16  17
ATOM     17  O   UNL     1       7.625   9.258  17.992  0.00  0.00    +0.000 OA
ATOM     18  C   UNL     1       8.760   9.964  18.467  0.00  0.00    +0.000 C 
ENDBRANCH  16  17
ENDBRANCH  15  16
ENDBRANCH  10  11
ENDBRANCH   4  10
TORSDOF 6
ENDMDL
MODEL 4
REMARK VINA RESULT:      -6.0      2.180      3.386
REMARK  Name = 
REMARK  9 active torsions:
REMARK  status: ('A' for Active; 'I' for Inactive)
REMARK    1  A    between atoms: C_1  and  C_2
REMARK    2  A    between atoms: C_2  and  C_3
REMARK    3  A    between atoms: C_3  and  N_4
REMARK    4  A    between atoms: C_7  and  C_8
REMARK    5  A    between atoms: C_8  and  N_9
REMARK    6  A    between atoms: C_13  and  C_14
REMARK    7  A    between atoms: C_14  and  O_15
REMARK    8  A    between atoms: O_15  and  C_16
REMARK    9  A    between atoms: C_17  and  C_18
REMARK                            x       y       z     vdW  Elec       q    Type
REMARK                         _______ _______ _______ _____ _____    ______ ____
ROOT
ATOM      1  N   UNL     1       6.649   6.504  17.391  0.00  0.00    +0.000 N 
ATOM      2  N   UNL     1       6.181   6.897  16.203  0.00  0.00    +0.000 NA
ATOM      3  C   UNL     1       5.135   6.082  15.985  0.00  0.00    +0.000 A 
ATOM      4  C   UNL     1       4.975   5.107  16.998  0.00  0.00    +0.000 A 
ATOM      5  C   UNL     1       5.881   5.512  17.970  0.00  0.00    +0.000 A 
ATOM      6  C   UNL     1       6.037   5.099  19.388  0.00  0.00    +0.000 C 
ENDROOT
BRANCH   1   7
ATOM      7  C   UNL     1       7.799   7.195  17.947  0.00  0.00    +0.000 C 
BRANCH   7   9
ATOM      8  C   UNL     1       8.722   9.449  18.564  0.00  0.00    +0.000 C 
ATOM      9  C   UNL     1       7.814   8.688  17.611  0.00  0.00    +0.000 C 
ENDBRANCH   7   9
ENDBRANCH   1   7
BRANCH   4  10
ATOM     10  C   UNL     1       3.935   4.022  17.080  0.00  0.00    +0.000 C 
BRANCH  10  11
ATOM     11  N   UNL     1       3.406   3.731  18.421  0.00  0.00    +0.000 NA
ATOM     12  C   UNL     1       3.170   2.333  18.743  0.00  0.00    +0.000 C 
ATOM     13  C   UNL     1       1.674   2.140  18.616  0.00  0.00    +0.000 C 
ATOM     14  C   UNL     1       1.093   3.486  19.017  0.00  0.00    +0.000 C 
ATOM     15  C   UNL     1       2.228   4.505  18.847  0.00  0.00    +0.000 C 
BRANCH  15  16
ATOM     16  C   UNL     1       2.485   5.242  20.184  0.00  0.00    +0.000 C 
BRANCH  16  17
ATOM     17  O   UNL     1       2.031   6.596  20.073  0.00  0.00    +0.000 OA
ATOM     18  C   UNL     1       2.525   7.232  18.905  0.00  0.00    +0.000 C 
ENDBRANCH  16  17
ENDBRANCH  15  16
ENDBRANCH  10  11
ENDBRANCH   4  10
TORSDOF 6
ENDMDL
MODEL 5
REMARK VINA RESULT:      -6.0      2.209      3.580
REMARK  Name = 
REMARK  9 active torsions:
REMARK  status: ('A' for Active; 'I' for Inactive)
REMARK    1  A    between atoms: C_1  and  C_2
REMARK    2  A    between atoms: C_2  and  C_3
REMARK    3  A    between atoms: C_3  and  N_4
REMARK    4  A    between atoms: C_7  and  C_8
REMARK    5  A    between atoms: C_8  and  N_9
REMARK    6  A    between atoms: C_13  and  C_14
REMARK    7  A    between atoms: C_14  and  O_15
REMARK    8  A    between atoms: O_15  and  C_16
REMARK    9  A    between atoms: C_17  and  C_18
REMARK                            x       y       z     vdW  Elec       q    Type
REMARK                         _______ _______ _______ _____ _____    ______ ____
ROOT
ATOM      1  N   UNL     1       6.933   6.606  17.385  0.00  0.00    +0.000 N 
ATOM      2  N   UNL     1       7.765   5.703  17.912  0.00  0.00    +0.000 NA
ATOM      3  C   UNL     1       7.116   4.538  17.753  0.00  0.00    +0.000 A 
ATOM      4  C   UNL     1       5.825   4.697  17.193  0.00  0.00    +0.000 A 
ATOM      5  C   UNL     1       5.806   6.037  16.825  0.00  0.00    +0.000 A 
ATOM      6  C   UNL     1       4.871   6.793  15.954  0.00  0.00    +0.000 C 
ENDROOT
BRANCH   1   7
ATOM      7  C   UNL     1       7.336   8.002  17.382  0.00  0.00    +0.000 C 
BRANCH   7   9
ATOM      8  C   UNL     1       8.771   9.788  18.413  0.00  0.00    +0.000 C 
ATOM      9  C   UNL     1       8.424   8.308  18.413  0.00  0.00    +0.000 C 
ENDBRANCH   7   9
ENDBRANCH   1   7
BRANCH   4  10
ATOM     10  C   UNL     1       4.810   3.628  16.893  0.00  0.00    +0.000 C 
BRANCH  10  11
ATOM     11  N   UNL     1       3.689   3.515  17.837  0.00  0.00    +0.000 NA
ATOM     12  C   UNL     1       2.435   4.137  17.442  0.00  0.00    +0.000 C 
ATOM     13  C   UNL     1       2.363   5.428  18.230  0.00  0.00    +0.000 C 
ATOM     14  C   UNL     1       3.085   5.109  19.529  0.00  0.00    +0.000 C 
ATOM     15  C   UNL     1       3.964   3.886  19.235  0.00  0.00    +0.000 C 
BRANCH  15  16
ATOM     16  C   UNL     1       3.613   2.734  20.208  0.00  0.00    +0.000 C 
BRANCH  16  17
ATOM     17  O   UNL     1       2.189   2.612  20.303  0.00  0.00    +0.000 OA
ATOM     18  C   UNL     1       1.742   2.606  21.650  0.00  0.00    +0.000 C 
ENDBRANCH  16  17
ENDBRANCH  15  16
ENDBRANCH  10  11
ENDBRANCH   4  10
TORSDOF 6
ENDMDL
MODEL 6
REMARK VINA RESULT:      -6.0      2.754      6.199
REMARK  Name = 
REMARK  9 active torsions:
REMARK  status: ('A' for Active; 'I' for Inactive)
REMARK    1  A    between atoms: C_1  and  C_2
REMARK    2  A    between atoms: C_2  and  C_3
REMARK    3  A    between atoms: C_3  and  N_4
REMARK    4  A    between atoms: C_7  and  C_8
REMARK    5  A    between atoms: C_8  and  N_9
REMARK    6  A    between atoms: C_13  and  C_14
REMARK    7  A    between atoms: C_14  and  O_15
REMARK    8  A    between atoms: O_15  and  C_16
REMARK    9  A    between atoms: C_17  and  C_18
REMARK                            x       y       z     vdW  Elec       q    Type
REMARK                         _______ _______ _______ _____ _____    ______ ____
ROOT
ATOM      1  N   UNL     1       2.959   3.319  18.524  0.00  0.00    +0.000 N 
ATOM      2  N   UNL     1       3.659   2.358  19.133  0.00  0.00    +0.000 NA
ATOM      3  C   UNL     1       4.762   2.992  19.568  0.00  0.00    +0.000 A 
ATOM      4  C   UNL     1       4.811   4.349  19.168  0.00  0.00    +0.000 A 
ATOM      5  C   UNL     1       3.550   4.563  18.626  0.00  0.00    +0.000 A 
ATOM      6  C   UNL     1       2.845   5.820  18.267  0.00  0.00    +0.000 C 
ENDROOT
BRANCH   1   7
ATOM      7  C   UNL     1       1.676   2.974  17.934  0.00  0.00    +0.000 C 
BRANCH   7   9
ATOM      8  C   UNL     1       0.662   3.361  20.200  0.00  0.00    +0.000 C 
ATOM      9  C   UNL     1       0.664   2.473  18.966  0.00  0.00    +0.000 C 
ENDBRANCH   7   9
ENDBRANCH   1   7
BRANCH   4  10
ATOM     10  C   UNL     1       5.894   5.356  19.449  0.00  0.00    +0.000 C 
BRANCH  10  11
ATOM     11  N   UNL     1       6.933   5.495  18.419  0.00  0.00    +0.000 NA
ATOM     12  C   UNL     1       8.022   6.414  18.707  0.00  0.00    +0.000 C 
ATOM     13  C   UNL     1       7.714   7.662  17.906  0.00  0.00    +0.000 C 
ATOM     14  C   UNL     1       6.997   7.141  16.671  0.00  0.00    +0.000 C 
ATOM     15  C   UNL     1       6.469   5.749  17.044  0.00  0.00    +0.000 C 
BRANCH  15  16
ATOM     16  C   UNL     1       7.017   4.692  16.055  0.00  0.00    +0.000 C 
BRANCH  16  17
ATOM     17  O   UNL     1       7.639   5.356  14.949  0.00  0.00    +0.000 OA
ATOM     18  C   UNL     1       7.163   4.877  13.701  0.00  0.00    +0.000 C 
ENDBRANCH  16  17
ENDBRANCH  15  16
ENDBRANCH  10  11
ENDBRANCH   4  10
TORSDOF 6
ENDMDL
MODEL 7
REMARK VINA RESULT:      -6.0      2.480      6.412
REMARK  Name = 
REMARK  9 active torsions:
REMARK  status: ('A' for Active; 'I' for Inactive)
REMARK    1  A    between atoms: C_1  and  C_2
REMARK    2  A    between atoms: C_2  and  C_3
REMARK    3  A    between atoms: C_3  and  N_4
REMARK    4  A    between atoms: C_7  and  C_8
REMARK    5  A    between atoms: C_8  and  N_9
REMARK    6  A    between atoms: C_13  and  C_14
REMARK    7  A    between atoms: C_14  and  O_15
REMARK    8  A    between atoms: O_15  and  C_16
REMARK    9  A    between atoms: C_17  and  C_18
REMARK                            x       y       z     vdW  Elec       q    Type
REMARK                         _______ _______ _______ _____ _____    ______ ____
ROOT
ATOM      1  N   UNL     1       1.744   4.945  19.688  0.00  0.00    +0.000 N 
ATOM      2  N   UNL     1       2.036   6.090  20.310  0.00  0.00    +0.000 NA
ATOM      3  C   UNL     1       2.915   6.687  19.487  0.00  0.00    +0.000 A 
ATOM      4  C   UNL     1       3.253   5.888  18.368  0.00  0.00    +0.000 A 
ATOM      5  C   UNL     1       2.354   4.832  18.454  0.00  0.00    +0.000 A 
ATOM      6  C   UNL     1       1.983   3.787  17.466  0.00  0.00    +0.000 C 
ENDROOT
BRANCH   1   7
ATOM      7  C   UNL     1       0.793   4.040  20.311  0.00  0.00    +0.000 C 
BRANCH   7   9
ATOM      8  C   UNL     1       2.423   2.812  21.777  0.00  0.00    +0.000 C 
ATOM      9  C   UNL     1       1.405   2.681  20.655  0.00  0.00    +0.000 C 
ENDBRANCH   7   9
ENDBRANCH   1   7
BRANCH   4  10
ATOM     10  C   UNL     1       4.213   6.214  17.256  0.00  0.00    +0.000 C 
BRANCH  10  11
ATOM     11  N   UNL     1       4.988   5.087  16.718  0.00  0.00    +0.000 NA
ATOM     12  C   UNL     1       5.886   4.410  17.640  0.00  0.00    +0.000 C 
ATOM     13  C   UNL     1       7.269   4.923  17.302  0.00  0.00    +0.000 C 
ATOM     14  C   UNL     1       7.208   5.192  15.807  0.00  0.00    +0.000 C 
ATOM     15  C   UNL     1       5.719   5.330  15.462  0.00  0.00    +0.000 C 
BRANCH  15  16
ATOM     16  C   UNL     1       5.330   4.303  14.371  0.00  0.00    +0.000 C 
BRANCH  16  17
ATOM     17  O   UNL     1       6.519   3.786  13.761  0.00  0.00    +0.000 OA
ATOM     18  C   UNL     1       6.347   3.546  12.374  0.00  0.00    +0.000 C 
ENDBRANCH  16  17
ENDBRANCH  15  16
ENDBRANCH  10  11
ENDBRANCH   4  10
TORSDOF 6
ENDMDL
MODEL 8
REMARK VINA RESULT:      -5.9      2.990      6.151
REMARK  Name = 
REMARK  9 active torsions:
REMARK  status: ('A' for Active; 'I' for Inactive)
REMARK    1  A    between atoms: C_1  and  C_2
REMARK    2  A    between atoms: C_2  and  C_3
REMARK    3  A    between atoms: C_3  and  N_4
REMARK    4  A    between atoms: C_7  and  C_8
REMARK    5  A    between atoms: C_8  and  N_9
REMARK    6  A    between atoms: C_13  and  C_14
REMARK    7  A    between atoms: C_14  and  O_15
REMARK    8  A    between atoms: O_15  and  C_16
REMARK    9  A    between atoms: C_17  and  C_18
REMARK                            x       y       z     vdW  Elec       q    Type
REMARK                         _______ _______ _______ _____ _____    ______ ____
ROOT
ATOM      1  N   UNL     1       3.591   3.256  18.525  0.00  0.00    +0.000 N 
ATOM      2  N   UNL     1       3.696   2.628  17.352  0.00  0.00    +0.000 NA
ATOM      3  C   UNL     1       4.196   3.566  16.530  0.00  0.00    +0.000 A 
ATOM      4  C   UNL     1       4.339   4.828  17.155  0.00  0.00    +0.000 A 
ATOM      5  C   UNL     1       4.083   4.547  18.491  0.00  0.00    +0.000 A 
ATOM      6  C   UNL     1       4.320   5.350  19.718  0.00  0.00    +0.000 C 
ENDROOT
BRANCH   1   7
ATOM      7  C   UNL     1       3.081   2.514  19.666  0.00  0.00    +0.000 C 
BRANCH   7   9
ATOM      8  C   UNL     1       1.067   2.972  21.097  0.00  0.00    +0.000 C 
ATOM      9  C   UNL     1       1.553   2.506  19.734  0.00  0.00    +0.000 C 
ENDBRANCH   7   9
ENDBRANCH   1   7
BRANCH   4  10
ATOM     10  C   UNL     1       4.843   6.109  16.547  0.00  0.00    +0.000 C 
BRANCH  10  11
ATOM     11  N   UNL     1       6.299   6.311  16.574  0.00  0.00    +0.000 NA
ATOM     12  C   UNL     1       7.125   5.165  16.232  0.00  0.00    +0.000 C 
ATOM     13  C   UNL     1       7.640   4.635  17.554  0.00  0.00    +0.000 C 
ATOM     14  C   UNL     1       7.764   5.873  18.426  0.00  0.00    +0.000 C 
ATOM     15  C   UNL     1       6.856   6.933  17.788  0.00  0.00    +0.000 C 
BRANCH  15  16
ATOM     16  C   UNL     1       7.677   8.201  17.451  0.00  0.00    +0.000 C 
BRANCH  16  17
ATOM     17  O   UNL     1       8.532   8.519  18.555  0.00  0.00    +0.000 OA
ATOM     18  C   UNL     1       8.868   9.896  18.593  0.00  0.00    +0.000 C 
ENDBRANCH  16  17
ENDBRANCH  15  16
ENDBRANCH  10  11
ENDBRANCH   4  10
TORSDOF 6
ENDMDL
MODEL 9
REMARK VINA RESULT:      -5.9      2.121      3.413
REMARK  Name = 
REMARK  9 active torsions:
REMARK  status: ('A' for Active; 'I' for Inactive)
REMARK    1  A    between atoms: C_1  and  C_2
REMARK    2  A    between atoms: C_2  and  C_3
REMARK    3  A    between atoms: C_3  and  N_4
REMARK    4  A    between atoms: C_7  and  C_8
REMARK    5  A    between atoms: C_8  and  N_9
REMARK    6  A    between atoms: C_13  and  C_14
REMARK    7  A    between atoms: C_14  and  O_15
REMARK    8  A    between atoms: O_15  and  C_16
REMARK    9  A    between atoms: C_17  and  C_18
REMARK                            x       y       z     vdW  Elec       q    Type
REMARK                         _______ _______ _______ _____ _____    ______ ____
ROOT
ATOM      1  N   UNL     1       6.561   6.961  17.168  0.00  0.00    +0.000 N 
ATOM      2  N   UNL     1       7.453   6.102  16.668  0.00  0.00    +0.000 NA
ATOM      3  C   UNL     1       6.730   4.995  16.424  0.00  0.00    +0.000 A 
ATOM      4  C   UNL     1       5.384   5.113  16.843  0.00  0.00    +0.000 A 
ATOM      5  C   UNL     1       5.275   6.457  17.178  0.00  0.00    +0.000 A 
ATOM      6  C   UNL     1       4.082   7.303  17.435  0.00  0.00    +0.000 C 
ENDROOT
BRANCH   1   7
ATOM      7  C   UNL     1       7.013   8.291  17.541  0.00  0.00    +0.000 C 
BRANCH   7   9
ATOM      8  C   UNL     1       8.813   9.694  18.592  0.00  0.00    +0.000 C 
ATOM      9  C   UNL     1       8.398   8.288  18.189  0.00  0.00    +0.000 C 
ENDBRANCH   7   9
ENDBRANCH   1   7
BRANCH   4  10
ATOM     10  C   UNL     1       4.293   4.079  16.752  0.00  0.00    +0.000 C 
BRANCH  10  11
ATOM     11  N   UNL     1       3.640   3.714  18.017  0.00  0.00    +0.000 NA
ATOM     12  C   UNL     1       3.601   2.298  18.349  0.00  0.00    +0.000 C 
ATOM     13  C   UNL     1       2.191   1.851  18.026  0.00  0.00    +0.000 C 
ATOM     14  C   UNL     1       1.340   3.080  18.301  0.00  0.00    +0.000 C 
ATOM     15  C   UNL     1       2.299   4.277  18.253  0.00  0.00    +0.000 C 
BRANCH  15  16
ATOM     16  C   UNL     1       2.240   5.059  19.588  0.00  0.00    +0.000 C 
BRANCH  16  17
ATOM     17  O   UNL     1       1.439   4.331  20.527  0.00  0.00    +0.000 OA
ATOM     18  C   UNL     1       2.217   3.769  21.572  0.00  0.00    +0.000 C 
ENDBRANCH  16  17
ENDBRANCH  15  16
ENDBRANCH  10  11
ENDBRANCH   4  10
TORSDOF 6
ENDMDL
