MODEL 1
REMARK VINA RESULT:      -7.3      0.000      0.000
REMARK  Name = 
REMARK  5 active torsions:
REMARK  status: ('A' for Active; 'I' for Inactive)
REMARK    1  A    between atoms: C_1  and  C_2
REMARK    2  A    between atoms: C_2  and  C_4
REMARK    3  A    between atoms: C_7  and  N_8
REMARK    4  A    between atoms: N_11  and  C_12
REMARK    5  A    between atoms: C_12  and  C_13
REMARK                            x       y       z     vdW  Elec       q    Type
REMARK                         _______ _______ _______ _____ _____    ______ ____
ROOT
ATOM      1  N   UNL     1       6.490   7.696  16.998  0.00  0.00    +0.000 N 
ATOM      2  C   UNL     1       7.559   7.974  17.825  0.00  0.00    +0.000 C 
ATOM      3  O   UNL     1       8.029   7.215  18.665  0.00  0.00    +0.000 OA
ATOM      4  N   UNL     1       8.059   9.243  17.653  0.00  0.00    +0.000 N 
ATOM      5  H   UNL     1       6.354   8.298  16.199  0.00  0.00    +0.000 HD
ATOM      6  H   UNL     1       7.956   9.680  16.750  0.00  0.00    +0.000 HD
ENDROOT
BRANCH   1  10
ATOM      7  C   UNL     1       4.038   4.252  17.252  0.00  0.00    +0.000 A 
ATOM      8  C   UNL     1       5.279   4.179  16.618  0.00  0.00    +0.000 A 
ATOM      9  C   UNL     1       6.092   5.312  16.539  0.00  0.00    +0.000 A 
ATOM     10  C   UNL     1       5.690   6.535  17.084  0.00  0.00    +0.000 A 
ATOM     11  C   UNL     1       4.462   6.600  17.750  0.00  0.00    +0.000 A 
ATOM     12  C   UNL     1       3.635   5.467  17.821  0.00  0.00    +0.000 A 
BRANCH   7  14
ATOM     13  C   UNL     1       3.655   1.820  18.028  0.00  0.00    +0.000 C 
ATOM     14  C   UNL     1       3.144   3.061  17.338  0.00  0.00    +0.000 C 
ATOM     15  O   UNL     1       2.012   3.109  16.863  0.00  0.00    +0.000 OA
ENDBRANCH   7  14
ENDBRANCH   1  10
BRANCH   4  16
ATOM     16  C   UNL     1       9.201   9.634  18.452  0.00  0.00    +0.000 C 
BRANCH  16  17
ATOM     17  C   UNL     1       9.653  11.037  18.154  0.00  0.00    +0.000 A 
ATOM     18  C   UNL     1      11.024  11.324  18.032  0.00  0.00    +0.000 A 
ATOM     19  C   UNL     1      11.449  12.610  17.699  0.00  0.00    +0.000 A 
ATOM     20  C   UNL     1      10.506  13.606  17.481  0.00  0.00    +0.000 A 
ATOM     21  F   UNL     1      10.914  14.841  17.158  0.00  0.00    +0.000 F 
ATOM     22  C   UNL     1       9.146  13.340  17.585  0.00  0.00    +0.000 A 
ATOM     23  C   UNL     1       8.717  12.055  17.918  0.00  0.00    +0.000 A 
ENDBRANCH  16  17
ENDBRANCH   4  16
TORSDOF 4
ENDMDL
MODEL 2
REMARK VINA RESULT:      -7.3      6.556      8.497
REMARK  Name = 
REMARK  5 active torsions:
REMARK  status: ('A' for Active; 'I' for Inactive)
REMARK    1  A    between atoms: C_1  and  C_2
REMARK    2  A    between atoms: C_2  and  C_4
REMARK    3  A    between atoms: C_7  and  N_8
REMARK    4  A    between atoms: N_11  and  C_12
REMARK    5  A    between atoms: C_12  and  C_13
REMARK                            x       y       z     vdW  Elec       q    Type
REMARK                         _______ _______ _______ _____ _____    ______ ____
ROOT
ATOM      1  N   UNL     1       2.434   7.831  17.753  0.00  0.00    +0.000 N 
ATOM      2  C   UNL     1       1.736   8.704  18.562  0.00  0.00    +0.000 C 
ATOM      3  O   UNL     1       1.494   8.538  19.751  0.00  0.00    +0.000 OA
ATOM      4  N   UNL     1       1.277   9.812  17.890  0.00  0.00    +0.000 N 
ATOM      5  H   UNL     1       2.769   8.186  16.869  0.00  0.00    +0.000 HD
ATOM      6  H   UNL     1       1.790  10.130  17.081  0.00  0.00    +0.000 HD
ENDROOT
BRANCH   1  10
ATOM      7  C   UNL     1       3.705   3.953  18.884  0.00  0.00    +0.000 A 
ATOM      8  C   UNL     1       4.534   5.051  19.109  0.00  0.00    +0.000 A 
ATOM      9  C   UNL     1       4.115   6.332  18.743  0.00  0.00    +0.000 A 
ATOM     10  C   UNL     1       2.869   6.546  18.146  0.00  0.00    +0.000 A 
ATOM     11  C   UNL     1       2.023   5.450  17.953  0.00  0.00    +0.000 A 
ATOM     12  C   UNL     1       2.445   4.159  18.306  0.00  0.00    +0.000 A 
BRANCH   7  14
ATOM     13  C   UNL     1       3.546   1.405  18.498  0.00  0.00    +0.000 C 
ATOM     14  C   UNL     1       4.134   2.572  19.252  0.00  0.00    +0.000 C 
ATOM     15  O   UNL     1       4.960   2.405  20.148  0.00  0.00    +0.000 OA
ENDBRANCH   7  14
ENDBRANCH   1  10
BRANCH   4  16
ATOM     16  C   UNL     1       0.552  10.810  18.647  0.00  0.00    +0.000 C 
BRANCH  16  17
ATOM     17  C   UNL     1      -0.924  10.785  18.361  0.00  0.00    +0.000 A 
ATOM     18  C   UNL     1      -1.780  11.701  18.995  0.00  0.00    +0.000 A 
ATOM     19  C   UNL     1      -3.142  11.722  18.693  0.00  0.00    +0.000 A 
ATOM     20  C   UNL     1      -3.646  10.833  17.751  0.00  0.00    +0.000 A 
ATOM     21  F   UNL     1      -4.952  10.855  17.458  0.00  0.00    +0.000 F 
ATOM     22  C   UNL     1      -2.814   9.927  17.104  0.00  0.00    +0.000 A 
ATOM     23  C   UNL     1      -1.452   9.903  17.406  0.00  0.00    +0.000 A 
ENDBRANCH  16  17
ENDBRANCH   4  16
TORSDOF 4
ENDMDL
MODEL 3
REMARK VINA RESULT:      -7.2      6.478      8.448
REMARK  Name = 
REMARK  5 active torsions:
REMARK  status: ('A' for Active; 'I' for Inactive)
REMARK    1  A    between atoms: C_1  and  C_2
REMARK    2  A    between atoms: C_2  and  C_4
REMARK    3  A    between atoms: C_7  and  N_8
REMARK    4  A    between atoms: N_11  and  C_12
REMARK    5  A    between atoms: C_12  and  C_13
REMARK                            x       y       z     vdW  Elec       q    Type
REMARK                         _______ _______ _______ _____ _____    ______ ____
ROOT
ATOM      1  N   UNL     1       2.494   7.879  17.717  0.00  0.00    +0.000 N 
ATOM      2  C   UNL     1       1.788   8.732  18.540  0.00  0.00    +0.000 C 
ATOM      3  O   UNL     1       1.493   8.516  19.710  0.00  0.00    +0.000 OA
ATOM      4  N   UNL     1       1.388   9.885  17.906  0.00  0.00    +0.000 N 
ATOM      5  H   UNL     1       2.874   8.266  16.865  0.00  0.00    +0.000 HD
ATOM      6  H   UNL     1       1.942  10.226  17.135  0.00  0.00    +0.000 HD
ENDROOT
BRANCH   1  10
ATOM      7  C   UNL     1       3.688   3.962  18.797  0.00  0.00    +0.000 A 
ATOM      8  C   UNL     1       2.364   4.212  18.435  0.00  0.00    +0.000 A 
ATOM      9  C   UNL     1       1.969   5.502  18.072  0.00  0.00    +0.000 A 
ATOM     10  C   UNL     1       2.877   6.565  18.063  0.00  0.00    +0.000 A 
ATOM     11  C   UNL     1       4.212   6.307  18.392  0.00  0.00    +0.000 A 
ATOM     12  C   UNL     1       4.611   5.016  18.771  0.00  0.00    +0.000 A 
BRANCH   7  14
ATOM     13  C   UNL     1       3.588   1.405  18.455  0.00  0.00    +0.000 C 
ATOM     14  C   UNL     1       4.133   2.597  19.203  0.00  0.00    +0.000 C 
ATOM     15  O   UNL     1       4.937   2.463  20.123  0.00  0.00    +0.000 OA
ENDBRANCH   7  14
ENDBRANCH   1  10
BRANCH   4  16
ATOM     16  C   UNL     1       0.661  10.866  18.683  0.00  0.00    +0.000 C 
BRANCH  16  17
ATOM     17  C   UNL     1      -0.819  10.825  18.415  0.00  0.00    +0.000 A 
ATOM     18  C   UNL     1      -1.674  11.746  19.044  0.00  0.00    +0.000 A 
ATOM     19  C   UNL     1      -3.039  11.752  18.759  0.00  0.00    +0.000 A 
ATOM     20  C   UNL     1      -3.548  10.842  17.839  0.00  0.00    +0.000 A 
ATOM     21  F   UNL     1      -4.859  10.850  17.562  0.00  0.00    +0.000 F 
ATOM     22  C   UNL     1      -2.718   9.931  17.198  0.00  0.00    +0.000 A 
ATOM     23  C   UNL     1      -1.352   9.923  17.483  0.00  0.00    +0.000 A 
ENDBRANCH  16  17
ENDBRANCH   4  16
TORSDOF 4
ENDMDL
MODEL 4
REMARK VINA RESULT:      -7.2      6.526      8.446
REMARK  Name = 
REMARK  5 active torsions:
REMARK  status: ('A' for Active; 'I' for Inactive)
REMARK    1  A    between atoms: C_1  and  C_2
REMARK    2  A    between atoms: C_2  and  C_4
REMARK    3  A    between atoms: C_7  and  N_8
REMARK    4  A    between atoms: N_11  and  C_12
REMARK    5  A    between atoms: C_12  and  C_13
REMARK                            x       y       z     vdW  Elec       q    Type
REMARK                         _______ _______ _______ _____ _____    ______ ____
ROOT
ATOM      1  N   UNL     1       2.456   7.832  17.708  0.00  0.00    +0.000 N 
ATOM      2  C   UNL     1       1.765   8.691  18.536  0.00  0.00    +0.000 C 
ATOM      3  O   UNL     1       1.502   8.490  19.716  0.00  0.00    +0.000 OA
ATOM      4  N   UNL     1       1.339   9.831  17.896  0.00  0.00    +0.000 N 
ATOM      5  H   UNL     1       2.811   8.209  16.841  0.00  0.00    +0.000 HD
ATOM      6  H   UNL     1       1.870  10.165  17.106  0.00  0.00    +0.000 HD
ENDROOT
BRANCH   1  10
ATOM      7  C   UNL     1       3.698   3.939  18.823  0.00  0.00    +0.000 A 
ATOM      8  C   UNL     1       2.441   4.133  18.250  0.00  0.00    +0.000 A 
ATOM      9  C   UNL     1       2.031   5.414  17.876  0.00  0.00    +0.000 A 
ATOM     10  C   UNL     1       2.858   6.525  18.063  0.00  0.00    +0.000 A 
ATOM     11  C   UNL     1       4.133   6.328  18.605  0.00  0.00    +0.000 A 
ATOM     12  C   UNL     1       4.544   5.043  18.995  0.00  0.00    +0.000 A 
BRANCH   7  14
ATOM     13  C   UNL     1       3.557   1.374  18.568  0.00  0.00    +0.000 C 
ATOM     14  C   UNL     1       4.155   2.583  19.245  0.00  0.00    +0.000 C 
ATOM     15  O   UNL     1       5.010   2.470  20.121  0.00  0.00    +0.000 OA
ENDBRANCH   7  14
ENDBRANCH   1  10
BRANCH   4  16
ATOM     16  C   UNL     1       0.624  10.819  18.677  0.00  0.00    +0.000 C 
BRANCH  16  17
ATOM     17  C   UNL     1      -0.843  10.853  18.351  0.00  0.00    +0.000 A 
ATOM     18  C   UNL     1      -1.384   9.929  17.440  0.00  0.00    +0.000 A 
ATOM     19  C   UNL     1      -2.753   9.916  17.175  0.00  0.00    +0.000 A 
ATOM     20  C   UNL     1      -3.583  10.821  17.826  0.00  0.00    +0.000 A 
ATOM     21  F   UNL     1      -4.899  10.807  17.574  0.00  0.00    +0.000 F 
ATOM     22  C   UNL     1      -3.070  11.735  18.739  0.00  0.00    +0.000 A 
ATOM     23  C   UNL     1      -1.701  11.751  19.005  0.00  0.00    +0.000 A 
ENDBRANCH  16  17
ENDBRANCH   4  16
TORSDOF 4
ENDMDL
MODEL 5
REMARK VINA RESULT:      -7.1      0.303      1.518
REMARK  Name = 
REMARK  5 active torsions:
REMARK  status: ('A' for Active; 'I' for Inactive)
REMARK    1  A    between atoms: C_1  and  C_2
REMARK    2  A    between atoms: C_2  and  C_4
REMARK    3  A    between atoms: C_7  and  N_8
REMARK    4  A    between atoms: N_11  and  C_12
REMARK    5  A    between atoms: C_12  and  C_13
REMARK                            x       y       z     vdW  Elec       q    Type
REMARK                         _______ _______ _______ _____ _____    ______ ____
ROOT
ATOM      1  N   UNL     1       6.312   7.488  17.012  0.00  0.00    +0.000 N 
ATOM      2  C   UNL     1       7.383   7.788  17.829  0.00  0.00    +0.000 C 
ATOM      3  O   UNL     1       7.843   7.060  18.701  0.00  0.00    +0.000 OA
ATOM      4  N   UNL     1       7.898   9.043  17.604  0.00  0.00    +0.000 N 
ATOM      5  H   UNL     1       6.185   8.057  16.188  0.00  0.00    +0.000 HD
ATOM      6  H   UNL     1       7.802   9.443  16.684  0.00  0.00    +0.000 HD
ENDROOT
BRANCH   1  10
ATOM      7  C   UNL     1       3.926   4.011  17.405  0.00  0.00    +0.000 A 
ATOM      8  C   UNL     1       3.541   5.195  18.033  0.00  0.00    +0.000 A 
ATOM      9  C   UNL     1       4.323   6.345  17.900  0.00  0.00    +0.000 A 
ATOM     10  C   UNL     1       5.499   6.341  17.145  0.00  0.00    +0.000 A 
ATOM     11  C   UNL     1       5.867   5.164  16.485  0.00  0.00    +0.000 A 
ATOM     12  C   UNL     1       5.092   4.002  16.627  0.00  0.00    +0.000 A 
BRANCH   7  14
ATOM     13  C   UNL     1       3.723   1.584  18.261  0.00  0.00    +0.000 C 
ATOM     14  C   UNL     1       3.118   2.765  17.542  0.00  0.00    +0.000 C 
ATOM     15  O   UNL     1       1.979   2.720  17.082  0.00  0.00    +0.000 OA
ENDBRANCH   7  14
ENDBRANCH   1  10
BRANCH   4  16
ATOM     16  C   UNL     1       9.044   9.454  18.388  0.00  0.00    +0.000 C 
BRANCH  16  17
ATOM     17  C   UNL     1       9.474  10.861  18.078  0.00  0.00    +0.000 A 
ATOM     18  C   UNL     1       8.510  11.870  17.904  0.00  0.00    +0.000 A 
ATOM     19  C   UNL     1       8.901  13.188  17.673  0.00  0.00    +0.000 A 
ATOM     20  C   UNL     1      10.254  13.500  17.623  0.00  0.00    +0.000 A 
ATOM     21  F   UNL     1      10.630  14.767  17.404  0.00  0.00    +0.000 F 
ATOM     22  C   UNL     1      11.223  12.520  17.803  0.00  0.00    +0.000 A 
ATOM     23  C   UNL     1      10.834  11.200  18.034  0.00  0.00    +0.000 A 
ENDBRANCH  16  17
ENDBRANCH   4  16
TORSDOF 4
ENDMDL
MODEL 6
REMARK VINA RESULT:      -7.1      0.612      1.215
REMARK  Name = 
REMARK  5 active torsions:
REMARK  status: ('A' for Active; 'I' for Inactive)
REMARK    1  A    between atoms: C_1  and  C_2
REMARK    2  A    between atoms: C_2  and  C_4
REMARK    3  A    between atoms: C_7  and  N_8
REMARK    4  A    between atoms: N_11  and  C_12
REMARK    5  A    between atoms: C_12  and  C_13
REMARK                            x       y       z     vdW  Elec       q    Type
REMARK                         _______ _______ _______ _____ _____    ______ ____
ROOT
ATOM      1  N   UNL     1       6.436   7.578  17.045  0.00  0.00    +0.000 N 
ATOM      2  C   UNL     1       7.499   7.812  17.893  0.00  0.00    +0.000 C 
ATOM      3  O   UNL     1       7.912   7.041  18.751  0.00  0.00    +0.000 OA
ATOM      4  N   UNL     1       8.064   9.053  17.719  0.00  0.00    +0.000 N 
ATOM      5  H   UNL     1       6.347   8.176  16.237  0.00  0.00    +0.000 HD
ATOM      6  H   UNL     1       8.003   9.485  16.809  0.00  0.00    +0.000 HD
ENDROOT
BRANCH   1  10
ATOM      7  C   UNL     1       3.916   4.182  17.281  0.00  0.00    +0.000 A 
ATOM      8  C   UNL     1       3.533   5.377  17.890  0.00  0.00    +0.000 A 
ATOM      9  C   UNL     1       4.359   6.500  17.808  0.00  0.00    +0.000 A 
ATOM     10  C   UNL     1       5.578   6.458  17.124  0.00  0.00    +0.000 A 
ATOM     11  C   UNL     1       5.946   5.271  16.484  0.00  0.00    +0.000 A 
ATOM     12  C   UNL     1       5.125   4.135  16.575  0.00  0.00    +0.000 A 
BRANCH   7  14
ATOM     13  C   UNL     1       3.605   1.741  18.063  0.00  0.00    +0.000 C 
ATOM     14  C   UNL     1       3.059   2.963  17.365  0.00  0.00    +0.000 C 
ATOM     15  O   UNL     1       1.930   2.973  16.880  0.00  0.00    +0.000 OA
ENDBRANCH   7  14
ENDBRANCH   1  10
BRANCH   4  16
ATOM     16  C   UNL     1       9.207   9.396  18.539  0.00  0.00    +0.000 C 
BRANCH  16  17
ATOM     17  C   UNL     1       9.485  10.874  18.540  0.00  0.00    +0.000 A 
ATOM     18  C   UNL     1      10.609  11.378  19.217  0.00  0.00    +0.000 A 
ATOM     19  C   UNL     1      10.907  12.740  19.176  0.00  0.00    +0.000 A 
ATOM     20  C   UNL     1      10.086  13.597  18.453  0.00  0.00    +0.000 A 
ATOM     21  F   UNL     1      10.374  14.905  18.410  0.00  0.00    +0.000 F 
ATOM     22  C   UNL     1       8.977  13.117  17.767  0.00  0.00    +0.000 A 
ATOM     23  C   UNL     1       8.676  11.755  17.808  0.00  0.00    +0.000 A 
ENDBRANCH  16  17
ENDBRANCH   4  16
TORSDOF 4
ENDMDL
MODEL 7
REMARK VINA RESULT:      -7.1      6.028      8.065
REMARK  Name = 
REMARK  5 active torsions:
REMARK  status: ('A' for Active; 'I' for Inactive)
REMARK    1  A    between atoms: C_1  and  C_2
REMARK    2  A    between atoms: C_2  and  C_4
REMARK    3  A    between atoms: C_7  and  N_8
REMARK    4  A    between atoms: N_11  and  C_12
REMARK    5  A    between atoms: C_12  and  C_13
REMARK                            x       y       z     vdW  Elec       q    Type
REMARK                         _______ _______ _______ _____ _____    ______ ____
ROOT
ATOM      1  N   UNL     1       2.645   7.147  18.704  0.00  0.00    +0.000 N 
ATOM      2  C   UNL     1       2.073   8.366  18.405  0.00  0.00    +0.000 C 
ATOM      3  O   UNL     1       2.203   8.978  17.351  0.00  0.00    +0.000 OA
ATOM      4  N   UNL     1       1.337   8.886  19.444  0.00  0.00    +0.000 N 
ATOM      5  H   UNL     1       2.275   6.643  19.496  0.00  0.00    +0.000 HD
ATOM      6  H   UNL     1       0.917   8.247  20.101  0.00  0.00    +0.000 HD
ENDROOT
BRANCH   1  10
ATOM      7  C   UNL     1       5.487   5.177  16.258  0.00  0.00    +0.000 A 
ATOM      8  C   UNL     1       4.445   4.453  16.837  0.00  0.00    +0.000 A 
ATOM      9  C   UNL     1       3.503   5.101  17.639  0.00  0.00    +0.000 A 
ATOM     10  C   UNL     1       3.578   6.476  17.882  0.00  0.00    +0.000 A 
ATOM     11  C   UNL     1       4.602   7.209  17.272  0.00  0.00    +0.000 A 
ATOM     12  C   UNL     1       5.559   6.559  16.477  0.00  0.00    +0.000 A 
BRANCH   7  14
ATOM     13  C   UNL     1       6.097   3.951  14.070  0.00  0.00    +0.000 C 
ATOM     14  C   UNL     1       6.515   4.507  15.409  0.00  0.00    +0.000 C 
ATOM     15  O   UNL     1       7.677   4.428  15.801  0.00  0.00    +0.000 OA
ENDBRANCH   7  14
ENDBRANCH   1  10
BRANCH   4  16
ATOM     16  C   UNL     1       0.668  10.152  19.232  0.00  0.00    +0.000 C 
BRANCH  16  17
ATOM     17  C   UNL     1      -0.142  10.577  20.426  0.00  0.00    +0.000 A 
ATOM     18  C   UNL     1       0.036   9.933  21.663  0.00  0.00    +0.000 A 
ATOM     19  C   UNL     1      -0.669  10.359  22.789  0.00  0.00    +0.000 A 
ATOM     20  C   UNL     1      -1.545  11.432  22.680  0.00  0.00    +0.000 A 
ATOM     21  F   UNL     1      -2.219  11.844  23.762  0.00  0.00    +0.000 F 
ATOM     22  C   UNL     1      -1.726  12.090  21.470  0.00  0.00    +0.000 A 
ATOM     23  C   UNL     1      -1.023  11.665  20.341  0.00  0.00    +0.000 A 
ENDBRANCH  16  17
ENDBRANCH   4  16
TORSDOF 4
ENDMDL
MODEL 8
REMARK VINA RESULT:      -7.0      7.237     10.312
REMARK  Name = 
REMARK  5 active torsions:
REMARK  status: ('A' for Active; 'I' for Inactive)
REMARK    1  A    between atoms: C_1  and  C_2
REMARK    2  A    between atoms: C_2  and  C_4
REMARK    3  A    between atoms: C_7  and  N_8
REMARK    4  A    between atoms: N_11  and  C_12
REMARK    5  A    between atoms: C_12  and  C_13
REMARK                            x       y       z     vdW  Elec       q    Type
REMARK                         _______ _______ _______ _____ _____    ______ ____
ROOT
ATOM      1  N   UNL     1       1.524   8.274  21.399  0.00  0.00    +0.000 N 
ATOM      2  C   UNL     1       1.792   7.951  20.085  0.00  0.00    +0.000 C 
ATOM      3  O   UNL     1       1.476   8.619  19.106  0.00  0.00    +0.000 OA
ATOM      4  N   UNL     1       2.440   6.747  19.946  0.00  0.00    +0.000 N 
ATOM      5  H   UNL     1       2.037   7.776  22.112  0.00  0.00    +0.000 HD
ATOM      6  H   UNL     1       3.025   6.427  20.702  0.00  0.00    +0.000 HD
ENDROOT
BRANCH   1  10
ATOM      7  C   UNL     1      -0.864  11.569  22.573  0.00  0.00    +0.000 A 
ATOM      8  C   UNL     1      -0.937  10.368  23.279  0.00  0.00    +0.000 A 
ATOM      9  C   UNL     1      -0.147   9.282  22.898  0.00  0.00    +0.000 A 
ATOM     10  C   UNL     1       0.729   9.366  21.811  0.00  0.00    +0.000 A 
ATOM     11  C   UNL     1       0.830  10.581  21.125  0.00  0.00    +0.000 A 
ATOM     12  C   UNL     1       0.027  11.671  21.496  0.00  0.00    +0.000 A 
BRANCH   7  14
ATOM     13  C   UNL     1      -3.142  12.779  22.483  0.00  0.00    +0.000 C 
ATOM     14  C   UNL     1      -1.707  12.740  22.950  0.00  0.00    +0.000 C 
ATOM     15  O   UNL     1      -1.233  13.642  23.637  0.00  0.00    +0.000 OA
ENDBRANCH   7  14
ENDBRANCH   1  10
BRANCH   4  16
ATOM     16  C   UNL     1       2.795   6.320  18.609  0.00  0.00    +0.000 C 
BRANCH  16  17
ATOM     17  C   UNL     1       3.086   4.846  18.538  0.00  0.00    +0.000 A 
ATOM     18  C   UNL     1       4.060   4.279  19.378  0.00  0.00    +0.000 A 
ATOM     19  C   UNL     1       4.296   2.905  19.360  0.00  0.00    +0.000 A 
ATOM     20  C   UNL     1       3.555   2.096  18.507  0.00  0.00    +0.000 A 
ATOM     21  F   UNL     1       3.779   0.776  18.491  0.00  0.00    +0.000 F 
ATOM     22  C   UNL     1       2.580   2.635  17.676  0.00  0.00    +0.000 A 
ATOM     23  C   UNL     1       2.342   4.010  17.692  0.00  0.00    +0.000 A 
ENDBRANCH  16  17
ENDBRANCH   4  16
TORSDOF 4
ENDMDL
MODEL 9
REMARK VINA RESULT:      -7.0      5.760      8.157
REMARK  Name = 
REMARK  5 active torsions:
REMARK  status: ('A' for Active; 'I' for Inactive)
REMARK    1  A    between atoms: C_1  and  C_2
REMARK    2  A    between atoms: C_2  and  C_4
REMARK    3  A    between atoms: C_7  and  N_8
REMARK    4  A    between atoms: N_11  and  C_12
REMARK    5  A    between atoms: C_12  and  C_13
REMARK                            x       y       z     vdW  Elec       q    Type
REMARK                         _______ _______ _______ _____ _____    ______ ____
ROOT
ATOM      1  N   UNL     1       2.707   7.341  20.046  0.00  0.00    +0.000 N 
ATOM      2  C   UNL     1       2.819   6.156  19.348  0.00  0.00    +0.000 C 
ATOM      3  O   UNL     1       2.123   5.818  18.398  0.00  0.00    +0.000 OA
ATOM      4  N   UNL     1       3.795   5.326  19.847  0.00  0.00    +0.000 N 
ATOM      5  H   UNL     1       3.479   7.603  20.641  0.00  0.00    +0.000 HD
ATOM      6  H   UNL     1       4.583   5.742  20.320  0.00  0.00    +0.000 HD
ENDROOT
BRANCH   1  10
ATOM      7  C   UNL     1      -0.367  10.181  19.396  0.00  0.00    +0.000 A 
ATOM      8  C   UNL     1      -0.254   9.547  20.633  0.00  0.00    +0.000 A 
ATOM      9  C   UNL     1       0.762   8.615  20.852  0.00  0.00    +0.000 A 
ATOM     10  C   UNL     1       1.683   8.294  19.850  0.00  0.00    +0.000 A 
ATOM     11  C   UNL     1       1.592   8.955  18.621  0.00  0.00    +0.000 A 
ATOM     12  C   UNL     1       0.564   9.883  18.392  0.00  0.00    +0.000 A 
BRANCH   7  14
ATOM     13  C   UNL     1      -2.253  11.042  17.858  0.00  0.00    +0.000 C 
ATOM     14  C   UNL     1      -1.451  11.171  19.130  0.00  0.00    +0.000 C 
ATOM     15  O   UNL     1      -1.683  12.060  19.946  0.00  0.00    +0.000 OA
ENDBRANCH   7  14
ENDBRANCH   1  10
BRANCH   4  16
ATOM     16  C   UNL     1       4.019   4.065  19.173  0.00  0.00    +0.000 C 
BRANCH  16  17
ATOM     17  C   UNL     1       4.990   4.190  18.032  0.00  0.00    +0.000 A 
ATOM     18  C   UNL     1       4.564   3.951  16.715  0.00  0.00    +0.000 A 
ATOM     19  C   UNL     1       5.443   4.121  15.645  0.00  0.00    +0.000 A 
ATOM     20  C   UNL     1       6.746   4.536  15.892  0.00  0.00    +0.000 A 
ATOM     21  F   UNL     1       7.590   4.703  14.865  0.00  0.00    +0.000 F 
ATOM     22  C   UNL     1       7.184   4.789  17.186  0.00  0.00    +0.000 A 
ATOM     23  C   UNL     1       6.307   4.619  18.258  0.00  0.00    +0.000 A 
ENDBRANCH  16  17
ENDBRANCH   4  16
TORSDOF 4
ENDMDL
