MODEL 1
REMARK VINA RESULT:      -7.5      0.000      0.000
REMARK  Name = 
REMARK  2 active torsions:
REMARK  status: ('A' for Active; 'I' for Inactive)
REMARK    1  A    between atoms: C_2  and  C_3
REMARK    2  A    between atoms: C_3  and  N_4
REMARK                            x       y       z     vdW  Elec       q    Type
REMARK                         _______ _______ _______ _____ _____    ______ ____
ROOT
ATOM      1  N   UNL     1       0.908  10.630  19.290  0.00  0.00    +0.000 N 
ATOM      2  C   UNL     1       0.090  10.005  20.300  0.00  0.00    +0.000 C 
ATOM      3  O   UNL     1       0.840   9.051  21.047  0.00  0.00    +0.000 OA
ATOM      4  C   UNL     1       1.471   8.147  20.229  0.00  0.00    +0.000 A 
ATOM      5  C   UNL     1       1.773   6.898  20.765  0.00  0.00    +0.000 A 
ATOM      6  C   UNL     1       2.408   5.950  19.951  0.00  0.00    +0.000 A 
ATOM      7  C   UNL     1       2.755   6.257  18.634  0.00  0.00    +0.000 A 
ATOM      8  C   UNL     1       2.484   7.518  18.117  0.00  0.00    +0.000 A 
ATOM      9  C   UNL     1       1.835   8.455  18.918  0.00  0.00    +0.000 A 
ATOM     10  C   UNL     1       1.638   9.834  18.438  0.00  0.00    +0.000 C 
ATOM     11  O   UNL     1       2.173  10.233  17.413  0.00  0.00    +0.000 OA
ATOM     12  O   UNL     1       3.302   5.375  17.750  0.00  0.00    +0.000 OA
ATOM     13  C   UNL     1       3.750   4.144  18.295  0.00  0.00    +0.000 C 
ATOM     14  C   UNL     1       3.474   3.032  17.292  0.00  0.00    +0.000 C 
ATOM     15  C   UNL     1       3.424   1.785  18.165  0.00  0.00    +0.000 C 
ATOM     16  C   UNL     1       2.829   2.278  19.480  0.00  0.00    +0.000 C 
ATOM     17  N   UNL     1       3.026   3.710  19.456  0.00  0.00    +0.000 N 
ATOM     18  C   UNL     1       2.554   4.557  20.414  0.00  0.00    +0.000 C 
ATOM     19  O   UNL     1       2.161   4.205  21.519  0.00  0.00    +0.000 OA
ENDROOT
BRANCH   1  20
ATOM     20  C   UNL     1       1.213  12.051  19.371  0.00  0.00    +0.000 C 
BRANCH  20  22
ATOM     21  N   UNL     1       0.573  13.014  21.741  0.00  0.00    +0.000 NA
ATOM     22  C   UNL     1       0.869  12.603  20.696  0.00  0.00    +0.000 C 
ENDBRANCH  20  22
ENDBRANCH   1  20
TORSDOF 2
ENDMDL
MODEL 2
REMARK VINA RESULT:      -7.2      2.222      2.758
REMARK  Name = 
REMARK  2 active torsions:
REMARK  status: ('A' for Active; 'I' for Inactive)
REMARK    1  A    between atoms: C_2  and  C_3
REMARK    2  A    between atoms: C_3  and  N_4
REMARK                            x       y       z     vdW  Elec       q    Type
REMARK                         _______ _______ _______ _____ _____    ______ ____
ROOT
ATOM      1  N   UNL     1       0.527   9.158  20.309  0.00  0.00    +0.000 N 
ATOM      2  C   UNL     1       0.234   7.843  20.825  0.00  0.00    +0.000 C 
ATOM      3  O   UNL     1       1.430   7.091  21.016  0.00  0.00    +0.000 OA
ATOM      4  C   UNL     1       2.202   7.066  19.881  0.00  0.00    +0.000 A 
ATOM      5  C   UNL     1       3.073   5.992  19.721  0.00  0.00    +0.000 A 
ATOM      6  C   UNL     1       3.866   5.932  18.566  0.00  0.00    +0.000 A 
ATOM      7  C   UNL     1       3.805   6.943  17.605  0.00  0.00    +0.000 A 
ATOM      8  C   UNL     1       2.961   8.030  17.789  0.00  0.00    +0.000 A 
ATOM      9  C   UNL     1       2.157   8.081  18.925  0.00  0.00    +0.000 A 
ATOM     10  C   UNL     1       1.339   9.275  19.205  0.00  0.00    +0.000 C 
ATOM     11  O   UNL     1       1.465  10.300  18.549  0.00  0.00    +0.000 OA
ATOM     12  O   UNL     1       4.480   6.927  16.421  0.00  0.00    +0.000 OA
ATOM     13  C   UNL     1       5.476   5.927  16.284  0.00  0.00    +0.000 C 
ATOM     14  C   UNL     1       5.483   5.431  14.844  0.00  0.00    +0.000 C 
ATOM     15  C   UNL     1       6.101   4.044  14.959  0.00  0.00    +0.000 C 
ATOM     16  C   UNL     1       5.620   3.537  16.315  0.00  0.00    +0.000 C 
ATOM     17  N   UNL     1       5.220   4.728  17.030  0.00  0.00    +0.000 N 
ATOM     18  C   UNL     1       4.641   4.713  18.264  0.00  0.00    +0.000 C 
ATOM     19  O   UNL     1       4.638   3.749  19.018  0.00  0.00    +0.000 OA
ENDROOT
BRANCH   1  20
ATOM     20  C   UNL     1       0.250  10.338  21.115  0.00  0.00    +0.000 C 
BRANCH  20  22
ATOM     21  N   UNL     1       0.159   9.721  23.677  0.00  0.00    +0.000 NA
ATOM     22  C   UNL     1       0.194  10.011  22.553  0.00  0.00    +0.000 C 
ENDBRANCH  20  22
ENDBRANCH   1  20
TORSDOF 2
ENDMDL
MODEL 3
REMARK VINA RESULT:      -7.0      2.447      6.877
REMARK  Name = 
REMARK  2 active torsions:
REMARK  status: ('A' for Active; 'I' for Inactive)
REMARK    1  A    between atoms: C_2  and  C_3
REMARK    2  A    between atoms: C_3  and  N_4
REMARK                            x       y       z     vdW  Elec       q    Type
REMARK                         _______ _______ _______ _____ _____    ______ ____
ROOT
ATOM      1  N   UNL     1       5.519   5.296  17.095  0.00  0.00    +0.000 N 
ATOM      2  C   UNL     1       5.578   5.013  18.508  0.00  0.00    +0.000 C 
ATOM      3  O   UNL     1       4.278   5.055  19.091  0.00  0.00    +0.000 OA
ATOM      4  C   UNL     1       3.628   6.230  18.803  0.00  0.00    +0.000 A 
ATOM      5  C   UNL     1       2.640   6.651  19.688  0.00  0.00    +0.000 A 
ATOM      6  C   UNL     1       1.967   7.853  19.426  0.00  0.00    +0.000 A 
ATOM      7  C   UNL     1       2.260   8.602  18.286  0.00  0.00    +0.000 A 
ATOM      8  C   UNL     1       3.222   8.157  17.387  0.00  0.00    +0.000 A 
ATOM      9  C   UNL     1       3.907   6.974  17.656  0.00  0.00    +0.000 A 
ATOM     10  C   UNL     1       4.847   6.417  16.667  0.00  0.00    +0.000 C 
ATOM     11  O   UNL     1       4.927   6.879  15.537  0.00  0.00    +0.000 OA
ATOM     12  O   UNL     1       1.713   9.815  17.993  0.00  0.00    +0.000 OA
ATOM     13  C   UNL     1       0.609  10.210  18.792  0.00  0.00    +0.000 C 
ATOM     14  C   UNL     1       0.680  11.713  19.024  0.00  0.00    +0.000 C 
ATOM     15  C   UNL     1      -0.129  11.905  20.300  0.00  0.00    +0.000 C 
ATOM     16  C   UNL     1       0.140  10.635  21.101  0.00  0.00    +0.000 C 
ATOM     17  N   UNL     1       0.623   9.682  20.127  0.00  0.00    +0.000 N 
ATOM     18  C   UNL     1       1.068   8.433  20.442  0.00  0.00    +0.000 C 
ATOM     19  O   UNL     1       0.864   7.873  21.512  0.00  0.00    +0.000 OA
ENDROOT
BRANCH   1  20
ATOM     20  C   UNL     1       5.871   4.267  16.128  0.00  0.00    +0.000 C 
BRANCH  20  22
ATOM     21  N   UNL     1       7.690   5.122  14.420  0.00  0.00    +0.000 NA
ATOM     22  C   UNL     1       6.903   4.740  15.185  0.00  0.00    +0.000 C 
ENDBRANCH  20  22
ENDBRANCH   1  20
TORSDOF 2
ENDMDL
MODEL 4
REMARK VINA RESULT:      -7.0      2.071      6.889
REMARK  Name = 
REMARK  2 active torsions:
REMARK  status: ('A' for Active; 'I' for Inactive)
REMARK    1  A    between atoms: C_2  and  C_3
REMARK    2  A    between atoms: C_3  and  N_4
REMARK                            x       y       z     vdW  Elec       q    Type
REMARK                         _______ _______ _______ _____ _____    ______ ____
ROOT
ATOM      1  N   UNL     1       4.903   5.474  17.885  0.00  0.00    +0.000 N 
ATOM      2  C   UNL     1       4.868   5.321  19.319  0.00  0.00    +0.000 C 
ATOM      3  O   UNL     1       3.540   5.466  19.816  0.00  0.00    +0.000 OA
ATOM      4  C   UNL     1       2.959   6.632  19.383  0.00  0.00    +0.000 A 
ATOM      5  C   UNL     1       1.941   7.171  20.165  0.00  0.00    +0.000 A 
ATOM      6  C   UNL     1       1.336   8.367  19.755  0.00  0.00    +0.000 A 
ATOM      7  C   UNL     1       1.727   8.996  18.571  0.00  0.00    +0.000 A 
ATOM      8  C   UNL     1       2.718   8.433  17.777  0.00  0.00    +0.000 A 
ATOM      9  C   UNL     1       3.335   7.256  18.193  0.00  0.00    +0.000 A 
ATOM     10  C   UNL     1       4.305   6.575  17.317  0.00  0.00    +0.000 C 
ATOM     11  O   UNL     1       4.470   6.926  16.157  0.00  0.00    +0.000 OA
ATOM     12  O   UNL     1       1.250  10.197  18.137  0.00  0.00    +0.000 OA
ATOM     13  C   UNL     1       0.120  10.705  18.828  0.00  0.00    +0.000 C 
ATOM     14  C   UNL     1       0.243  12.220  18.927  0.00  0.00    +0.000 C 
ATOM     15  C   UNL     1      -0.629  12.559  20.129  0.00  0.00    +0.000 C 
ATOM     16  C   UNL     1      -0.461  11.360  21.057  0.00  0.00    +0.000 C 
ATOM     17  N   UNL     1       0.035  10.304  20.204  0.00  0.00    +0.000 N 
ATOM     18  C   UNL     1       0.407   9.073  20.657  0.00  0.00    +0.000 C 
ATOM     19  O   UNL     1       0.118   8.623  21.759  0.00  0.00    +0.000 OA
ENDROOT
BRANCH   1  20
ATOM     20  C   UNL     1       5.265   4.347  17.038  0.00  0.00    +0.000 C 
BRANCH  20  22
ATOM     21  N   UNL     1       7.802   4.459  16.330  0.00  0.00    +0.000 NA
ATOM     22  C   UNL     1       6.680   4.414  16.623  0.00  0.00    +0.000 C 
ENDBRANCH  20  22
ENDBRANCH   1  20
TORSDOF 2
ENDMDL
MODEL 5
REMARK VINA RESULT:      -7.0      1.105      6.850
REMARK  Name = 
REMARK  2 active torsions:
REMARK  status: ('A' for Active; 'I' for Inactive)
REMARK    1  A    between atoms: C_2  and  C_3
REMARK    2  A    between atoms: C_3  and  N_4
REMARK                            x       y       z     vdW  Elec       q    Type
REMARK                         _______ _______ _______ _____ _____    ______ ____
ROOT
ATOM      1  N   UNL     1       3.103   4.027  19.333  0.00  0.00    +0.000 N 
ATOM      2  C   UNL     1       2.980   4.266  20.750  0.00  0.00    +0.000 C 
ATOM      3  O   UNL     1       1.872   5.118  21.031  0.00  0.00    +0.000 OA
ATOM      4  C   UNL     1       1.918   6.273  20.291  0.00  0.00    +0.000 A 
ATOM      5  C   UNL     1       1.266   7.391  20.804  0.00  0.00    +0.000 A 
ATOM      6  C   UNL     1       1.305   8.588  20.077  0.00  0.00    +0.000 A 
ATOM      7  C   UNL     1       1.962   8.656  18.847  0.00  0.00    +0.000 A 
ATOM      8  C   UNL     1       2.580   7.527  18.323  0.00  0.00    +0.000 A 
ATOM      9  C   UNL     1       2.561   6.342  19.054  0.00  0.00    +0.000 A 
ATOM     10  C   UNL     1       3.105   5.101  18.474  0.00  0.00    +0.000 C 
ATOM     11  O   UNL     1       3.433   5.040  17.297  0.00  0.00    +0.000 OA
ATOM     12  O   UNL     1       2.116   9.794  18.112  0.00  0.00    +0.000 OA
ATOM     13  C   UNL     1       1.352  10.913  18.529  0.00  0.00    +0.000 C 
ATOM     14  C   UNL     1       2.175  12.178  18.322  0.00  0.00    +0.000 C 
ATOM     15  C   UNL     1       1.551  13.161  19.303  0.00  0.00    +0.000 C 
ATOM     16  C   UNL     1       1.119  12.288  20.476  0.00  0.00    +0.000 C 
ATOM     17  N   UNL     1       1.068  10.948  19.936  0.00  0.00    +0.000 N 
ATOM     18  C   UNL     1       0.807   9.838  20.683  0.00  0.00    +0.000 C 
ATOM     19  O   UNL     1       0.324   9.856  21.808  0.00  0.00    +0.000 OA
ENDROOT
BRANCH   1  20
ATOM     20  C   UNL     1       2.900   2.690  18.797  0.00  0.00    +0.000 C 
BRANCH  20  22
ATOM     21  N   UNL     1       0.333   2.135  18.568  0.00  0.00    +0.000 NA
ATOM     22  C   UNL     1       1.465   2.364  18.682  0.00  0.00    +0.000 C 
ENDBRANCH  20  22
ENDBRANCH   1  20
TORSDOF 2
ENDMDL
MODEL 6
REMARK VINA RESULT:      -7.0      2.958      6.855
REMARK  Name = 
REMARK  2 active torsions:
REMARK  status: ('A' for Active; 'I' for Inactive)
REMARK    1  A    between atoms: C_2  and  C_3
REMARK    2  A    between atoms: C_3  and  N_4
REMARK                            x       y       z     vdW  Elec       q    Type
REMARK                         _______ _______ _______ _____ _____    ______ ____
ROOT
ATOM      1  N   UNL     1       5.868   5.140  16.156  0.00  0.00    +0.000 N 
ATOM      2  C   UNL     1       6.050   4.568  17.467  0.00  0.00    +0.000 C 
ATOM      3  O   UNL     1       4.803   4.445  18.148  0.00  0.00    +0.000 OA
ATOM      4  C   UNL     1       4.116   5.634  18.168  0.00  0.00    +0.000 A 
ATOM      5  C   UNL     1       3.201   5.828  19.199  0.00  0.00    +0.000 A 
ATOM      6  C   UNL     1       2.492   7.036  19.253  0.00  0.00    +0.000 A 
ATOM      7  C   UNL     1       2.678   8.018  18.278  0.00  0.00    +0.000 A 
ATOM      8  C   UNL     1       3.566   7.802  17.231  0.00  0.00    +0.000 A 
ATOM      9  C   UNL     1       4.287   6.611  17.187  0.00  0.00    +0.000 A 
ATOM     10  C   UNL     1       5.147   6.305  16.031  0.00  0.00    +0.000 C 
ATOM     11  O   UNL     1       5.126   6.996  15.022  0.00  0.00    +0.000 OA
ATOM     12  O   UNL     1       2.092   9.248  18.294  0.00  0.00    +0.000 OA
ATOM     13  C   UNL     1       1.054   9.431  19.244  0.00  0.00    +0.000 C 
ATOM     14  C   UNL     1       1.124  10.853  19.784  0.00  0.00    +0.000 C 
ATOM     15  C   UNL     1       0.423  10.747  21.132  0.00  0.00    +0.000 C 
ATOM     16  C   UNL     1       0.776   9.345  21.621  0.00  0.00    +0.000 C 
ATOM     17  N   UNL     1       1.188   8.635  20.431  0.00  0.00    +0.000 N 
ATOM     18  C   UNL     1       1.674   7.362  20.437  0.00  0.00    +0.000 C 
ATOM     19  O   UNL     1       1.569   6.583  21.376  0.00  0.00    +0.000 OA
ENDROOT
BRANCH   1  20
ATOM     20  C   UNL     1       6.151   4.349  14.967  0.00  0.00    +0.000 C 
BRANCH  20  22
ATOM     21  N   UNL     1       8.088   5.411  13.526  0.00  0.00    +0.000 NA
ATOM     22  C   UNL     1       7.248   4.937  14.174  0.00  0.00    +0.000 C 
ENDBRANCH  20  22
ENDBRANCH   1  20
TORSDOF 2
ENDMDL
MODEL 7
REMARK VINA RESULT:      -7.0      1.558      7.197
REMARK  Name = 
REMARK  2 active torsions:
REMARK  status: ('A' for Active; 'I' for Inactive)
REMARK    1  A    between atoms: C_2  and  C_3
REMARK    2  A    between atoms: C_3  and  N_4
REMARK                            x       y       z     vdW  Elec       q    Type
REMARK                         _______ _______ _______ _____ _____    ______ ____
ROOT
ATOM      1  N   UNL     1       2.870   4.342  19.081  0.00  0.00    +0.000 N 
ATOM      2  C   UNL     1       2.503   4.942  17.822  0.00  0.00    +0.000 C 
ATOM      3  O   UNL     1       2.793   6.338  17.818  0.00  0.00    +0.000 OA
ATOM      4  C   UNL     1       2.241   6.976  18.901  0.00  0.00    +0.000 A 
ATOM      5  C   UNL     1       1.968   8.335  18.775  0.00  0.00    +0.000 A 
ATOM      6  C   UNL     1       1.393   9.012  19.860  0.00  0.00    +0.000 A 
ATOM      7  C   UNL     1       1.123   8.344  21.056  0.00  0.00    +0.000 A 
ATOM      8  C   UNL     1       1.431   6.996  21.187  0.00  0.00    +0.000 A 
ATOM      9  C   UNL     1       1.983   6.316  20.103  0.00  0.00    +0.000 A 
ATOM     10  C   UNL     1       2.427   4.919  20.249  0.00  0.00    +0.000 C 
ATOM     11  O   UNL     1       2.476   4.379  21.345  0.00  0.00    +0.000 OA
ATOM     12  O   UNL     1       0.497   8.901  22.130  0.00  0.00    +0.000 OA
ATOM     13  C   UNL     1       0.331  10.310  22.094  0.00  0.00    +0.000 C 
ATOM     14  C   UNL     1      -1.007  10.665  22.727  0.00  0.00    +0.000 C 
ATOM     15  C   UNL     1      -1.329  12.023  22.117  0.00  0.00    +0.000 C 
ATOM     16  C   UNL     1      -0.743  11.943  20.711  0.00  0.00    +0.000 C 
ATOM     17  N   UNL     1       0.212  10.859  20.772  0.00  0.00    +0.000 N 
ATOM     18  C   UNL     1       0.902  10.392  19.694  0.00  0.00    +0.000 C 
ATOM     19  O   UNL     1       1.010  10.987  18.629  0.00  0.00    +0.000 OA
ENDROOT
BRANCH   1  20
ATOM     20  C   UNL     1       3.940   3.357  19.138  0.00  0.00    +0.000 C 
BRANCH  20  22
ATOM     21  N   UNL     1       6.313   4.487  18.927  0.00  0.00    +0.000 NA
ATOM     22  C   UNL     1       5.267   3.990  19.000  0.00  0.00    +0.000 C 
ENDBRANCH  20  22
ENDBRANCH   1  20
TORSDOF 2
ENDMDL
MODEL 8
REMARK VINA RESULT:      -6.9      1.400      7.266
REMARK  Name = 
REMARK  2 active torsions:
REMARK  status: ('A' for Active; 'I' for Inactive)
REMARK    1  A    between atoms: C_2  and  C_3
REMARK    2  A    between atoms: C_3  and  N_4
REMARK                            x       y       z     vdW  Elec       q    Type
REMARK                         _______ _______ _______ _____ _____    ______ ____
ROOT
ATOM      1  N   UNL     1       2.732   2.604  18.693  0.00  0.00    +0.000 N 
ATOM      2  C   UNL     1       2.609   3.150  17.364  0.00  0.00    +0.000 C 
ATOM      3  O   UNL     1       3.166   4.460  17.297  0.00  0.00    +0.000 OA
ATOM      4  C   UNL     1       2.651   5.283  18.268  0.00  0.00    +0.000 A 
ATOM      5  C   UNL     1       2.663   6.653  18.022  0.00  0.00    +0.000 A 
ATOM      6  C   UNL     1       2.133   7.517  18.990  0.00  0.00    +0.000 A 
ATOM      7  C   UNL     1       1.626   7.019  20.192  0.00  0.00    +0.000 A 
ATOM      8  C   UNL     1       1.650   5.653  20.446  0.00  0.00    +0.000 A 
ATOM      9  C   UNL     1       2.157   4.791  19.477  0.00  0.00    +0.000 A 
ATOM     10  C   UNL     1       2.303   3.353  19.764  0.00  0.00    +0.000 C 
ATOM     11  O   UNL     1       2.142   2.910  20.893  0.00  0.00    +0.000 OA
ATOM     12  O   UNL     1       1.024   7.776  21.151  0.00  0.00    +0.000 OA
ATOM     13  C   UNL     1       1.141   9.181  21.002  0.00  0.00    +0.000 C 
ATOM     14  C   UNL     1      -0.155   9.837  21.461  0.00  0.00    +0.000 C 
ATOM     15  C   UNL     1      -0.145  11.172  20.729  0.00  0.00    +0.000 C 
ATOM     16  C   UNL     1       0.543  10.861  19.404  0.00  0.00    +0.000 C 
ATOM     17  N   UNL     1       1.256   9.626  19.642  0.00  0.00    +0.000 N 
ATOM     18  C   UNL     1       1.939   8.946  18.678  0.00  0.00    +0.000 C 
ATOM     19  O   UNL     1       2.261   9.415  17.594  0.00  0.00    +0.000 OA
ENDROOT
BRANCH   1  20
ATOM     20  C   UNL     1       3.577   1.443  18.931  0.00  0.00    +0.000 C 
BRANCH  20  22
ATOM     21  N   UNL     1       5.217   1.805  20.964  0.00  0.00    +0.000 NA
ATOM     22  C   UNL     1       4.483   1.659  20.077  0.00  0.00    +0.000 C 
ENDBRANCH  20  22
ENDBRANCH   1  20
TORSDOF 2
ENDMDL
MODEL 9
REMARK VINA RESULT:      -6.8      2.302      4.177
REMARK  Name = 
REMARK  2 active torsions:
REMARK  status: ('A' for Active; 'I' for Inactive)
REMARK    1  A    between atoms: C_2  and  C_3
REMARK    2  A    between atoms: C_3  and  N_4
REMARK                            x       y       z     vdW  Elec       q    Type
REMARK                         _______ _______ _______ _____ _____    ______ ____
ROOT
ATOM      1  N   UNL     1      -0.688  12.038  22.486  0.00  0.00    +0.000 N 
ATOM      2  C   UNL     1      -0.005  12.819  21.484  0.00  0.00    +0.000 C 
ATOM      3  O   UNL     1      -0.028  12.161  20.220  0.00  0.00    +0.000 OA
ATOM      4  C   UNL     1       0.438  10.872  20.309  0.00  0.00    +0.000 A 
ATOM      5  C   UNL     1       0.974  10.302  19.158  0.00  0.00    +0.000 A 
ATOM      6  C   UNL     1       1.468   8.992  19.221  0.00  0.00    +0.000 A 
ATOM      7  C   UNL     1       1.401   8.259  20.407  0.00  0.00    +0.000 A 
ATOM      8  C   UNL     1       0.831   8.822  21.543  0.00  0.00    +0.000 A 
ATOM      9  C   UNL     1       0.359  10.131  21.489  0.00  0.00    +0.000 A 
ATOM     10  C   UNL     1      -0.354  10.713  22.640  0.00  0.00    +0.000 C 
ATOM     11  O   UNL     1      -0.689  10.025  23.594  0.00  0.00    +0.000 OA
ATOM     12  O   UNL     1       1.925   7.013  20.579  0.00  0.00    +0.000 OA
ATOM     13  C   UNL     1       2.351   6.348  19.401  0.00  0.00    +0.000 C 
ATOM     14  C   UNL     1       3.603   5.540  19.716  0.00  0.00    +0.000 C 
ATOM     15  C   UNL     1       4.270   5.390  18.355  0.00  0.00    +0.000 C 
ATOM     16  C   UNL     1       3.929   6.690  17.633  0.00  0.00    +0.000 C 
ATOM     17  N   UNL     1       2.795   7.223  18.353  0.00  0.00    +0.000 N 
ATOM     18  C   UNL     1       2.227   8.433  18.086  0.00  0.00    +0.000 C 
ATOM     19  O   UNL     1       2.415   9.077  17.062  0.00  0.00    +0.000 OA
ENDROOT
BRANCH   1  20
ATOM     20  C   UNL     1      -1.915  12.536  23.091  0.00  0.00    +0.000 C 
BRANCH  20  22
ATOM     21  N   UNL     1      -3.842  12.697  21.299  0.00  0.00    +0.000 NA
ATOM     22  C   UNL     1      -3.005  12.634  22.102  0.00  0.00    +0.000 C 
ENDBRANCH  20  22
ENDBRANCH   1  20
TORSDOF 2
ENDMDL
