MODEL 1
REMARK VINA RESULT:      -6.5      0.000      0.000
REMARK  Name = 
REMARK  5 active torsions:
REMARK  status: ('A' for Active; 'I' for Inactive)
REMARK    1  A    between atoms: N_1  and  C_2
REMARK    2  A    between atoms: C_2  and  C_3
REMARK    3  A    between atoms: C_3  and  O_5
REMARK    4  A    between atoms: C_11  and  C_12
REMARK    5  A    between atoms: C_12  and  O_14
REMARK                            x       y       z     vdW  Elec       q    Type
REMARK                         _______ _______ _______ _____ _____    ______ ____
ROOT
ATOM      1  C   UNL     1       7.089   5.187  17.929  0.00  0.00    +0.000 C 
ATOM      2  C   UNL     1       7.086   6.283  16.856  0.00  0.00    +0.000 C 
ATOM      3  S   UNL     1       5.738   5.857  15.780  0.00  0.00    +0.000 S 
ATOM      4  O   UNL     1       5.074   7.048  15.313  0.00  0.00    +0.000 OA
ATOM      5  O   UNL     1       6.164   4.788  14.897  0.00  0.00    +0.000 OA
ATOM      6  C   UNL     1       4.693   5.104  17.047  0.00  0.00    +0.000 C 
ATOM      7  C   UNL     1       4.950   3.655  17.335  0.00  0.00    +0.000 C 
ATOM      8  C   UNL     1       5.655   4.733  18.162  0.00  0.00    +0.000 C 
ENDROOT
BRANCH   1   9
ATOM      9  N   UNL     1       7.957   4.041  17.546  0.00  0.00    +0.000 NA
ATOM     10  H   UNL     1       8.883   4.138  17.978  0.00  0.00    +0.000 HD
ATOM     11  H   UNL     1       8.114   4.062  16.532  0.00  0.00    +0.000 HD
ENDBRANCH   1   9
BRANCH   1  12
ATOM     12  C   UNL     1       7.721   5.830  19.187  0.00  0.00    +0.000 C 
ATOM     13  O   UNL     1       7.643   5.381  20.319  0.00  0.00    +0.000 OA
BRANCH  12  14
ATOM     14  O   UNL     1       8.338   7.003  18.889  0.00  0.00    +0.000 OA
ATOM     15  H   UNL     1       9.187   7.028  19.396  0.00  0.00    +0.000 HD
ENDBRANCH  12  14
ENDBRANCH   1  12
BRANCH   7  16
ATOM     16  C   UNL     1       3.844   2.874  17.944  0.00  0.00    +0.000 C 
ATOM     17  O   UNL     1       2.750   3.364  18.164  0.00  0.00    +0.000 OA
BRANCH  16  18
ATOM     18  O   UNL     1       4.153   1.586  18.200  0.00  0.00    +0.000 OA
ATOM     19  H   UNL     1       5.021   1.294  17.871  0.00  0.00    +0.000 HD
ENDBRANCH  16  18
ENDBRANCH   7  16
TORSDOF 5
ENDMDL
MODEL 2
REMARK VINA RESULT:      -6.4      3.246      5.211
REMARK  Name = 
REMARK  5 active torsions:
REMARK  status: ('A' for Active; 'I' for Inactive)
REMARK    1  A    between atoms: N_1  and  C_2
REMARK    2  A    between atoms: C_2  and  C_3
REMARK    3  A    between atoms: C_3  and  O_5
REMARK    4  A    between atoms: C_11  and  C_12
REMARK    5  A    between atoms: C_12  and  O_14
REMARK                            x       y       z     vdW  Elec       q    Type
REMARK                         _______ _______ _______ _____ _____    ______ ____
ROOT
ATOM      1  C   UNL     1       2.534   3.917  20.504  0.00  0.00    +0.000 C 
ATOM      2  C   UNL     1       1.468   3.703  19.423  0.00  0.00    +0.000 C 
ATOM      3  S   UNL     1       2.214   4.310  17.929  0.00  0.00    +0.000 S 
ATOM      4  O   UNL     1       1.820   3.495  16.806  0.00  0.00    +0.000 OA
ATOM      5  O   UNL     1       2.141   5.758  17.923  0.00  0.00    +0.000 OA
ATOM      6  C   UNL     1       3.915   3.873  18.355  0.00  0.00    +0.000 C 
ATOM      7  C   UNL     1       4.669   4.884  19.167  0.00  0.00    +0.000 C 
ATOM      8  C   UNL     1       3.909   3.755  19.869  0.00  0.00    +0.000 C 
ENDROOT
BRANCH   1   9
ATOM      9  N   UNL     1       2.401   5.248  21.158  0.00  0.00    +0.000 NA
ATOM     10  H   UNL     1       2.484   5.995  20.459  0.00  0.00    +0.000 HD
ATOM     11  H   UNL     1       3.183   5.382  21.809  0.00  0.00    +0.000 HD
ENDBRANCH   1   9
BRANCH   1  12
ATOM     12  C   UNL     1       2.253   2.851  21.591  0.00  0.00    +0.000 C 
ATOM     13  O   UNL     1       1.182   2.687  22.153  0.00  0.00    +0.000 OA
BRANCH  12  14
ATOM     14  O   UNL     1       3.372   2.142  21.892  0.00  0.00    +0.000 OA
ATOM     15  H   UNL     1       3.467   1.434  21.209  0.00  0.00    +0.000 HD
ENDBRANCH  12  14
ENDBRANCH   1  12
BRANCH   7  16
ATOM     16  C   UNL     1       6.152   4.838  19.106  0.00  0.00    +0.000 C 
ATOM     17  O   UNL     1       6.851   5.428  19.911  0.00  0.00    +0.000 OA
BRANCH  16  18
ATOM     18  O   UNL     1       6.640   4.072  18.109  0.00  0.00    +0.000 OA
ATOM     19  H   UNL     1       6.051   3.965  17.341  0.00  0.00    +0.000 HD
ENDBRANCH  16  18
ENDBRANCH   7  16
TORSDOF 5
ENDMDL
MODEL 3
REMARK VINA RESULT:      -6.3      2.102      4.174
REMARK  Name = 
REMARK  5 active torsions:
REMARK  status: ('A' for Active; 'I' for Inactive)
REMARK    1  A    between atoms: N_1  and  C_2
REMARK    2  A    between atoms: C_2  and  C_3
REMARK    3  A    between atoms: C_3  and  O_5
REMARK    4  A    between atoms: C_11  and  C_12
REMARK    5  A    between atoms: C_12  and  O_14
REMARK                            x       y       z     vdW  Elec       q    Type
REMARK                         _______ _______ _______ _____ _____    ______ ____
ROOT
ATOM      1  C   UNL     1       4.909   4.779  17.677  0.00  0.00    +0.000 C 
ATOM      2  C   UNL     1       5.689   5.499  18.784  0.00  0.00    +0.000 C 
ATOM      3  S   UNL     1       7.349   5.619  18.161  0.00  0.00    +0.000 S 
ATOM      4  O   UNL     1       7.944   6.869  18.561  0.00  0.00    +0.000 OA
ATOM      5  O   UNL     1       8.006   4.338  18.326  0.00  0.00    +0.000 OA
ATOM      6  C   UNL     1       6.903   5.756  16.414  0.00  0.00    +0.000 C 
ATOM      7  C   UNL     1       6.700   4.462  15.685  0.00  0.00    +0.000 C 
ATOM      8  C   UNL     1       5.505   5.168  16.331  0.00  0.00    +0.000 C 
ENDROOT
BRANCH   1   9
ATOM      9  N   UNL     1       4.923   3.302  17.860  0.00  0.00    +0.000 NA
ATOM     10  H   UNL     1       4.537   2.839  17.030  0.00  0.00    +0.000 HD
ATOM     11  H   UNL     1       4.301   3.054  18.638  0.00  0.00    +0.000 HD
ENDBRANCH   1   9
BRANCH   1  12
ATOM     12  C   UNL     1       3.439   5.238  17.830  0.00  0.00    +0.000 C 
ATOM     13  O   UNL     1       2.462   4.514  17.721  0.00  0.00    +0.000 OA
BRANCH  12  14
ATOM     14  O   UNL     1       3.356   6.576  18.051  0.00  0.00    +0.000 OA
ATOM     15  H   UNL     1       3.698   6.747  18.963  0.00  0.00    +0.000 HD
ENDBRANCH  12  14
ENDBRANCH   1  12
BRANCH   7  16
ATOM     16  C   UNL     1       6.848   4.482  14.207  0.00  0.00    +0.000 C 
ATOM     17  O   UNL     1       7.443   5.374  13.629  0.00  0.00    +0.000 OA
BRANCH  16  18
ATOM     18  O   UNL     1       6.294   3.422  13.583  0.00  0.00    +0.000 OA
ATOM     19  H   UNL     1       6.242   3.492  12.613  0.00  0.00    +0.000 HD
ENDBRANCH  16  18
ENDBRANCH   7  16
TORSDOF 5
ENDMDL
MODEL 4
REMARK VINA RESULT:      -6.2      1.592      1.816
REMARK  Name = 
REMARK  5 active torsions:
REMARK  status: ('A' for Active; 'I' for Inactive)
REMARK    1  A    between atoms: N_1  and  C_2
REMARK    2  A    between atoms: C_2  and  C_3
REMARK    3  A    between atoms: C_3  and  O_5
REMARK    4  A    between atoms: C_11  and  C_12
REMARK    5  A    between atoms: C_12  and  O_14
REMARK                            x       y       z     vdW  Elec       q    Type
REMARK                         _______ _______ _______ _____ _____    ______ ____
ROOT
ATOM      1  C   UNL     1       6.776   5.333  18.441  0.00  0.00    +0.000 C 
ATOM      2  C   UNL     1       6.109   6.406  17.571  0.00  0.00    +0.000 C 
ATOM      3  S   UNL     1       4.468   5.792  17.278  0.00  0.00    +0.000 S 
ATOM      4  O   UNL     1       3.521   6.879  17.266  0.00  0.00    +0.000 OA
ATOM      5  O   UNL     1       4.524   4.777  16.244  0.00  0.00    +0.000 OA
ATOM      6  C   UNL     1       4.288   4.923  18.854  0.00  0.00    +0.000 C 
ATOM      7  C   UNL     1       4.827   3.525  18.897  0.00  0.00    +0.000 C 
ATOM      8  C   UNL     1       5.713   4.697  19.327  0.00  0.00    +0.000 C 
ENDROOT
BRANCH   1   9
ATOM      9  N   UNL     1       7.471   4.306  17.618  0.00  0.00    +0.000 NA
ATOM     10  H   UNL     1       7.282   4.463  16.622  0.00  0.00    +0.000 HD
ATOM     11  H   UNL     1       7.083   3.382  17.837  0.00  0.00    +0.000 HD
ENDBRANCH   1   9
BRANCH   1  12
ATOM     12  C   UNL     1       7.866   6.070  19.257  0.00  0.00    +0.000 C 
ATOM     13  O   UNL     1       8.459   7.072  18.893  0.00  0.00    +0.000 OA
BRANCH  12  14
ATOM     14  O   UNL     1       8.129   5.429  20.426  0.00  0.00    +0.000 OA
ATOM     15  H   UNL     1       9.029   5.026  20.347  0.00  0.00    +0.000 HD
ENDBRANCH  12  14
ENDBRANCH   1  12
BRANCH   7  16
ATOM     16  C   UNL     1       4.272   2.612  19.929  0.00  0.00    +0.000 C 
ATOM     17  O   UNL     1       3.169   2.783  20.417  0.00  0.00    +0.000 OA
BRANCH  16  18
ATOM     18  O   UNL     1       5.081   1.581  20.248  0.00  0.00    +0.000 OA
ATOM     19  H   UNL     1       5.853   1.812  20.795  0.00  0.00    +0.000 HD
ENDBRANCH  16  18
ENDBRANCH   7  16
TORSDOF 5
ENDMDL
MODEL 5
REMARK VINA RESULT:      -6.2      2.257      4.713
REMARK  Name = 
REMARK  5 active torsions:
REMARK  status: ('A' for Active; 'I' for Inactive)
REMARK    1  A    between atoms: N_1  and  C_2
REMARK    2  A    between atoms: C_2  and  C_3
REMARK    3  A    between atoms: C_3  and  O_5
REMARK    4  A    between atoms: C_11  and  C_12
REMARK    5  A    between atoms: C_12  and  O_14
REMARK                            x       y       z     vdW  Elec       q    Type
REMARK                         _______ _______ _______ _____ _____    ______ ____
ROOT
ATOM      1  C   UNL     1       3.947   3.180  18.431  0.00  0.00    +0.000 C 
ATOM      2  C   UNL     1       2.802   4.144  18.762  0.00  0.00    +0.000 C 
ATOM      3  S   UNL     1       3.509   5.764  18.578  0.00  0.00    +0.000 S 
ATOM      4  O   UNL     1       2.537   6.675  18.026  0.00  0.00    +0.000 OA
ATOM      5  O   UNL     1       4.301   6.066  19.754  0.00  0.00    +0.000 OA
ATOM      6  C   UNL     1       4.670   5.334  17.261  0.00  0.00    +0.000 C 
ATOM      7  C   UNL     1       5.992   4.783  17.706  0.00  0.00    +0.000 C 
ATOM      8  C   UNL     1       4.840   3.829  17.381  0.00  0.00    +0.000 C 
ENDROOT
BRANCH   1   9
ATOM      9  N   UNL     1       4.729   2.811  19.642  0.00  0.00    +0.000 NA
ATOM     10  H   UNL     1       4.718   1.793  19.774  0.00  0.00    +0.000 HD
ATOM     11  H   UNL     1       4.272   3.208  20.471  0.00  0.00    +0.000 HD
ENDBRANCH   1   9
BRANCH   1  12
ATOM     12  C   UNL     1       3.273   1.885  17.917  0.00  0.00    +0.000 C 
ATOM     13  O   UNL     1       2.209   1.835  17.322  0.00  0.00    +0.000 OA
BRANCH  12  14
ATOM     14  O   UNL     1       3.990   0.783  18.259  0.00  0.00    +0.000 OA
ATOM     15  H   UNL     1       3.346   0.081  18.525  0.00  0.00    +0.000 HD
ENDBRANCH  12  14
ENDBRANCH   1  12
BRANCH   7  16
ATOM     16  C   UNL     1       7.131   4.900  16.761  0.00  0.00    +0.000 C 
ATOM     17  O   UNL     1       7.122   5.687  15.830  0.00  0.00    +0.000 OA
BRANCH  16  18
ATOM     18  O   UNL     1       8.169   4.085  17.043  0.00  0.00    +0.000 OA
ATOM     19  H   UNL     1       8.917   4.136  16.422  0.00  0.00    +0.000 HD
ENDBRANCH  16  18
ENDBRANCH   7  16
TORSDOF 5
ENDMDL
MODEL 6
REMARK VINA RESULT:      -6.1      2.287      2.963
REMARK  Name = 
REMARK  5 active torsions:
REMARK  status: ('A' for Active; 'I' for Inactive)
REMARK    1  A    between atoms: N_1  and  C_2
REMARK    2  A    between atoms: C_2  and  C_3
REMARK    3  A    between atoms: C_3  and  O_5
REMARK    4  A    between atoms: C_11  and  C_12
REMARK    5  A    between atoms: C_12  and  O_14
REMARK                            x       y       z     vdW  Elec       q    Type
REMARK                         _______ _______ _______ _____ _____    ______ ____
ROOT
ATOM      1  C   UNL     1       5.605   4.531  17.424  0.00  0.00    +0.000 C 
ATOM      2  C   UNL     1       4.755   5.781  17.167  0.00  0.00    +0.000 C 
ATOM      3  S   UNL     1       3.280   5.529  18.125  0.00  0.00    +0.000 S 
ATOM      4  O   UNL     1       2.823   6.778  18.680  0.00  0.00    +0.000 OA
ATOM      5  O   UNL     1       2.411   4.610  17.415  0.00  0.00    +0.000 OA
ATOM      6  C   UNL     1       4.059   4.587  19.457  0.00  0.00    +0.000 C 
ATOM      7  C   UNL     1       4.190   3.111  19.228  0.00  0.00    +0.000 C 
ATOM      8  C   UNL     1       5.338   4.047  18.842  0.00  0.00    +0.000 C 
ENDROOT
BRANCH   1   9
ATOM      9  N   UNL     1       5.326   3.458  16.431  0.00  0.00    +0.000 NA
ATOM     10  H   UNL     1       4.351   3.147  16.511  0.00  0.00    +0.000 HD
ATOM     11  H   UNL     1       5.903   2.639  16.651  0.00  0.00    +0.000 HD
ENDBRANCH   1   9
BRANCH   1  12
ATOM     12  C   UNL     1       7.074   4.970  17.212  0.00  0.00    +0.000 C 
ATOM     13  O   UNL     1       7.450   5.800  16.401  0.00  0.00    +0.000 OA
BRANCH  12  14
ATOM     14  O   UNL     1       7.921   4.271  18.012  0.00  0.00    +0.000 OA
ATOM     15  H   UNL     1       8.612   4.901  18.335  0.00  0.00    +0.000 HD
ENDBRANCH  12  14
ENDBRANCH   1  12
BRANCH   7  16
ATOM     16  C   UNL     1       4.325   2.245  20.427  0.00  0.00    +0.000 C 
ATOM     17  O   UNL     1       3.562   2.327  21.374  0.00  0.00    +0.000 OA
BRANCH  16  18
ATOM     18  O   UNL     1       5.338   1.357  20.356  0.00  0.00    +0.000 OA
ATOM     19  H   UNL     1       5.373   0.832  19.536  0.00  0.00    +0.000 HD
ENDBRANCH  16  18
ENDBRANCH   7  16
TORSDOF 5
ENDMDL
MODEL 7
REMARK VINA RESULT:      -6.1      3.205      5.227
REMARK  Name = 
REMARK  5 active torsions:
REMARK  status: ('A' for Active; 'I' for Inactive)
REMARK    1  A    between atoms: N_1  and  C_2
REMARK    2  A    between atoms: C_2  and  C_3
REMARK    3  A    between atoms: C_3  and  O_5
REMARK    4  A    between atoms: C_11  and  C_12
REMARK    5  A    between atoms: C_12  and  O_14
REMARK                            x       y       z     vdW  Elec       q    Type
REMARK                         _______ _______ _______ _____ _____    ______ ____
ROOT
ATOM      1  C   UNL     1       2.554   3.990  20.414  0.00  0.00    +0.000 C 
ATOM      2  C   UNL     1       1.465   3.846  19.345  0.00  0.00    +0.000 C 
ATOM      3  S   UNL     1       2.212   4.462  17.855  0.00  0.00    +0.000 S 
ATOM      4  O   UNL     1       1.771   3.694  16.718  0.00  0.00    +0.000 OA
ATOM      5  O   UNL     1       2.197   5.912  17.888  0.00  0.00    +0.000 OA
ATOM      6  C   UNL     1       3.901   3.949  18.244  0.00  0.00    +0.000 C 
ATOM      7  C   UNL     1       4.705   4.908  19.070  0.00  0.00    +0.000 C 
ATOM      8  C   UNL     1       3.912   3.791  19.754  0.00  0.00    +0.000 C 
ENDROOT
BRANCH   1   9
ATOM      9  N   UNL     1       2.483   5.307  21.104  0.00  0.00    +0.000 NA
ATOM     10  H   UNL     1       2.826   5.221  22.067  0.00  0.00    +0.000 HD
ATOM     11  H   UNL     1       1.500   5.594  21.178  0.00  0.00    +0.000 HD
ENDBRANCH   1   9
BRANCH   1  12
ATOM     12  C   UNL     1       2.247   2.907  21.477  0.00  0.00    +0.000 C 
ATOM     13  O   UNL     1       3.085   2.257  22.080  0.00  0.00    +0.000 OA
BRANCH  12  14
ATOM     14  O   UNL     1       0.909   2.723  21.626  0.00  0.00    +0.000 OA
ATOM     15  H   UNL     1       0.779   1.866  22.102  0.00  0.00    +0.000 HD
ENDBRANCH  12  14
ENDBRANCH   1  12
BRANCH   7  16
ATOM     16  C   UNL     1       6.184   4.806  18.986  0.00  0.00    +0.000 C 
ATOM     17  O   UNL     1       6.742   4.243  18.060  0.00  0.00    +0.000 OA
BRANCH  16  18
ATOM     18  O   UNL     1       6.838   5.410  19.999  0.00  0.00    +0.000 OA
ATOM     19  H   UNL     1       6.441   5.290  20.880  0.00  0.00    +0.000 HD
ENDBRANCH  16  18
ENDBRANCH   7  16
TORSDOF 5
ENDMDL
MODEL 8
REMARK VINA RESULT:      -6.0      1.887      3.482
REMARK  Name = 
REMARK  5 active torsions:
REMARK  status: ('A' for Active; 'I' for Inactive)
REMARK    1  A    between atoms: N_1  and  C_2
REMARK    2  A    between atoms: C_2  and  C_3
REMARK    3  A    between atoms: C_3  and  O_5
REMARK    4  A    between atoms: C_11  and  C_12
REMARK    5  A    between atoms: C_12  and  O_14
REMARK                            x       y       z     vdW  Elec       q    Type
REMARK                         _______ _______ _______ _____ _____    ______ ____
ROOT
ATOM      1  C   UNL     1       6.690   5.864  18.104  0.00  0.00    +0.000 C 
ATOM      2  C   UNL     1       5.606   5.170  18.936  0.00  0.00    +0.000 C 
ATOM      3  S   UNL     1       4.588   4.334  17.743  0.00  0.00    +0.000 S 
ATOM      4  O   UNL     1       4.133   3.071  18.270  0.00  0.00    +0.000 OA
ATOM      5  O   UNL     1       3.702   5.300  17.123  0.00  0.00    +0.000 OA
ATOM      6  C   UNL     1       5.904   3.992  16.553  0.00  0.00    +0.000 C 
ATOM      7  C   UNL     1       6.200   5.084  15.569  0.00  0.00    +0.000 C 
ATOM      8  C   UNL     1       6.986   5.007  16.880  0.00  0.00    +0.000 C 
ENDROOT
BRANCH   1   9
ATOM      9  N   UNL     1       6.288   7.241  17.707  0.00  0.00    +0.000 NA
ATOM     10  H   UNL     1       6.636   7.922  18.392  0.00  0.00    +0.000 HD
ATOM     11  H   UNL     1       5.265   7.312  17.732  0.00  0.00    +0.000 HD
ENDBRANCH   1   9
BRANCH   1  12
ATOM     12  C   UNL     1       7.915   6.004  19.040  0.00  0.00    +0.000 C 
ATOM     13  O   UNL     1       8.307   5.149  19.817  0.00  0.00    +0.000 OA
BRANCH  12  14
ATOM     14  O   UNL     1       8.483   7.234  18.934  0.00  0.00    +0.000 OA
ATOM     15  H   UNL     1       8.218   7.753  19.732  0.00  0.00    +0.000 HD
ENDBRANCH  12  14
ENDBRANCH   1  12
BRANCH   7  16
ATOM     16  C   UNL     1       6.861   4.695  14.297  0.00  0.00    +0.000 C 
ATOM     17  O   UNL     1       7.731   5.377  13.785  0.00  0.00    +0.000 OA
BRANCH  16  18
ATOM     18  O   UNL     1       6.431   3.522  13.788  0.00  0.00    +0.000 OA
ATOM     19  H   UNL     1       5.508   3.292  13.996  0.00  0.00    +0.000 HD
ENDBRANCH  16  18
ENDBRANCH   7  16
TORSDOF 5
ENDMDL
MODEL 9
REMARK VINA RESULT:      -6.0      1.023      1.023
REMARK  Name = 
REMARK  5 active torsions:
REMARK  status: ('A' for Active; 'I' for Inactive)
REMARK    1  A    between atoms: N_1  and  C_2
REMARK    2  A    between atoms: C_2  and  C_3
REMARK    3  A    between atoms: C_3  and  O_5
REMARK    4  A    between atoms: C_11  and  C_12
REMARK    5  A    between atoms: C_12  and  O_14
REMARK                            x       y       z     vdW  Elec       q    Type
REMARK                         _______ _______ _______ _____ _____    ______ ____
ROOT
ATOM      1  C   UNL     1       6.855   5.329  18.309  0.00  0.00    +0.000 C 
ATOM      2  C   UNL     1       6.452   6.593  17.541  0.00  0.00    +0.000 C 
ATOM      3  S   UNL     1       4.847   6.223  16.875  0.00  0.00    +0.000 S 
ATOM      4  O   UNL     1       4.013   7.399  16.894  0.00  0.00    +0.000 OA
ATOM      5  O   UNL     1       5.008   5.383  15.704  0.00  0.00    +0.000 OA
ATOM      6  C   UNL     1       4.309   5.144  18.222  0.00  0.00    +0.000 C 
ATOM      7  C   UNL     1       4.712   3.704  18.111  0.00  0.00    +0.000 C 
ATOM      8  C   UNL     1       5.599   4.686  18.880  0.00  0.00    +0.000 C 
ENDROOT
BRANCH   1   9
ATOM      9  N   UNL     1       7.601   4.371  17.448  0.00  0.00    +0.000 NA
ATOM     10  H   UNL     1       7.735   3.482  17.942  0.00  0.00    +0.000 HD
ATOM     11  H   UNL     1       8.542   4.741  17.272  0.00  0.00    +0.000 HD
ENDBRANCH   1   9
BRANCH   1  12
ATOM     12  C   UNL     1       7.835   5.800  19.412  0.00  0.00    +0.000 C 
ATOM     13  O   UNL     1       7.999   5.248  20.488  0.00  0.00    +0.000 OA
BRANCH  12  14
ATOM     14  O   UNL     1       8.463   6.952  19.060  0.00  0.00    +0.000 OA
ATOM     15  H   UNL     1       8.308   7.607  19.784  0.00  0.00    +0.000 HD
ENDBRANCH  12  14
ENDBRANCH   1  12
BRANCH   7  16
ATOM     16  C   UNL     1       3.902   2.710  18.860  0.00  0.00    +0.000 C 
ATOM     17  O   UNL     1       2.762   2.945  19.222  0.00  0.00    +0.000 OA
BRANCH  16  18
ATOM     18  O   UNL     1       4.529   1.535  19.073  0.00  0.00    +0.000 OA
ATOM     19  H   UNL     1       4.270   0.812  18.475  0.00  0.00    +0.000 HD
ENDBRANCH  16  18
ENDBRANCH   7  16
TORSDOF 5
ENDMDL
