MODEL 1
REMARK VINA RESULT:      -8.3      0.000      0.000
REMARK  Name = 
REMARK  8 active torsions:
REMARK  status: ('A' for Active; 'I' for Inactive)
REMARK    1  A    between atoms: C_1  and  C_2
REMARK    2  A    between atoms: C_2  and  C_3
REMARK    3  A    between atoms: C_2  and  C_4
REMARK    4  A    between atoms: C_4  and  C_5
REMARK    5  A    between atoms: C_5  and  N_7
REMARK    6  A    between atoms: N_17  and  C_18
REMARK    7  A    between atoms: C_18  and  C_19
REMARK    8  A    between atoms: C_19  and  C_20
REMARK                            x       y       z     vdW  Elec       q    Type
REMARK                         _______ _______ _______ _____ _____    ______ ____
ROOT
ATOM      1  N   UNL     1       2.798   3.721  17.792  0.00  0.00    +0.000 NA
ATOM      2  C   UNL     1       3.707   4.576  18.107  0.00  0.00    +0.000 C 
ATOM      3  S   UNL     1       5.120   4.305  19.105  0.00  0.00    +0.000 S 
ATOM      4  C   UNL     1       6.086   5.606  18.280  0.00  0.00    +0.000 C 
ATOM      5  C   UNL     1       7.150   4.949  17.420  0.00  0.00    +0.000 C 
ATOM      6  S   UNL     1       6.511   4.925  15.772  0.00  0.00    +0.000 S 
ATOM      7  O   UNL     1       5.680   3.757  15.596  0.00  0.00    +0.000 OA
ATOM      8  O   UNL     1       7.583   5.246  14.860  0.00  0.00    +0.000 OA
ATOM      9  C   UNL     1       5.476   6.351  15.952  0.00  0.00    +0.000 C 
ATOM     10  C   UNL     1       5.089   6.427  17.428  0.00  0.00    +0.000 C 
ATOM     11  N   UNL     1       3.749   5.877  17.656  0.00  0.00    +0.000 N 
ENDROOT
BRANCH   1  12
ATOM     12  C   UNL     1       2.850   2.422  18.234  0.00  0.00    +0.000 C 
ATOM     13  O   UNL     1       3.693   1.587  17.928  0.00  0.00    +0.000 OA
BRANCH  12  14
ATOM     14  C   UNL     1       1.816   2.116  19.308  0.00  0.00    +0.000 C 
BRANCH  14  16
ATOM     15  C   UNL     1       0.807   4.183  20.370  0.00  0.00    +0.000 C 
ATOM     16  C   UNL     1       1.916   3.132  20.458  0.00  0.00    +0.000 C 
ATOM     17  C   UNL     1       1.858   2.430  21.814  0.00  0.00    +0.000 C 
ENDBRANCH  14  16
ENDBRANCH  12  14
ENDBRANCH   1  12
BRANCH  11  18
ATOM     18  C   UNL     1       2.578   6.746  17.497  0.00  0.00    +0.000 C 
BRANCH  18  19
ATOM     19  C   UNL     1       2.809   8.185  17.982  0.00  0.00    +0.000 C 
BRANCH  19  20
ATOM     20  C   UNL     1       1.810   8.611  19.029  0.00  0.00    +0.000 A 
ATOM     21  C   UNL     1       1.762   7.951  20.265  0.00  0.00    +0.000 A 
ATOM     22  C   UNL     1       0.835   8.333  21.233  0.00  0.00    +0.000 A 
ATOM     23  C   UNL     1      -0.053   9.375  20.975  0.00  0.00    +0.000 A 
ATOM     24  C   UNL     1      -0.010  10.041  19.752  0.00  0.00    +0.000 A 
ATOM     25  C   UNL     1       0.918   9.661  18.781  0.00  0.00    +0.000 A 
ENDBRANCH  19  20
ENDBRANCH  18  19
ENDBRANCH  11  18
TORSDOF 6
ENDMDL
MODEL 2
REMARK VINA RESULT:      -8.1      0.524      1.134
REMARK  Name = 
REMARK  8 active torsions:
REMARK  status: ('A' for Active; 'I' for Inactive)
REMARK    1  A    between atoms: C_1  and  C_2
REMARK    2  A    between atoms: C_2  and  C_3
REMARK    3  A    between atoms: C_2  and  C_4
REMARK    4  A    between atoms: C_4  and  C_5
REMARK    5  A    between atoms: C_5  and  N_7
REMARK    6  A    between atoms: N_17  and  C_18
REMARK    7  A    between atoms: C_18  and  C_19
REMARK    8  A    between atoms: C_19  and  C_20
REMARK                            x       y       z     vdW  Elec       q    Type
REMARK                         _______ _______ _______ _____ _____    ______ ____
ROOT
ATOM      1  N   UNL     1       2.820   3.997  17.875  0.00  0.00    +0.000 NA
ATOM      2  C   UNL     1       3.862   4.675  18.207  0.00  0.00    +0.000 C 
ATOM      3  S   UNL     1       5.291   4.090  19.034  0.00  0.00    +0.000 S 
ATOM      4  C   UNL     1       6.370   5.348  18.289  0.00  0.00    +0.000 C 
ATOM      5  C   UNL     1       7.265   4.674  17.263  0.00  0.00    +0.000 C 
ATOM      6  S   UNL     1       6.511   4.952  15.689  0.00  0.00    +0.000 S 
ATOM      7  O   UNL     1       5.511   3.938  15.449  0.00  0.00    +0.000 OA
ATOM      8  O   UNL     1       7.549   5.245  14.729  0.00  0.00    +0.000 OA
ATOM      9  C   UNL     1       5.707   6.466  16.131  0.00  0.00    +0.000 C 
ATOM     10  C   UNL     1       5.443   6.399  17.634  0.00  0.00    +0.000 C 
ATOM     11  N   UNL     1       4.058   6.007  17.914  0.00  0.00    +0.000 N 
ENDROOT
BRANCH   1  12
ATOM     12  C   UNL     1       2.718   2.656  18.151  0.00  0.00    +0.000 C 
ATOM     13  O   UNL     1       3.450   1.772  17.725  0.00  0.00    +0.000 OA
BRANCH  12  14
ATOM     14  C   UNL     1       1.663   2.343  19.203  0.00  0.00    +0.000 C 
BRANCH  14  16
ATOM     15  C   UNL     1       0.796   4.373  20.447  0.00  0.00    +0.000 C 
ATOM     16  C   UNL     1       1.839   3.252  20.430  0.00  0.00    +0.000 C 
ATOM     17  C   UNL     1       1.752   2.445  21.725  0.00  0.00    +0.000 C 
ENDBRANCH  14  16
ENDBRANCH  12  14
ENDBRANCH   1  12
BRANCH  11  18
ATOM     18  C   UNL     1       3.015   7.037  17.967  0.00  0.00    +0.000 C 
BRANCH  18  19
ATOM     19  C   UNL     1       2.506   7.325  19.387  0.00  0.00    +0.000 C 
BRANCH  19  20
ATOM     20  C   UNL     1       1.539   8.482  19.432  0.00  0.00    +0.000 A 
ATOM     21  C   UNL     1       1.276   9.224  18.271  0.00  0.00    +0.000 A 
ATOM     22  C   UNL     1       0.391  10.300  18.307  0.00  0.00    +0.000 A 
ATOM     23  C   UNL     1      -0.239  10.645  19.501  0.00  0.00    +0.000 A 
ATOM     24  C   UNL     1       0.011   9.910  20.659  0.00  0.00    +0.000 A 
ATOM     25  C   UNL     1       0.897   8.832  20.625  0.00  0.00    +0.000 A 
ENDBRANCH  19  20
ENDBRANCH  18  19
ENDBRANCH  11  18
TORSDOF 6
ENDMDL
MODEL 3
REMARK VINA RESULT:      -8.0      0.315      1.228
REMARK  Name = 
REMARK  8 active torsions:
REMARK  status: ('A' for Active; 'I' for Inactive)
REMARK    1  A    between atoms: C_1  and  C_2
REMARK    2  A    between atoms: C_2  and  C_3
REMARK    3  A    between atoms: C_2  and  C_4
REMARK    4  A    between atoms: C_4  and  C_5
REMARK    5  A    between atoms: C_5  and  N_7
REMARK    6  A    between atoms: N_17  and  C_18
REMARK    7  A    between atoms: C_18  and  C_19
REMARK    8  A    between atoms: C_19  and  C_20
REMARK                            x       y       z     vdW  Elec       q    Type
REMARK                         _______ _______ _______ _____ _____    ______ ____
ROOT
ATOM      1  N   UNL     1       2.745   3.800  18.032  0.00  0.00    +0.000 NA
ATOM      2  C   UNL     1       3.663   4.666  18.280  0.00  0.00    +0.000 C 
ATOM      3  S   UNL     1       5.093   4.445  19.266  0.00  0.00    +0.000 S 
ATOM      4  C   UNL     1       6.049   5.691  18.351  0.00  0.00    +0.000 C 
ATOM      5  C   UNL     1       7.095   4.979  17.510  0.00  0.00    +0.000 C 
ATOM      6  S   UNL     1       6.425   4.864  15.878  0.00  0.00    +0.000 S 
ATOM      7  O   UNL     1       5.586   3.693  15.785  0.00  0.00    +0.000 OA
ATOM      8  O   UNL     1       7.481   5.126  14.930  0.00  0.00    +0.000 OA
ATOM      9  C   UNL     1       5.400   6.304  15.995  0.00  0.00    +0.000 C 
ATOM     10  C   UNL     1       5.041   6.467  17.471  0.00  0.00    +0.000 C 
ATOM     11  N   UNL     1       3.703   5.939  17.754  0.00  0.00    +0.000 N 
ENDROOT
BRANCH   1  12
ATOM     12  C   UNL     1       2.799   2.528  18.546  0.00  0.00    +0.000 C 
ATOM     13  O   UNL     1       3.793   1.814  18.607  0.00  0.00    +0.000 OA
BRANCH  12  14
ATOM     14  C   UNL     1       1.498   2.099  19.211  0.00  0.00    +0.000 C 
BRANCH  14  16
ATOM     15  C   UNL     1       2.632   2.675  21.402  0.00  0.00    +0.000 C 
ATOM     16  C   UNL     1       1.343   2.778  20.581  0.00  0.00    +0.000 C 
ATOM     17  C   UNL     1       0.947   4.245  20.423  0.00  0.00    +0.000 C 
ENDBRANCH  14  16
ENDBRANCH  12  14
ENDBRANCH   1  12
BRANCH  11  18
ATOM     18  C   UNL     1       2.533   6.804  17.567  0.00  0.00    +0.000 C 
BRANCH  18  19
ATOM     19  C   UNL     1       2.747   8.243  18.060  0.00  0.00    +0.000 C 
BRANCH  19  20
ATOM     20  C   UNL     1       1.734   8.655  19.099  0.00  0.00    +0.000 A 
ATOM     21  C   UNL     1       0.828   9.691  18.826  0.00  0.00    +0.000 A 
ATOM     22  C   UNL     1      -0.105  10.083  19.784  0.00  0.00    +0.000 A 
ATOM     23  C   UNL     1      -0.141   9.447  21.023  0.00  0.00    +0.000 A 
ATOM     24  C   UNL     1       0.750   8.412  21.302  0.00  0.00    +0.000 A 
ATOM     25  C   UNL     1       1.685   8.017  20.343  0.00  0.00    +0.000 A 
ENDBRANCH  19  20
ENDBRANCH  18  19
ENDBRANCH  11  18
TORSDOF 6
ENDMDL
MODEL 4
REMARK VINA RESULT:      -7.9      0.714      1.087
REMARK  Name = 
REMARK  8 active torsions:
REMARK  status: ('A' for Active; 'I' for Inactive)
REMARK    1  A    between atoms: C_1  and  C_2
REMARK    2  A    between atoms: C_2  and  C_3
REMARK    3  A    between atoms: C_2  and  C_4
REMARK    4  A    between atoms: C_4  and  C_5
REMARK    5  A    between atoms: C_5  and  N_7
REMARK    6  A    between atoms: N_17  and  C_18
REMARK    7  A    between atoms: C_18  and  C_19
REMARK    8  A    between atoms: C_19  and  C_20
REMARK                            x       y       z     vdW  Elec       q    Type
REMARK                         _______ _______ _______ _____ _____    ______ ____
ROOT
ATOM      1  N   UNL     1       3.171   3.909  18.129  0.00  0.00    +0.000 NA
ATOM      2  C   UNL     1       4.164   4.707  18.310  0.00  0.00    +0.000 C 
ATOM      3  S   UNL     1       5.700   4.338  19.068  0.00  0.00    +0.000 S 
ATOM      4  C   UNL     1       6.593   5.609  18.124  0.00  0.00    +0.000 C 
ATOM      5  C   UNL     1       7.472   4.920  17.094  0.00  0.00    +0.000 C 
ATOM      6  S   UNL     1       6.582   4.972  15.568  0.00  0.00    +0.000 S 
ATOM      7  O   UNL     1       5.671   3.854  15.505  0.00  0.00    +0.000 OA
ATOM      8  O   UNL     1       7.513   5.261  14.504  0.00  0.00    +0.000 OA
ATOM      9  C   UNL     1       5.668   6.444  15.935  0.00  0.00    +0.000 C 
ATOM     10  C   UNL     1       5.522   6.502  17.454  0.00  0.00    +0.000 C 
ATOM     11  N   UNL     1       4.206   6.016  17.881  0.00  0.00    +0.000 N 
ENDROOT
BRANCH   1  12
ATOM     12  C   UNL     1       3.221   2.597  18.534  0.00  0.00    +0.000 C 
ATOM     13  O   UNL     1       3.654   1.655  17.882  0.00  0.00    +0.000 OA
BRANCH  12  14
ATOM     14  C   UNL     1       2.817   2.408  19.989  0.00  0.00    +0.000 C 
BRANCH  14  16
ATOM     15  C   UNL     1       1.038   4.103  20.608  0.00  0.00    +0.000 C 
ATOM     16  C   UNL     1       1.312   2.662  20.168  0.00  0.00    +0.000 C 
ATOM     17  C   UNL     1       0.549   2.362  18.878  0.00  0.00    +0.000 C 
ENDBRANCH  14  16
ENDBRANCH  12  14
ENDBRANCH   1  12
BRANCH  11  18
ATOM     18  C   UNL     1       3.074   6.948  17.925  0.00  0.00    +0.000 C 
BRANCH  18  19
ATOM     19  C   UNL     1       2.510   7.164  19.337  0.00  0.00    +0.000 C 
BRANCH  19  20
ATOM     20  C   UNL     1       1.649   8.400  19.434  0.00  0.00    +0.000 A 
ATOM     21  C   UNL     1       1.029   8.732  20.647  0.00  0.00    +0.000 A 
ATOM     22  C   UNL     1       0.226   9.867  20.741  0.00  0.00    +0.000 A 
ATOM     23  C   UNL     1       0.033  10.679  19.625  0.00  0.00    +0.000 A 
ATOM     24  C   UNL     1       0.650  10.361  18.416  0.00  0.00    +0.000 A 
ATOM     25  C   UNL     1       1.456   9.225  18.319  0.00  0.00    +0.000 A 
ENDBRANCH  19  20
ENDBRANCH  18  19
ENDBRANCH  11  18
TORSDOF 6
ENDMDL
MODEL 5
REMARK VINA RESULT:      -7.6      1.668      4.606
REMARK  Name = 
REMARK  8 active torsions:
REMARK  status: ('A' for Active; 'I' for Inactive)
REMARK    1  A    between atoms: C_1  and  C_2
REMARK    2  A    between atoms: C_2  and  C_3
REMARK    3  A    between atoms: C_2  and  C_4
REMARK    4  A    between atoms: C_4  and  C_5
REMARK    5  A    between atoms: C_5  and  N_7
REMARK    6  A    between atoms: N_17  and  C_18
REMARK    7  A    between atoms: C_18  and  C_19
REMARK    8  A    between atoms: C_19  and  C_20
REMARK                            x       y       z     vdW  Elec       q    Type
REMARK                         _______ _______ _______ _____ _____    ______ ____
ROOT
ATOM      1  N   UNL     1       4.666   5.965  17.065  0.00  0.00    +0.000 NA
ATOM      2  C   UNL     1       3.757   5.074  17.252  0.00  0.00    +0.000 C 
ATOM      3  S   UNL     1       3.650   3.493  16.505  0.00  0.00    +0.000 S 
ATOM      4  C   UNL     1       2.738   2.775  17.904  0.00  0.00    +0.000 C 
ATOM      5  C   UNL     1       3.665   1.836  18.657  0.00  0.00    +0.000 C 
ATOM      6  S   UNL     1       4.282   2.750  20.037  0.00  0.00    +0.000 S 
ATOM      7  O   UNL     1       5.433   3.520  19.628  0.00  0.00    +0.000 OA
ATOM      8  O   UNL     1       4.315   1.878  21.187  0.00  0.00    +0.000 OA
ATOM      9  C   UNL     1       2.886   3.829  20.187  0.00  0.00    +0.000 C 
ATOM     10  C   UNL     1       2.279   3.957  18.790  0.00  0.00    +0.000 C 
ATOM     11  N   UNL     1       2.707   5.197  18.136  0.00  0.00    +0.000 N 
ENDROOT
BRANCH   1  12
ATOM     12  C   UNL     1       5.717   5.751  16.208  0.00  0.00    +0.000 C 
ATOM     13  O   UNL     1       5.687   5.852  14.988  0.00  0.00    +0.000 OA
BRANCH  12  14
ATOM     14  C   UNL     1       7.035   5.513  16.932  0.00  0.00    +0.000 C 
BRANCH  14  16
ATOM     15  C   UNL     1       8.062   5.920  19.211  0.00  0.00    +0.000 C 
ATOM     16  C   UNL     1       7.203   6.510  18.090  0.00  0.00    +0.000 C 
ATOM     17  C   UNL     1       7.819   7.819  17.599  0.00  0.00    +0.000 C 
ENDBRANCH  14  16
ENDBRANCH  12  14
ENDBRANCH   1  12
BRANCH  11  18
ATOM     18  C   UNL     1       1.952   6.432  18.371  0.00  0.00    +0.000 C 
BRANCH  18  19
ATOM     19  C   UNL     1       2.487   7.266  19.546  0.00  0.00    +0.000 C 
BRANCH  19  20
ATOM     20  C   UNL     1       1.516   8.334  19.986  0.00  0.00    +0.000 A 
ATOM     21  C   UNL     1       1.161   9.366  19.107  0.00  0.00    +0.000 A 
ATOM     22  C   UNL     1       0.272  10.361  19.510  0.00  0.00    +0.000 A 
ATOM     23  C   UNL     1      -0.268  10.335  20.795  0.00  0.00    +0.000 A 
ATOM     24  C   UNL     1       0.074   9.309  21.674  0.00  0.00    +0.000 A 
ATOM     25  C   UNL     1       0.964   8.311  21.272  0.00  0.00    +0.000 A 
ENDBRANCH  19  20
ENDBRANCH  18  19
ENDBRANCH  11  18
TORSDOF 6
ENDMDL
MODEL 6
REMARK VINA RESULT:      -7.6      1.020      1.440
REMARK  Name = 
REMARK  8 active torsions:
REMARK  status: ('A' for Active; 'I' for Inactive)
REMARK    1  A    between atoms: C_1  and  C_2
REMARK    2  A    between atoms: C_2  and  C_3
REMARK    3  A    between atoms: C_2  and  C_4
REMARK    4  A    between atoms: C_4  and  C_5
REMARK    5  A    between atoms: C_5  and  N_7
REMARK    6  A    between atoms: N_17  and  C_18
REMARK    7  A    between atoms: C_18  and  C_19
REMARK    8  A    between atoms: C_19  and  C_20
REMARK                            x       y       z     vdW  Elec       q    Type
REMARK                         _______ _______ _______ _____ _____    ______ ____
ROOT
ATOM      1  N   UNL     1       3.670   4.044  18.737  0.00  0.00    +0.000 NA
ATOM      2  C   UNL     1       4.420   5.074  18.555  0.00  0.00    +0.000 C 
ATOM      3  S   UNL     1       6.056   5.312  19.132  0.00  0.00    +0.000 S 
ATOM      4  C   UNL     1       6.487   6.439  17.772  0.00  0.00    +0.000 C 
ATOM      5  C   UNL     1       7.430   5.718  16.824  0.00  0.00    +0.000 C 
ATOM      6  S   UNL     1       6.432   5.122  15.492  0.00  0.00    +0.000 S 
ATOM      7  O   UNL     1       5.858   3.847  15.854  0.00  0.00    +0.000 OA
ATOM      8  O   UNL     1       7.156   5.311  14.258  0.00  0.00    +0.000 OA
ATOM      9  C   UNL     1       5.187   6.375  15.616  0.00  0.00    +0.000 C 
ATOM     10  C   UNL     1       5.160   6.824  17.075  0.00  0.00    +0.000 C 
ATOM     11  N   UNL     1       4.068   6.179  17.810  0.00  0.00    +0.000 N 
ENDROOT
BRANCH   1  12
ATOM     12  C   UNL     1       4.109   2.952  19.445  0.00  0.00    +0.000 C 
ATOM     13  O   UNL     1       5.263   2.731  19.790  0.00  0.00    +0.000 OA
BRANCH  12  14
ATOM     14  C   UNL     1       2.974   2.061  19.928  0.00  0.00    +0.000 C 
BRANCH  14  16
ATOM     15  C   UNL     1       0.577   2.471  19.218  0.00  0.00    +0.000 C 
ATOM     16  C   UNL     1       1.702   2.890  20.168  0.00  0.00    +0.000 C 
ATOM     17  C   UNL     1       1.231   2.760  21.616  0.00  0.00    +0.000 C 
ENDBRANCH  14  16
ENDBRANCH  12  14
ENDBRANCH   1  12
BRANCH  11  18
ATOM     18  C   UNL     1       2.733   6.786  17.795  0.00  0.00    +0.000 C 
BRANCH  18  19
ATOM     19  C   UNL     1       2.755   8.321  17.853  0.00  0.00    +0.000 C 
BRANCH  19  20
ATOM     20  C   UNL     1       1.647   8.884  18.709  0.00  0.00    +0.000 A 
ATOM     21  C   UNL     1       0.707   9.763  18.154  0.00  0.00    +0.000 A 
ATOM     22  C   UNL     1      -0.314  10.294  18.941  0.00  0.00    +0.000 A 
ATOM     23  C   UNL     1      -0.403   9.953  20.289  0.00  0.00    +0.000 A 
ATOM     24  C   UNL     1       0.523   9.075  20.849  0.00  0.00    +0.000 A 
ATOM     25  C   UNL     1       1.546   8.541  20.063  0.00  0.00    +0.000 A 
ENDBRANCH  19  20
ENDBRANCH  18  19
ENDBRANCH  11  18
TORSDOF 6
ENDMDL
MODEL 7
REMARK VINA RESULT:      -7.4      2.101      4.996
REMARK  Name = 
REMARK  8 active torsions:
REMARK  status: ('A' for Active; 'I' for Inactive)
REMARK    1  A    between atoms: C_1  and  C_2
REMARK    2  A    between atoms: C_2  and  C_3
REMARK    3  A    between atoms: C_2  and  C_4
REMARK    4  A    between atoms: C_4  and  C_5
REMARK    5  A    between atoms: C_5  and  N_7
REMARK    6  A    between atoms: N_17  and  C_18
REMARK    7  A    between atoms: C_18  and  C_19
REMARK    8  A    between atoms: C_19  and  C_20
REMARK                            x       y       z     vdW  Elec       q    Type
REMARK                         _______ _______ _______ _____ _____    ______ ____
ROOT
ATOM      1  N   UNL     1       4.625   5.233  17.297  0.00  0.00    +0.000 NA
ATOM      2  C   UNL     1       3.419   5.058  17.711  0.00  0.00    +0.000 C 
ATOM      3  S   UNL     1       2.296   3.810  17.213  0.00  0.00    +0.000 S 
ATOM      4  C   UNL     1       1.401   3.832  18.795  0.00  0.00    +0.000 C 
ATOM      5  C   UNL     1       1.737   2.563  19.559  0.00  0.00    +0.000 C 
ATOM      6  S   UNL     1       2.999   3.001  20.716  0.00  0.00    +0.000 S 
ATOM      7  O   UNL     1       4.289   2.926  20.071  0.00  0.00    +0.000 OA
ATOM      8  O   UNL     1       2.729   2.330  21.965  0.00  0.00    +0.000 OA
ATOM      9  C   UNL     1       2.528   4.701  20.874  0.00  0.00    +0.000 C 
ATOM     10  C   UNL     1       1.869   5.097  19.554  0.00  0.00    +0.000 C 
ATOM     11  N   UNL     1       2.807   5.816  18.686  0.00  0.00    +0.000 N 
ENDROOT
BRANCH   1  12
ATOM     12  C   UNL     1       5.191   4.402  16.362  0.00  0.00    +0.000 C 
ATOM     13  O   UNL     1       5.400   3.203  16.493  0.00  0.00    +0.000 OA
BRANCH  12  14
ATOM     14  C   UNL     1       5.416   5.083  15.019  0.00  0.00    +0.000 C 
BRANCH  14  16
ATOM     15  C   UNL     1       5.578   3.643  12.941  0.00  0.00    +0.000 C 
ATOM     16  C   UNL     1       6.339   4.233  14.131  0.00  0.00    +0.000 C 
ATOM     17  C   UNL     1       7.525   5.056  13.630  0.00  0.00    +0.000 C 
ENDBRANCH  14  16
ENDBRANCH  12  14
ENDBRANCH   1  12
BRANCH  11  18
ATOM     18  C   UNL     1       2.953   7.268  18.831  0.00  0.00    +0.000 C 
BRANCH  18  19
ATOM     19  C   UNL     1       2.023   8.076  17.914  0.00  0.00    +0.000 C 
BRANCH  19  20
ATOM     20  C   UNL     1       1.131   9.020  18.681  0.00  0.00    +0.000 A 
ATOM     21  C   UNL     1       0.280   9.897  17.994  0.00  0.00    +0.000 A 
ATOM     22  C   UNL     1      -0.540  10.779  18.696  0.00  0.00    +0.000 A 
ATOM     23  C   UNL     1      -0.516  10.794  20.089  0.00  0.00    +0.000 A 
ATOM     24  C   UNL     1       0.322   9.922  20.781  0.00  0.00    +0.000 A 
ATOM     25  C   UNL     1       1.144   9.037  20.081  0.00  0.00    +0.000 A 
ENDBRANCH  19  20
ENDBRANCH  18  19
ENDBRANCH  11  18
TORSDOF 6
ENDMDL
MODEL 8
REMARK VINA RESULT:      -7.3      1.953      4.859
REMARK  Name = 
REMARK  8 active torsions:
REMARK  status: ('A' for Active; 'I' for Inactive)
REMARK    1  A    between atoms: C_1  and  C_2
REMARK    2  A    between atoms: C_2  and  C_3
REMARK    3  A    between atoms: C_2  and  C_4
REMARK    4  A    between atoms: C_4  and  C_5
REMARK    5  A    between atoms: C_5  and  N_7
REMARK    6  A    between atoms: N_17  and  C_18
REMARK    7  A    between atoms: C_18  and  C_19
REMARK    8  A    between atoms: C_19  and  C_20
REMARK                            x       y       z     vdW  Elec       q    Type
REMARK                         _______ _______ _______ _____ _____    ______ ____
ROOT
ATOM      1  N   UNL     1       4.510   5.705  17.719  0.00  0.00    +0.000 NA
ATOM      2  C   UNL     1       3.315   5.315  17.994  0.00  0.00    +0.000 C 
ATOM      3  S   UNL     1       2.467   3.936  17.323  0.00  0.00    +0.000 S 
ATOM      4  C   UNL     1       1.429   3.719  18.800  0.00  0.00    +0.000 C 
ATOM      5  C   UNL     1       1.893   2.476  19.540  0.00  0.00    +0.000 C 
ATOM      6  S   UNL     1       2.945   3.039  20.843  0.00  0.00    +0.000 S 
ATOM      7  O   UNL     1       4.287   3.209  20.338  0.00  0.00    +0.000 OA
ATOM      8  O   UNL     1       2.667   2.259  22.026  0.00  0.00    +0.000 OA
ATOM      9  C   UNL     1       2.187   4.629  21.023  0.00  0.00    +0.000 C 
ATOM     10  C   UNL     1       1.605   4.994  19.659  0.00  0.00    +0.000 C 
ATOM     11  N   UNL     1       2.493   5.905  18.929  0.00  0.00    +0.000 N 
ENDROOT
BRANCH   1  12
ATOM     12  C   UNL     1       5.295   5.033  16.815  0.00  0.00    +0.000 C 
ATOM     13  O   UNL     1       4.911   4.494  15.783  0.00  0.00    +0.000 OA
BRANCH  12  14
ATOM     14  C   UNL     1       6.782   5.138  17.124  0.00  0.00    +0.000 C 
BRANCH  14  16
ATOM     15  C   UNL     1       7.967   5.736  19.281  0.00  0.00    +0.000 C 
ATOM     16  C   UNL     1       7.039   6.234  18.170  0.00  0.00    +0.000 C 
ATOM     17  C   UNL     1       7.634   7.483  17.520  0.00  0.00    +0.000 C 
ENDBRANCH  14  16
ENDBRANCH  12  14
ENDBRANCH   1  12
BRANCH  11  18
ATOM     18  C   UNL     1       2.383   7.350  19.153  0.00  0.00    +0.000 C 
BRANCH  18  19
ATOM     19  C   UNL     1       2.058   8.147  17.880  0.00  0.00    +0.000 C 
BRANCH  19  20
ATOM     20  C   UNL     1       1.499   9.516  18.182  0.00  0.00    +0.000 A 
ATOM     21  C   UNL     1       2.328  10.644  18.112  0.00  0.00    +0.000 A 
ATOM     22  C   UNL     1       1.822  11.911  18.398  0.00  0.00    +0.000 A 
ATOM     23  C   UNL     1       0.484  12.061  18.757  0.00  0.00    +0.000 A 
ATOM     24  C   UNL     1      -0.350  10.946  18.823  0.00  0.00    +0.000 A 
ATOM     25  C   UNL     1       0.155   9.677  18.537  0.00  0.00    +0.000 A 
ENDBRANCH  19  20
ENDBRANCH  18  19
ENDBRANCH  11  18
TORSDOF 6
ENDMDL
MODEL 9
REMARK VINA RESULT:      -7.1      1.981      4.899
REMARK  Name = 
REMARK  8 active torsions:
REMARK  status: ('A' for Active; 'I' for Inactive)
REMARK    1  A    between atoms: C_1  and  C_2
REMARK    2  A    between atoms: C_2  and  C_3
REMARK    3  A    between atoms: C_2  and  C_4
REMARK    4  A    between atoms: C_4  and  C_5
REMARK    5  A    between atoms: C_5  and  N_7
REMARK    6  A    between atoms: N_17  and  C_18
REMARK    7  A    between atoms: C_18  and  C_19
REMARK    8  A    between atoms: C_19  and  C_20
REMARK                            x       y       z     vdW  Elec       q    Type
REMARK                         _______ _______ _______ _____ _____    ______ ____
ROOT
ATOM      1  N   UNL     1       5.082   5.596  17.278  0.00  0.00    +0.000 NA
ATOM      2  C   UNL     1       3.933   5.056  17.486  0.00  0.00    +0.000 C 
ATOM      3  S   UNL     1       3.326   3.556  16.814  0.00  0.00    +0.000 S 
ATOM      4  C   UNL     1       2.224   3.244  18.225  0.00  0.00    +0.000 C 
ATOM      5  C   UNL     1       2.794   2.097  19.041  0.00  0.00    +0.000 C 
ATOM      6  S   UNL     1       3.666   2.834  20.390  0.00  0.00    +0.000 S 
ATOM      7  O   UNL     1       5.006   3.170  19.969  0.00  0.00    +0.000 OA
ATOM      8  O   UNL     1       3.410   2.059  21.580  0.00  0.00    +0.000 OA
ATOM      9  C   UNL     1       2.692   4.312  20.458  0.00  0.00    +0.000 C 
ATOM     10  C   UNL     1       2.166   4.555  19.044  0.00  0.00    +0.000 C 
ATOM     11  N   UNL     1       2.975   5.556  18.341  0.00  0.00    +0.000 N 
ENDROOT
BRANCH   1  12
ATOM     12  C   UNL     1       6.013   5.010  16.455  0.00  0.00    +0.000 C 
ATOM     13  O   UNL     1       6.853   4.184  16.787  0.00  0.00    +0.000 OA
BRANCH  12  14
ATOM     14  C   UNL     1       5.817   5.367  14.987  0.00  0.00    +0.000 C 
BRANCH  14  16
ATOM     15  C   UNL     1       5.675   3.571  13.206  0.00  0.00    +0.000 C 
ATOM     16  C   UNL     1       6.610   4.404  14.089  0.00  0.00    +0.000 C 
ATOM     17  C   UNL     1       7.604   5.166  13.214  0.00  0.00    +0.000 C 
ENDBRANCH  14  16
ENDBRANCH  12  14
ENDBRANCH   1  12
BRANCH  11  18
ATOM     18  C   UNL     1       2.658   6.979  18.501  0.00  0.00    +0.000 C 
BRANCH  18  19
ATOM     19  C   UNL     1       2.146   7.341  19.903  0.00  0.00    +0.000 C 
BRANCH  19  20
ATOM     20  C   UNL     1       1.324   8.606  19.910  0.00  0.00    +0.000 A 
ATOM     21  C   UNL     1       0.586   8.959  21.049  0.00  0.00    +0.000 A 
ATOM     22  C   UNL     1      -0.183  10.122  21.059  0.00  0.00    +0.000 A 
ATOM     23  C   UNL     1      -0.223  10.941  19.932  0.00  0.00    +0.000 A 
ATOM     24  C   UNL     1       0.511  10.602  18.797  0.00  0.00    +0.000 A 
ATOM     25  C   UNL     1       1.283   9.438  18.785  0.00  0.00    +0.000 A 
ENDBRANCH  19  20
ENDBRANCH  18  19
ENDBRANCH  11  18
TORSDOF 6
ENDMDL
