MODEL 1
REMARK VINA RESULT:      -8.0      0.000      0.000
REMARK  Name = 
REMARK  4 active torsions:
REMARK  status: ('A' for Active; 'I' for Inactive)
REMARK    1  A    between atoms: C_1  and  C_2
REMARK    2  A    between atoms: C_11  and  C_12
REMARK    3  A    between atoms: N_17  and  C_18
REMARK    4  A    between atoms: C_18  and  C_19
REMARK                            x       y       z     vdW  Elec       q    Type
REMARK                         _______ _______ _______ _____ _____    ______ ____
ROOT
ATOM      1  C   UNL     1      -1.458  15.408  24.080  0.00  0.00    +0.000 C 
ATOM      2  C   UNL     1      -1.752  14.318  23.050  0.00  0.00    +0.000 C 
ATOM      3  C   UNL     1      -1.826  12.948  23.739  0.00  0.00    +0.000 C 
ATOM      4  C   UNL     1      -1.994  11.827  22.717  0.00  0.00    +0.000 C 
ATOM      5  N   UNL     1      -0.897  11.917  21.768  0.00  0.00    +0.000 N 
ATOM      6  C   UNL     1      -0.169  10.840  21.371  0.00  0.00    +0.000 A 
ATOM      7  N   UNL     1       0.452  10.787  20.215  0.00  0.00    +0.000 NA
ATOM      8  C   UNL     1       1.059   9.568  20.035  0.00  0.00    +0.000 A 
ATOM      9  C   UNL     1       1.682   9.149  18.850  0.00  0.00    +0.000 A 
ATOM     10  C   UNL     1       2.187   7.852  18.770  0.00  0.00    +0.000 A 
ATOM     11  C   UNL     1       2.226   7.018  19.889  0.00  0.00    +0.000 A 
ATOM     12  C   UNL     1       1.603   7.422  21.080  0.00  0.00    +0.000 A 
ATOM     13  C   UNL     1       1.000   8.692  21.115  0.00  0.00    +0.000 A 
ATOM     14  S   UNL     1       0.092   9.441  22.364  0.00  0.00    +0.000 S 
ATOM     15  C   UNL     1      -0.859  13.145  20.979  0.00  0.00    +0.000 C 
ATOM     16  C   UNL     1      -0.689  14.325  21.938  0.00  0.00    +0.000 C 
ENDROOT
BRANCH  11  17
ATOM     17  C   UNL     1       2.827   5.652  19.829  0.00  0.00    +0.000 C 
ATOM     18  O   UNL     1       2.496   4.855  20.705  0.00  0.00    +0.000 OA
ATOM     19  N   UNL     1       3.712   5.310  18.809  0.00  0.00    +0.000 N 
ATOM     20  C   UNL     1       4.066   3.900  18.606  0.00  0.00    +0.000 C 
ATOM     21  C   UNL     1       3.849   3.476  17.128  0.00  0.00    +0.000 C 
ATOM     22  N   UNL     1       4.409   4.401  16.102  0.00  0.00    +0.000 NA
ATOM     23  C   UNL     1       3.975   5.781  16.425  0.00  0.00    +0.000 C 
ATOM     24  C   UNL     1       4.362   6.210  17.852  0.00  0.00    +0.000 C 
BRANCH  22  25
ATOM     25  C   UNL     1       5.878   4.274  16.028  0.00  0.00    +0.000 C 
BRANCH  25  26
ATOM     26  C   UNL     1       6.438   4.331  14.618  0.00  0.00    +0.000 A 
ATOM     27  C   UNL     1       7.531   5.162  14.306  0.00  0.00    +0.000 A 
ATOM     28  C   UNL     1       8.056   5.203  13.012  0.00  0.00    +0.000 A 
ATOM     29  C   UNL     1       7.485   4.427  12.011  0.00  0.00    +0.000 A 
ATOM     30  C   UNL     1       6.395   3.605  12.301  0.00  0.00    +0.000 A 
ATOM     31  C   UNL     1       5.871   3.558  13.596  0.00  0.00    +0.000 A 
ENDBRANCH  25  26
ENDBRANCH  22  25
ENDBRANCH  11  17
TORSDOF 3
ENDMDL
MODEL 2
REMARK VINA RESULT:      -7.9      2.919     12.130
REMARK  Name = 
REMARK  4 active torsions:
REMARK  status: ('A' for Active; 'I' for Inactive)
REMARK    1  A    between atoms: C_1  and  C_2
REMARK    2  A    between atoms: C_11  and  C_12
REMARK    3  A    between atoms: N_17  and  C_18
REMARK    4  A    between atoms: C_18  and  C_19
REMARK                            x       y       z     vdW  Elec       q    Type
REMARK                         _______ _______ _______ _____ _____    ______ ____
ROOT
ATOM      1  C   UNL     1       7.617   4.609  17.722  0.00  0.00    +0.000 C 
ATOM      2  C   UNL     1       6.113   4.580  17.990  0.00  0.00    +0.000 C 
ATOM      3  C   UNL     1       5.370   5.385  16.915  0.00  0.00    +0.000 C 
ATOM      4  C   UNL     1       3.880   5.477  17.228  0.00  0.00    +0.000 C 
ATOM      5  N   UNL     1       3.735   6.050  18.556  0.00  0.00    +0.000 N 
ATOM      6  C   UNL     1       2.856   7.047  18.841  0.00  0.00    +0.000 A 
ATOM      7  N   UNL     1       2.358   7.233  20.043  0.00  0.00    +0.000 NA
ATOM      8  C   UNL     1       1.449   8.265  20.046  0.00  0.00    +0.000 A 
ATOM      9  C   UNL     1       0.644   8.620  21.138  0.00  0.00    +0.000 A 
ATOM     10  C   UNL     1      -0.299   9.635  20.983  0.00  0.00    +0.000 A 
ATOM     11  C   UNL     1      -0.352  10.407  19.821  0.00  0.00    +0.000 A 
ATOM     12  C   UNL     1       0.445  10.060  18.719  0.00  0.00    +0.000 A 
ATOM     13  C   UNL     1       1.316   8.964  18.850  0.00  0.00    +0.000 A 
ATOM     14  S   UNL     1       2.344   8.235  17.685  0.00  0.00    +0.000 S 
ATOM     15  C   UNL     1       4.300   5.252  19.640  0.00  0.00    +0.000 C 
ATOM     16  C   UNL     1       5.805   5.115  19.398  0.00  0.00    +0.000 C 
ENDROOT
BRANCH  11  17
ATOM     17  C   UNL     1      -1.313  11.540  19.675  0.00  0.00    +0.000 C 
ATOM     18  O   UNL     1      -1.751  11.761  18.547  0.00  0.00    +0.000 OA
ATOM     19  N   UNL     1      -1.697  12.294  20.782  0.00  0.00    +0.000 N 
ATOM     20  C   UNL     1      -2.842  13.205  20.669  0.00  0.00    +0.000 C 
ATOM     21  C   UNL     1      -3.871  12.953  21.804  0.00  0.00    +0.000 C 
ATOM     22  N   UNL     1      -3.306  12.848  23.179  0.00  0.00    +0.000 NA
ATOM     23  C   UNL     1      -2.166  11.900  23.147  0.00  0.00    +0.000 C 
ATOM     24  C   UNL     1      -1.092  12.291  22.116  0.00  0.00    +0.000 C 
BRANCH  22  25
ATOM     25  C   UNL     1      -2.919  14.178  23.689  0.00  0.00    +0.000 C 
BRANCH  25  26
ATOM     26  C   UNL     1      -3.984  15.246  23.514  0.00  0.00    +0.000 A 
ATOM     27  C   UNL     1      -3.687  16.465  22.875  0.00  0.00    +0.000 A 
ATOM     28  C   UNL     1      -4.670  17.443  22.701  0.00  0.00    +0.000 A 
ATOM     29  C   UNL     1      -5.956  17.220  23.177  0.00  0.00    +0.000 A 
ATOM     30  C   UNL     1      -6.264  16.021  23.822  0.00  0.00    +0.000 A 
ATOM     31  C   UNL     1      -5.284  15.040  23.992  0.00  0.00    +0.000 A 
ENDBRANCH  25  26
ENDBRANCH  22  25
ENDBRANCH  11  17
TORSDOF 3
ENDMDL
MODEL 3
REMARK VINA RESULT:      -7.7      3.919     11.691
REMARK  Name = 
REMARK  4 active torsions:
REMARK  status: ('A' for Active; 'I' for Inactive)
REMARK    1  A    between atoms: C_1  and  C_2
REMARK    2  A    between atoms: C_11  and  C_12
REMARK    3  A    between atoms: N_17  and  C_18
REMARK    4  A    between atoms: C_18  and  C_19
REMARK                            x       y       z     vdW  Elec       q    Type
REMARK                         _______ _______ _______ _____ _____    ______ ____
ROOT
ATOM      1  C   UNL     1       1.076   2.114  18.902  0.00  0.00    +0.000 C 
ATOM      2  C   UNL     1       1.967   3.350  19.015  0.00  0.00    +0.000 C 
ATOM      3  C   UNL     1       1.812   3.987  20.403  0.00  0.00    +0.000 C 
ATOM      4  C   UNL     1       2.595   5.292  20.500  0.00  0.00    +0.000 C 
ATOM      5  N   UNL     1       2.143   6.167  19.430  0.00  0.00    +0.000 N 
ATOM      6  C   UNL     1       1.838   7.477  19.622  0.00  0.00    +0.000 A 
ATOM      7  N   UNL     1       1.913   8.373  18.664  0.00  0.00    +0.000 NA
ATOM      8  C   UNL     1       1.612   9.628  19.137  0.00  0.00    +0.000 A 
ATOM      9  C   UNL     1       1.737  10.814  18.399  0.00  0.00    +0.000 A 
ATOM     10  C   UNL     1       1.479  12.033  19.025  0.00  0.00    +0.000 A 
ATOM     11  C   UNL     1       0.951  12.090  20.316  0.00  0.00    +0.000 A 
ATOM     12  C   UNL     1       0.825  10.911  21.068  0.00  0.00    +0.000 A 
ATOM     13  C   UNL     1       1.192   9.696  20.462  0.00  0.00    +0.000 A 
ATOM     14  S   UNL     1       1.243   8.113  21.123  0.00  0.00    +0.000 S 
ATOM     15  C   UNL     1       2.396   5.674  18.079  0.00  0.00    +0.000 C 
ATOM     16  C   UNL     1       1.637   4.357  17.900  0.00  0.00    +0.000 C 
ENDROOT
BRANCH  11  17
ATOM     17  C   UNL     1       0.608  13.389  20.966  0.00  0.00    +0.000 C 
ATOM     18  O   UNL     1       1.503  14.229  21.047  0.00  0.00    +0.000 OA
ATOM     19  N   UNL     1      -0.680  13.627  21.443  0.00  0.00    +0.000 N 
ATOM     20  C   UNL     1      -1.068  14.993  21.815  0.00  0.00    +0.000 C 
ATOM     21  C   UNL     1      -2.386  15.412  21.110  0.00  0.00    +0.000 C 
ATOM     22  N   UNL     1      -3.497  14.421  21.175  0.00  0.00    +0.000 NA
ATOM     23  C   UNL     1      -2.969  13.095  20.775  0.00  0.00    +0.000 C 
ATOM     24  C   UNL     1      -1.760  12.653  21.619  0.00  0.00    +0.000 C 
BRANCH  22  25
ATOM     25  C   UNL     1      -4.105  14.403  22.521  0.00  0.00    +0.000 C 
BRANCH  25  26
ATOM     26  C   UNL     1      -5.420  13.650  22.600  0.00  0.00    +0.000 A 
ATOM     27  C   UNL     1      -6.265  13.549  21.477  0.00  0.00    +0.000 A 
ATOM     28  C   UNL     1      -7.468  12.843  21.544  0.00  0.00    +0.000 A 
ATOM     29  C   UNL     1      -7.851  12.244  22.739  0.00  0.00    +0.000 A 
ATOM     30  C   UNL     1      -7.030  12.343  23.863  0.00  0.00    +0.000 A 
ATOM     31  C   UNL     1      -5.823  13.044  23.796  0.00  0.00    +0.000 A 
ENDBRANCH  25  26
ENDBRANCH  22  25
ENDBRANCH  11  17
TORSDOF 3
ENDMDL
MODEL 4
REMARK VINA RESULT:      -7.6      3.483     10.503
REMARK  Name = 
REMARK  4 active torsions:
REMARK  status: ('A' for Active; 'I' for Inactive)
REMARK    1  A    between atoms: C_1  and  C_2
REMARK    2  A    between atoms: C_11  and  C_12
REMARK    3  A    between atoms: N_17  and  C_18
REMARK    4  A    between atoms: C_18  and  C_19
REMARK                            x       y       z     vdW  Elec       q    Type
REMARK                         _______ _______ _______ _____ _____    ______ ____
ROOT
ATOM      1  C   UNL     1       7.359   4.476  17.527  0.00  0.00    +0.000 C 
ATOM      2  C   UNL     1       5.856   4.543  17.797  0.00  0.00    +0.000 C 
ATOM      3  C   UNL     1       5.179   5.477  16.784  0.00  0.00    +0.000 C 
ATOM      4  C   UNL     1       3.699   5.659  17.108  0.00  0.00    +0.000 C 
ATOM      5  N   UNL     1       3.595   6.145  18.474  0.00  0.00    +0.000 N 
ATOM      6  C   UNL     1       2.794   7.183  18.833  0.00  0.00    +0.000 A 
ATOM      7  N   UNL     1       2.309   7.320  20.046  0.00  0.00    +0.000 NA
ATOM      8  C   UNL     1       1.482   8.415  20.126  0.00  0.00    +0.000 A 
ATOM      9  C   UNL     1       0.704   8.752  21.243  0.00  0.00    +0.000 A 
ATOM     10  C   UNL     1      -0.160   9.844  21.164  0.00  0.00    +0.000 A 
ATOM     11  C   UNL     1      -0.151  10.699  20.061  0.00  0.00    +0.000 A 
ATOM     12  C   UNL     1       0.620  10.372  18.934  0.00  0.00    +0.000 A 
ATOM     13  C   UNL     1       1.405   9.206  18.984  0.00  0.00    +0.000 A 
ATOM     14  S   UNL     1       2.377   8.486  17.766  0.00  0.00    +0.000 S 
ATOM     15  C   UNL     1       4.095   5.231  19.496  0.00  0.00    +0.000 C 
ATOM     16  C   UNL     1       5.586   4.997  19.241  0.00  0.00    +0.000 C 
ENDROOT
BRANCH  11  17
ATOM     17  C   UNL     1      -1.023  11.909  20.000  0.00  0.00    +0.000 C 
ATOM     18  O   UNL     1      -2.237  11.722  19.935  0.00  0.00    +0.000 OA
ATOM     19  N   UNL     1      -0.468  13.187  20.029  0.00  0.00    +0.000 N 
ATOM     20  C   UNL     1      -1.342  14.345  20.252  0.00  0.00    +0.000 C 
ATOM     21  C   UNL     1      -0.810  15.231  21.411  0.00  0.00    +0.000 C 
ATOM     22  N   UNL     1       0.642  15.561  21.359  0.00  0.00    +0.000 NA
ATOM     23  C   UNL     1       1.402  14.308  21.132  0.00  0.00    +0.000 C 
ATOM     24  C   UNL     1       0.943  13.551  19.873  0.00  0.00    +0.000 C 
BRANCH  22  25
ATOM     25  C   UNL     1       0.911  16.579  20.324  0.00  0.00    +0.000 C 
BRANCH  25  26
ATOM     26  C   UNL     1       2.384  16.773  20.009  0.00  0.00    +0.000 A 
ATOM     27  C   UNL     1       3.276  17.248  20.990  0.00  0.00    +0.000 A 
ATOM     28  C   UNL     1       4.634  17.412  20.706  0.00  0.00    +0.000 A 
ATOM     29  C   UNL     1       5.113  17.121  19.434  0.00  0.00    +0.000 A 
ATOM     30  C   UNL     1       4.239  16.659  18.448  0.00  0.00    +0.000 A 
ATOM     31  C   UNL     1       2.882  16.488  18.732  0.00  0.00    +0.000 A 
ENDBRANCH  25  26
ENDBRANCH  22  25
ENDBRANCH  11  17
TORSDOF 3
ENDMDL
MODEL 5
REMARK VINA RESULT:      -7.4      3.296     11.024
REMARK  Name = 
REMARK  4 active torsions:
REMARK  status: ('A' for Active; 'I' for Inactive)
REMARK    1  A    between atoms: C_1  and  C_2
REMARK    2  A    between atoms: C_11  and  C_12
REMARK    3  A    between atoms: N_17  and  C_18
REMARK    4  A    between atoms: C_18  and  C_19
REMARK                            x       y       z     vdW  Elec       q    Type
REMARK                         _______ _______ _______ _____ _____    ______ ____
ROOT
ATOM      1  C   UNL     1       7.489   4.603  17.620  0.00  0.00    +0.000 C 
ATOM      2  C   UNL     1       5.983   4.628  17.876  0.00  0.00    +0.000 C 
ATOM      3  C   UNL     1       5.287   5.524  16.842  0.00  0.00    +0.000 C 
ATOM      4  C   UNL     1       3.800   5.667  17.150  0.00  0.00    +0.000 C 
ATOM      5  N   UNL     1       3.669   6.173  18.506  0.00  0.00    +0.000 N 
ATOM      6  C   UNL     1       2.833   7.192  18.840  0.00  0.00    +0.000 A 
ATOM      7  N   UNL     1       2.333   7.335  20.046  0.00  0.00    +0.000 NA
ATOM      8  C   UNL     1       1.473   8.406  20.100  0.00  0.00    +0.000 A 
ATOM      9  C   UNL     1       0.675   8.738  21.205  0.00  0.00    +0.000 A 
ATOM     10  C   UNL     1      -0.220   9.802  21.100  0.00  0.00    +0.000 A 
ATOM     11  C   UNL     1      -0.227  10.638  19.981  0.00  0.00    +0.000 A 
ATOM     12  C   UNL     1       0.564  10.315  18.867  0.00  0.00    +0.000 A 
ATOM     13  C   UNL     1       1.383   9.174  18.944  0.00  0.00    +0.000 A 
ATOM     14  S   UNL     1       2.387   8.463  17.747  0.00  0.00    +0.000 S 
ATOM     15  C   UNL     1       4.187   5.292  19.548  0.00  0.00    +0.000 C 
ATOM     16  C   UNL     1       5.687   5.099  19.310  0.00  0.00    +0.000 C 
ENDROOT
BRANCH  11  17
ATOM     17  C   UNL     1      -1.134  11.820  19.891  0.00  0.00    +0.000 C 
ATOM     18  O   UNL     1      -2.316  11.600  19.629  0.00  0.00    +0.000 OA
ATOM     19  N   UNL     1      -0.649  13.107  20.112  0.00  0.00    +0.000 N 
ATOM     20  C   UNL     1      -1.598  14.211  20.298  0.00  0.00    +0.000 C 
ATOM     21  C   UNL     1      -1.284  15.006  21.594  0.00  0.00    +0.000 C 
ATOM     22  N   UNL     1       0.144  15.386  21.790  0.00  0.00    +0.000 NA
ATOM     23  C   UNL     1       0.985  14.184  21.576  0.00  0.00    +0.000 C 
ATOM     24  C   UNL     1       0.752  13.529  20.202  0.00  0.00    +0.000 C 
BRANCH  22  25
ATOM     25  C   UNL     1       0.516  16.502  20.897  0.00  0.00    +0.000 C 
BRANCH  25  26
ATOM     26  C   UNL     1       1.839  17.161  21.243  0.00  0.00    +0.000 A 
ATOM     27  C   UNL     1       2.002  17.865  22.452  0.00  0.00    +0.000 A 
ATOM     28  C   UNL     1       3.223  18.460  22.778  0.00  0.00    +0.000 A 
ATOM     29  C   UNL     1       4.291  18.373  21.893  0.00  0.00    +0.000 A 
ATOM     30  C   UNL     1       4.143  17.687  20.686  0.00  0.00    +0.000 A 
ATOM     31  C   UNL     1       2.924  17.086  20.361  0.00  0.00    +0.000 A 
ENDBRANCH  25  26
ENDBRANCH  22  25
ENDBRANCH  11  17
TORSDOF 3
ENDMDL
MODEL 6
REMARK VINA RESULT:      -7.4      1.141      1.330
REMARK  Name = 
REMARK  4 active torsions:
REMARK  status: ('A' for Active; 'I' for Inactive)
REMARK    1  A    between atoms: C_1  and  C_2
REMARK    2  A    between atoms: C_11  and  C_12
REMARK    3  A    between atoms: N_17  and  C_18
REMARK    4  A    between atoms: C_18  and  C_19
REMARK                            x       y       z     vdW  Elec       q    Type
REMARK                         _______ _______ _______ _____ _____    ______ ____
ROOT
ATOM      1  C   UNL     1      -0.931  16.940  21.723  0.00  0.00    +0.000 C 
ATOM      2  C   UNL     1      -1.330  15.653  21.003  0.00  0.00    +0.000 C 
ATOM      3  C   UNL     1      -1.474  14.506  22.014  0.00  0.00    +0.000 C 
ATOM      4  C   UNL     1      -1.750  13.182  21.307  0.00  0.00    +0.000 C 
ATOM      5  N   UNL     1      -0.680  12.953  20.350  0.00  0.00    +0.000 N 
ATOM      6  C   UNL     1      -0.040  11.761  20.224  0.00  0.00    +0.000 A 
ATOM      7  N   UNL     1       0.538  11.378  19.108  0.00  0.00    +0.000 NA
ATOM      8  C   UNL     1       1.055  10.110  19.229  0.00  0.00    +0.000 A 
ATOM      9  C   UNL     1       1.610   9.367  18.178  0.00  0.00    +0.000 A 
ATOM     10  C   UNL     1       2.024   8.057  18.417  0.00  0.00    +0.000 A 
ATOM     11  C   UNL     1       2.044   7.526  19.708  0.00  0.00    +0.000 A 
ATOM     12  C   UNL     1       1.488   8.258  20.770  0.00  0.00    +0.000 A 
ATOM     13  C   UNL     1       0.973   9.537  20.495  0.00  0.00    +0.000 A 
ATOM     14  S   UNL     1       0.159  10.637  21.531  0.00  0.00    +0.000 S 
ATOM     15  C   UNL     1      -0.587  13.940  19.278  0.00  0.00    +0.000 C 
ATOM     16  C   UNL     1      -0.307  15.306  19.909  0.00  0.00    +0.000 C 
ENDROOT
BRANCH  11  17
ATOM     17  C   UNL     1       2.550   6.148  19.982  0.00  0.00    +0.000 C 
ATOM     18  O   UNL     1       2.181   5.613  21.026  0.00  0.00    +0.000 OA
ATOM     19  N   UNL     1       3.392   5.508  19.076  0.00  0.00    +0.000 N 
ATOM     20  C   UNL     1       3.646   4.069  19.223  0.00  0.00    +0.000 C 
ATOM     21  C   UNL     1       3.375   3.315  17.893  0.00  0.00    +0.000 C 
ATOM     22  N   UNL     1       3.978   3.921  16.672  0.00  0.00    +0.000 NA
ATOM     23  C   UNL     1       3.644   5.366  16.650  0.00  0.00    +0.000 C 
ATOM     24  C   UNL     1       4.085   6.101  17.929  0.00  0.00    +0.000 C 
BRANCH  22  25
ATOM     25  C   UNL     1       5.434   3.678  16.630  0.00  0.00    +0.000 C 
BRANCH  25  26
ATOM     26  C   UNL     1       6.088   4.041  15.309  0.00  0.00    +0.000 A 
ATOM     27  C   UNL     1       7.134   4.984  15.256  0.00  0.00    +0.000 A 
ATOM     28  C   UNL     1       7.747   5.308  14.043  0.00  0.00    +0.000 A 
ATOM     29  C   UNL     1       7.312   4.707  12.868  0.00  0.00    +0.000 A 
ATOM     30  C   UNL     1       6.270   3.778  12.903  0.00  0.00    +0.000 A 
ATOM     31  C   UNL     1       5.659   3.448  14.116  0.00  0.00    +0.000 A 
ENDBRANCH  25  26
ENDBRANCH  22  25
ENDBRANCH  11  17
TORSDOF 3
ENDMDL
MODEL 7
REMARK VINA RESULT:      -7.4      1.530      2.109
REMARK  Name = 
REMARK  4 active torsions:
REMARK  status: ('A' for Active; 'I' for Inactive)
REMARK    1  A    between atoms: C_1  and  C_2
REMARK    2  A    between atoms: C_11  and  C_12
REMARK    3  A    between atoms: N_17  and  C_18
REMARK    4  A    between atoms: C_18  and  C_19
REMARK                            x       y       z     vdW  Elec       q    Type
REMARK                         _______ _______ _______ _____ _____    ______ ____
ROOT
ATOM      1  C   UNL     1      -0.863  17.390  20.814  0.00  0.00    +0.000 C 
ATOM      2  C   UNL     1      -1.244  16.074  20.138  0.00  0.00    +0.000 C 
ATOM      3  C   UNL     1      -1.550  15.006  21.197  0.00  0.00    +0.000 C 
ATOM      4  C   UNL     1      -1.810  13.648  20.551  0.00  0.00    +0.000 C 
ATOM      5  N   UNL     1      -0.656  13.311  19.734  0.00  0.00    +0.000 N 
ATOM      6  C   UNL     1      -0.063  12.088  19.756  0.00  0.00    +0.000 A 
ATOM      7  N   UNL     1       0.613  11.607  18.738  0.00  0.00    +0.000 NA
ATOM      8  C   UNL     1       1.054  10.331  18.997  0.00  0.00    +0.000 A 
ATOM      9  C   UNL     1       1.682   9.495  18.063  0.00  0.00    +0.000 A 
ATOM     10  C   UNL     1       2.005   8.189  18.430  0.00  0.00    +0.000 A 
ATOM     11  C   UNL     1       1.861   7.748  19.747  0.00  0.00    +0.000 A 
ATOM     12  C   UNL     1       1.229   8.573  20.691  0.00  0.00    +0.000 A 
ATOM     13  C   UNL     1       0.808   9.850  20.280  0.00  0.00    +0.000 A 
ATOM     14  S   UNL     1      -0.060  11.050  21.146  0.00  0.00    +0.000 S 
ATOM     15  C   UNL     1      -0.401  14.218  18.619  0.00  0.00    +0.000 C 
ATOM     16  C   UNL     1      -0.125  15.612  19.188  0.00  0.00    +0.000 C 
ENDROOT
BRANCH  11  17
ATOM     17  C   UNL     1       2.268   6.373  20.162  0.00  0.00    +0.000 C 
ATOM     18  O   UNL     1       1.830   5.959  21.235  0.00  0.00    +0.000 OA
ATOM     19  N   UNL     1       3.098   5.602  19.351  0.00  0.00    +0.000 N 
ATOM     20  C   UNL     1       3.254   4.171  19.636  0.00  0.00    +0.000 C 
ATOM     21  C   UNL     1       2.982   3.316  18.369  0.00  0.00    +0.000 C 
ATOM     22  N   UNL     1       3.665   3.770  17.124  0.00  0.00    +0.000 NA
ATOM     23  C   UNL     1       3.424   5.224  16.960  0.00  0.00    +0.000 C 
ATOM     24  C   UNL     1       3.866   6.045  18.185  0.00  0.00    +0.000 C 
BRANCH  22  25
ATOM     25  C   UNL     1       5.102   3.437  17.162  0.00  0.00    +0.000 C 
BRANCH  25  26
ATOM     26  C   UNL     1       5.886   3.919  15.955  0.00  0.00    +0.000 A 
ATOM     27  C   UNL     1       5.520   3.528  14.652  0.00  0.00    +0.000 A 
ATOM     28  C   UNL     1       6.232   3.983  13.540  0.00  0.00    +0.000 A 
ATOM     29  C   UNL     1       7.327   4.820  13.716  0.00  0.00    +0.000 A 
ATOM     30  C   UNL     1       7.708   5.208  15.001  0.00  0.00    +0.000 A 
ATOM     31  C   UNL     1       6.995   4.759  16.115  0.00  0.00    +0.000 A 
ENDBRANCH  25  26
ENDBRANCH  22  25
ENDBRANCH  11  17
TORSDOF 3
ENDMDL
MODEL 8
REMARK VINA RESULT:      -7.4      3.755     12.278
REMARK  Name = 
REMARK  4 active torsions:
REMARK  status: ('A' for Active; 'I' for Inactive)
REMARK    1  A    between atoms: C_1  and  C_2
REMARK    2  A    between atoms: C_11  and  C_12
REMARK    3  A    between atoms: N_17  and  C_18
REMARK    4  A    between atoms: C_18  and  C_19
REMARK                            x       y       z     vdW  Elec       q    Type
REMARK                         _______ _______ _______ _____ _____    ______ ____
ROOT
ATOM      1  C   UNL     1       1.717   2.055  18.542  0.00  0.00    +0.000 C 
ATOM      2  C   UNL     1       2.466   3.380  18.683  0.00  0.00    +0.000 C 
ATOM      3  C   UNL     1       2.352   3.900  20.123  0.00  0.00    +0.000 C 
ATOM      4  C   UNL     1       2.984   5.282  20.260  0.00  0.00    +0.000 C 
ATOM      5  N   UNL     1       2.350   6.164  19.295  0.00  0.00    +0.000 N 
ATOM      6  C   UNL     1       1.912   7.412  19.607  0.00  0.00    +0.000 A 
ATOM      7  N   UNL     1       1.805   8.372  18.716  0.00  0.00    +0.000 NA
ATOM      8  C   UNL     1       1.401   9.548  19.303  0.00  0.00    +0.000 A 
ATOM      9  C   UNL     1       1.327  10.786  18.649  0.00  0.00    +0.000 A 
ATOM     10  C   UNL     1       0.982  11.921  19.382  0.00  0.00    +0.000 A 
ATOM     11  C   UNL     1       0.558  11.828  20.708  0.00  0.00    +0.000 A 
ATOM     12  C   UNL     1       0.630  10.595  21.377  0.00  0.00    +0.000 A 
ATOM     13  C   UNL     1       1.085   9.476  20.656  0.00  0.00    +0.000 A 
ATOM     14  S   UNL     1       1.371   7.871  21.191  0.00  0.00    +0.000 S 
ATOM     15  C   UNL     1       2.547   5.796  17.896  0.00  0.00    +0.000 C 
ATOM     16  C   UNL     1       1.933   4.412  17.674  0.00  0.00    +0.000 C 
ENDROOT
BRANCH  11  17
ATOM     17  C   UNL     1       0.121  13.030  21.478  0.00  0.00    +0.000 C 
ATOM     18  O   UNL     1       1.001  13.794  21.871  0.00  0.00    +0.000 OA
ATOM     19  N   UNL     1      -1.230  13.268  21.718  0.00  0.00    +0.000 N 
ATOM     20  C   UNL     1      -1.652  14.581  22.221  0.00  0.00    +0.000 C 
ATOM     21  C   UNL     1      -2.783  15.179  21.343  0.00  0.00    +0.000 C 
ATOM     22  N   UNL     1      -3.910  14.257  21.023  0.00  0.00    +0.000 NA
ATOM     23  C   UNL     1      -3.345  12.979  20.528  0.00  0.00    +0.000 C 
ATOM     24  C   UNL     1      -2.349  12.343  21.515  0.00  0.00    +0.000 C 
BRANCH  22  25
ATOM     25  C   UNL     1      -4.784  14.069  22.198  0.00  0.00    +0.000 C 
BRANCH  25  26
ATOM     26  C   UNL     1      -5.314  15.362  22.793  0.00  0.00    +0.000 A 
ATOM     27  C   UNL     1      -6.246  16.151  22.092  0.00  0.00    +0.000 A 
ATOM     28  C   UNL     1      -6.746  17.333  22.644  0.00  0.00    +0.000 A 
ATOM     29  C   UNL     1      -6.308  17.749  23.895  0.00  0.00    +0.000 A 
ATOM     30  C   UNL     1      -5.377  16.982  24.599  0.00  0.00    +0.000 A 
ATOM     31  C   UNL     1      -4.879  15.797  24.051  0.00  0.00    +0.000 A 
ENDBRANCH  25  26
ENDBRANCH  22  25
ENDBRANCH  11  17
TORSDOF 3
ENDMDL
MODEL 9
REMARK VINA RESULT:      -7.1      4.957      9.706
REMARK  Name = 
REMARK  4 active torsions:
REMARK  status: ('A' for Active; 'I' for Inactive)
REMARK    1  A    between atoms: C_1  and  C_2
REMARK    2  A    between atoms: C_11  and  C_12
REMARK    3  A    between atoms: N_17  and  C_18
REMARK    4  A    between atoms: C_18  and  C_19
REMARK                            x       y       z     vdW  Elec       q    Type
REMARK                         _______ _______ _______ _____ _____    ______ ____
ROOT
ATOM      1  C   UNL     1       4.513   2.321  19.883  0.00  0.00    +0.000 C 
ATOM      2  C   UNL     1       3.227   3.134  19.742  0.00  0.00    +0.000 C 
ATOM      3  C   UNL     1       3.253   3.941  18.436  0.00  0.00    +0.000 C 
ATOM      4  C   UNL     1       2.037   4.857  18.332  0.00  0.00    +0.000 C 
ATOM      5  N   UNL     1       2.011   5.705  19.512  0.00  0.00    +0.000 N 
ATOM      6  C   UNL     1       1.801   7.046  19.457  0.00  0.00    +0.000 A 
ATOM      7  N   UNL     1       1.294   7.729  20.459  0.00  0.00    +0.000 NA
ATOM      8  C   UNL     1       1.128   9.051  20.122  0.00  0.00    +0.000 A 
ATOM      9  C   UNL     1       0.484  10.006  20.921  0.00  0.00    +0.000 A 
ATOM     10  C   UNL     1       0.306  11.297  20.425  0.00  0.00    +0.000 A 
ATOM     11  C   UNL     1       0.890  11.700  19.223  0.00  0.00    +0.000 A 
ATOM     12  C   UNL     1       1.534  10.753  18.411  0.00  0.00    +0.000 A 
ATOM     13  C   UNL     1       1.611   9.427  18.873  0.00  0.00    +0.000 A 
ATOM     14  S   UNL     1       2.241   8.031  18.098  0.00  0.00    +0.000 S 
ATOM     15  C   UNL     1       1.844   4.998  20.778  0.00  0.00    +0.000 C 
ATOM     16  C   UNL     1       3.034   4.053  20.961  0.00  0.00    +0.000 C 
ENDROOT
BRANCH  11  17
ATOM     17  C   UNL     1       0.762  13.100  18.719  0.00  0.00    +0.000 C 
ATOM     18  O   UNL     1      -0.355  13.463  18.352  0.00  0.00    +0.000 OA
ATOM     19  N   UNL     1       1.867  13.947  18.686  0.00  0.00    +0.000 N 
ATOM     20  C   UNL     1       1.665  15.383  18.460  0.00  0.00    +0.000 C 
ATOM     21  C   UNL     1       2.372  16.227  19.554  0.00  0.00    +0.000 C 
ATOM     22  N   UNL     1       3.782  15.847  19.853  0.00  0.00    +0.000 NA
ATOM     23  C   UNL     1       3.840  14.380  20.060  0.00  0.00    +0.000 C 
ATOM     24  C   UNL     1       3.275  13.585  18.869  0.00  0.00    +0.000 C 
BRANCH  22  25
ATOM     25  C   UNL     1       4.687  16.300  18.778  0.00  0.00    +0.000 C 
BRANCH  25  26
ATOM     26  C   UNL     1       6.126  15.846  18.941  0.00  0.00    +0.000 A 
ATOM     27  C   UNL     1       6.719  14.973  18.008  0.00  0.00    +0.000 A 
ATOM     28  C   UNL     1       8.048  14.567  18.150  0.00  0.00    +0.000 A 
ATOM     29  C   UNL     1       8.795  15.013  19.233  0.00  0.00    +0.000 A 
ATOM     30  C   UNL     1       8.218  15.871  20.172  0.00  0.00    +0.000 A 
ATOM     31  C   UNL     1       6.891  16.283  20.030  0.00  0.00    +0.000 A 
ENDBRANCH  25  26
ENDBRANCH  22  25
ENDBRANCH  11  17
TORSDOF 3
ENDMDL
