MODEL 1
REMARK VINA RESULT:      -8.3      0.000      0.000
REMARK  Name = 
REMARK  4 active torsions:
REMARK  status: ('A' for Active; 'I' for Inactive)
REMARK    1  A    between atoms: S_2  and  C_4
REMARK    2  A    between atoms: S_2  and  N_18
REMARK    3  A    between atoms: C_8  and  S_9
REMARK    4  A    between atoms: S_9  and  N_12
REMARK                            x       y       z     vdW  Elec       q    Type
REMARK                         _______ _______ _______ _____ _____    ______ ____
ROOT
ATOM      1  C   UNL     1       5.212   5.836  16.617  0.00  0.00    +0.000 A 
ATOM      2  C   UNL     1       4.874   7.133  17.016  0.00  0.00    +0.000 A 
ATOM      3  C   UNL     1       3.666   7.341  17.684  0.00  0.00    +0.000 A 
ATOM      4  C   UNL     1       2.821   6.259  17.964  0.00  0.00    +0.000 A 
ATOM      5  C   UNL     1       3.154   4.975  17.513  0.00  0.00    +0.000 A 
ATOM      6  C   UNL     1       4.326   4.774  16.787  0.00  0.00    +0.000 A 
ENDROOT
BRANCH   1   8
ATOM      7  O   UNL     1       7.664   6.673  16.301  0.00  0.00    +0.000 OA
ATOM      8  S   UNL     1       6.900   5.451  16.172  0.00  0.00    +0.000 S 
ATOM      9  O   UNL     1       7.269   4.246  16.881  0.00  0.00    +0.000 OA
BRANCH   8  10
ATOM     10  N   UNL     1       6.731   5.061  14.498  0.00  0.00    +0.000 NA
ATOM     11  C   UNL     1       7.932   5.383  13.673  0.00  0.00    +0.000 C 
ATOM     12  C   UNL     1       7.629   5.245  12.188  0.00  0.00    +0.000 C 
ATOM     13  C   UNL     1       7.075   3.862  11.865  0.00  0.00    +0.000 C 
ATOM     14  C   UNL     1       5.844   3.582  12.714  0.00  0.00    +0.000 C 
ATOM     15  C   UNL     1       6.169   3.713  14.197  0.00  0.00    +0.000 C 
ENDBRANCH   8  10
ENDBRANCH   1   8
BRANCH   5  16
ATOM     16  S   UNL     1       2.310   3.539  18.172  0.00  0.00    +0.000 S 
ATOM     17  O   UNL     1       0.978   3.568  17.598  0.00  0.00    +0.000 OA
ATOM     18  O   UNL     1       3.180   2.402  17.971  0.00  0.00    +0.000 OA
BRANCH  16  19
ATOM     19  N   UNL     1       2.174   3.801  19.826  0.00  0.00    +0.000 NA
ATOM     20  C   UNL     1       3.287   3.490  20.735  0.00  0.00    +0.000 C 
ATOM     21  C   UNL     1       2.761   2.342  21.572  0.00  0.00    +0.000 C 
ATOM     22  C   UNL     1       1.280   2.651  21.723  0.00  0.00    +0.000 C 
ATOM     23  C   UNL     1       0.902   3.480  20.499  0.00  0.00    +0.000 C 
ENDBRANCH  16  19
ENDBRANCH   5  16
TORSDOF 4
ENDMDL
MODEL 2
REMARK VINA RESULT:      -7.9      1.286      1.716
REMARK  Name = 
REMARK  4 active torsions:
REMARK  status: ('A' for Active; 'I' for Inactive)
REMARK    1  A    between atoms: S_2  and  C_4
REMARK    2  A    between atoms: S_2  and  N_18
REMARK    3  A    between atoms: C_8  and  S_9
REMARK    4  A    between atoms: S_9  and  N_12
REMARK                            x       y       z     vdW  Elec       q    Type
REMARK                         _______ _______ _______ _____ _____    ______ ____
ROOT
ATOM      1  C   UNL     1       5.523   5.184  16.979  0.00  0.00    +0.000 A 
ATOM      2  C   UNL     1       4.788   6.310  17.362  0.00  0.00    +0.000 A 
ATOM      3  C   UNL     1       3.707   6.148  18.230  0.00  0.00    +0.000 A 
ATOM      4  C   UNL     1       3.383   4.876  18.721  0.00  0.00    +0.000 A 
ATOM      5  C   UNL     1       4.101   3.754  18.287  0.00  0.00    +0.000 A 
ATOM      6  C   UNL     1       5.138   3.903  17.369  0.00  0.00    +0.000 A 
ENDROOT
BRANCH   1   8
ATOM      7  O   UNL     1       7.500   6.778  16.377  0.00  0.00    +0.000 OA
ATOM      8  S   UNL     1       7.143   5.382  16.249  0.00  0.00    +0.000 S 
ATOM      9  O   UNL     1       7.985   4.332  16.778  0.00  0.00    +0.000 OA
BRANCH   8  10
ATOM     10  N   UNL     1       6.817   5.029  14.591  0.00  0.00    +0.000 NA
ATOM     11  C   UNL     1       7.953   5.321  13.670  0.00  0.00    +0.000 C 
ATOM     12  C   UNL     1       7.520   5.221  12.215  0.00  0.00    +0.000 C 
ATOM     13  C   UNL     1       6.887   3.866  11.920  0.00  0.00    +0.000 C 
ATOM     14  C   UNL     1       5.723   3.617  12.869  0.00  0.00    +0.000 C 
ATOM     15  C   UNL     1       6.179   3.709  14.319  0.00  0.00    +0.000 C 
ENDBRANCH   8  10
ENDBRANCH   1   8
BRANCH   5  16
ATOM     16  S   UNL     1       3.969   2.200  19.170  0.00  0.00    +0.000 S 
ATOM     17  O   UNL     1       4.039   1.165  18.155  0.00  0.00    +0.000 OA
ATOM     18  O   UNL     1       4.925   2.242  20.253  0.00  0.00    +0.000 OA
BRANCH  16  19
ATOM     19  N   UNL     1       2.429   2.177  19.838  0.00  0.00    +0.000 NA
ATOM     20  C   UNL     1       1.233   2.268  18.987  0.00  0.00    +0.000 C 
ATOM     21  C   UNL     1       0.625   3.605  19.359  0.00  0.00    +0.000 C 
ATOM     22  C   UNL     1       0.921   3.740  20.843  0.00  0.00    +0.000 C 
ATOM     23  C   UNL     1       2.181   2.914  21.091  0.00  0.00    +0.000 C 
ENDBRANCH  16  19
ENDBRANCH   5  16
TORSDOF 4
ENDMDL
MODEL 3
REMARK VINA RESULT:      -7.8      0.799      1.190
REMARK  Name = 
REMARK  4 active torsions:
REMARK  status: ('A' for Active; 'I' for Inactive)
REMARK    1  A    between atoms: S_2  and  C_4
REMARK    2  A    between atoms: S_2  and  N_18
REMARK    3  A    between atoms: C_8  and  S_9
REMARK    4  A    between atoms: S_9  and  N_12
REMARK                            x       y       z     vdW  Elec       q    Type
REMARK                         _______ _______ _______ _____ _____    ______ ____
ROOT
ATOM      1  C   UNL     1       5.169   5.409  16.628  0.00  0.00    +0.000 A 
ATOM      2  C   UNL     1       4.603   6.588  17.123  0.00  0.00    +0.000 A 
ATOM      3  C   UNL     1       3.390   6.518  17.810  0.00  0.00    +0.000 A 
ATOM      4  C   UNL     1       2.766   5.280  18.013  0.00  0.00    +0.000 A 
ATOM      5  C   UNL     1       3.324   4.117  17.467  0.00  0.00    +0.000 A 
ATOM      6  C   UNL     1       4.500   4.191  16.723  0.00  0.00    +0.000 A 
ENDROOT
BRANCH   1   8
ATOM      7  O   UNL     1       7.408   6.718  16.333  0.00  0.00    +0.000 OA
ATOM      8  S   UNL     1       6.891   5.380  16.147  0.00  0.00    +0.000 S 
ATOM      9  O   UNL     1       7.498   4.236  16.790  0.00  0.00    +0.000 OA
BRANCH   8  10
ATOM     10  N   UNL     1       6.768   5.047  14.457  0.00  0.00    +0.000 NA
ATOM     11  C   UNL     1       7.980   5.424  13.672  0.00  0.00    +0.000 C 
ATOM     12  C   UNL     1       7.714   5.334  12.177  0.00  0.00    +0.000 C 
ATOM     13  C   UNL     1       7.197   3.952  11.791  0.00  0.00    +0.000 C 
ATOM     14  C   UNL     1       5.953   3.616  12.602  0.00  0.00    +0.000 C 
ATOM     15  C   UNL     1       6.242   3.700  14.095  0.00  0.00    +0.000 C 
ENDBRANCH   8  10
ENDBRANCH   1   8
BRANCH   5  16
ATOM     16  S   UNL     1       2.775   2.505  18.023  0.00  0.00    +0.000 S 
ATOM     17  O   UNL     1       1.500   2.277  17.368  0.00  0.00    +0.000 OA
ATOM     18  O   UNL     1       3.878   1.590  17.837  0.00  0.00    +0.000 OA
BRANCH  16  19
ATOM     19  N   UNL     1       2.498   2.654  19.673  0.00  0.00    +0.000 NA
ATOM     20  C   UNL     1       1.129   2.711  20.207  0.00  0.00    +0.000 C 
ATOM     21  C   UNL     1       1.016   4.117  20.762  0.00  0.00    +0.000 C 
ATOM     22  C   UNL     1       2.409   4.413  21.292  0.00  0.00    +0.000 C 
ATOM     23  C   UNL     1       3.359   3.550  20.465  0.00  0.00    +0.000 C 
ENDBRANCH  16  19
ENDBRANCH   5  16
TORSDOF 4
ENDMDL
MODEL 4
REMARK VINA RESULT:      -7.5      1.674      1.995
REMARK  Name = 
REMARK  4 active torsions:
REMARK  status: ('A' for Active; 'I' for Inactive)
REMARK    1  A    between atoms: S_2  and  C_4
REMARK    2  A    between atoms: S_2  and  N_18
REMARK    3  A    between atoms: C_8  and  S_9
REMARK    4  A    between atoms: S_9  and  N_12
REMARK                            x       y       z     vdW  Elec       q    Type
REMARK                         _______ _______ _______ _____ _____    ______ ____
ROOT
ATOM      1  C   UNL     1       5.510   5.537  16.985  0.00  0.00    +0.000 A 
ATOM      2  C   UNL     1       4.743   6.698  16.845  0.00  0.00    +0.000 A 
ATOM      3  C   UNL     1       3.620   6.868  17.657  0.00  0.00    +0.000 A 
ATOM      4  C   UNL     1       3.286   5.895  18.609  0.00  0.00    +0.000 A 
ATOM      5  C   UNL     1       4.037   4.717  18.699  0.00  0.00    +0.000 A 
ATOM      6  C   UNL     1       5.119   4.513  17.844  0.00  0.00    +0.000 A 
ENDROOT
BRANCH   1   8
ATOM      7  O   UNL     1       7.708   6.810  16.388  0.00  0.00    +0.000 OA
ATOM      8  S   UNL     1       7.163   5.474  16.307  0.00  0.00    +0.000 S 
ATOM      9  O   UNL     1       7.832   4.342  16.910  0.00  0.00    +0.000 OA
BRANCH   8  10
ATOM     10  N   UNL     1       6.840   5.090  14.654  0.00  0.00    +0.000 NA
ATOM     11  C   UNL     1       7.994   5.325  13.738  0.00  0.00    +0.000 C 
ATOM     12  C   UNL     1       7.571   5.203  12.281  0.00  0.00    +0.000 C 
ATOM     13  C   UNL     1       6.898   3.862  12.013  0.00  0.00    +0.000 C 
ATOM     14  C   UNL     1       5.718   3.673  12.956  0.00  0.00    +0.000 C 
ATOM     15  C   UNL     1       6.163   3.785  14.408  0.00  0.00    +0.000 C 
ENDBRANCH   8  10
ENDBRANCH   1   8
BRANCH   5  16
ATOM     16  S   UNL     1       3.877   3.651  20.130  0.00  0.00    +0.000 S 
ATOM     17  O   UNL     1       5.190   3.066  20.333  0.00  0.00    +0.000 OA
ATOM     18  O   UNL     1       3.242   4.427  21.171  0.00  0.00    +0.000 OA
BRANCH  16  19
ATOM     19  N   UNL     1       2.821   2.426  19.679  0.00  0.00    +0.000 NA
ATOM     20  C   UNL     1       2.986   1.717  18.401  0.00  0.00    +0.000 C 
ATOM     21  C   UNL     1       1.764   2.122  17.602  0.00  0.00    +0.000 C 
ATOM     22  C   UNL     1       0.669   2.247  18.648  0.00  0.00    +0.000 C 
ATOM     23  C   UNL     1       1.381   2.584  19.956  0.00  0.00    +0.000 C 
ENDBRANCH  16  19
ENDBRANCH   5  16
TORSDOF 4
ENDMDL
MODEL 5
REMARK VINA RESULT:      -7.4      0.710      7.014
REMARK  Name = 
REMARK  4 active torsions:
REMARK  status: ('A' for Active; 'I' for Inactive)
REMARK    1  A    between atoms: S_2  and  C_4
REMARK    2  A    between atoms: S_2  and  N_18
REMARK    3  A    between atoms: C_8  and  S_9
REMARK    4  A    between atoms: S_9  and  N_12
REMARK                            x       y       z     vdW  Elec       q    Type
REMARK                         _______ _______ _______ _____ _____    ______ ____
ROOT
ATOM      1  C   UNL     1       3.287   5.019  17.696  0.00  0.00    +0.000 A 
ATOM      2  C   UNL     1       2.807   6.315  17.906  0.00  0.00    +0.000 A 
ATOM      3  C   UNL     1       3.663   7.396  17.694  0.00  0.00    +0.000 A 
ATOM      4  C   UNL     1       4.977   7.178  17.256  0.00  0.00    +0.000 A 
ATOM      5  C   UNL     1       5.455   5.871  17.099  0.00  0.00    +0.000 A 
ATOM      6  C   UNL     1       4.623   4.787  17.375  0.00  0.00    +0.000 A 
ENDROOT
BRANCH   1   8
ATOM      7  O   UNL     1       0.850   4.228  17.202  0.00  0.00    +0.000 OA
ATOM      8  S   UNL     1       2.140   3.659  17.523  0.00  0.00    +0.000 S 
ATOM      9  O   UNL     1       2.767   2.672  16.672  0.00  0.00    +0.000 OA
BRANCH   8  10
ATOM     10  N   UNL     1       2.102   3.037  19.134  0.00  0.00    +0.000 NA
ATOM     11  C   UNL     1       3.440   2.964  19.790  0.00  0.00    +0.000 C 
ATOM     12  C   UNL     1       3.368   2.187  21.097  0.00  0.00    +0.000 C 
ATOM     13  C   UNL     1       2.311   2.772  22.028  0.00  0.00    +0.000 C 
ATOM     14  C   UNL     1       0.961   2.810  21.325  0.00  0.00    +0.000 C 
ATOM     15  C   UNL     1       1.051   3.602  20.026  0.00  0.00    +0.000 C 
ENDBRANCH   8  10
ENDBRANCH   1   8
BRANCH   5  16
ATOM     16  S   UNL     1       6.969   5.566  16.191  0.00  0.00    +0.000 S 
ATOM     17  O   UNL     1       7.774   6.762  16.356  0.00  0.00    +0.000 OA
ATOM     18  O   UNL     1       7.466   4.275  16.610  0.00  0.00    +0.000 OA
BRANCH  16  19
ATOM     19  N   UNL     1       6.525   5.451  14.576  0.00  0.00    +0.000 NA
ATOM     20  C   UNL     1       5.321   4.709  14.173  0.00  0.00    +0.000 C 
ATOM     21  C   UNL     1       5.867   3.531  13.391  0.00  0.00    +0.000 C 
ATOM     22  C   UNL     1       7.089   4.096  12.686  0.00  0.00    +0.000 C 
ATOM     23  C   UNL     1       7.573   5.252  13.558  0.00  0.00    +0.000 C 
ENDBRANCH  16  19
ENDBRANCH   5  16
TORSDOF 4
ENDMDL
MODEL 6
REMARK VINA RESULT:      -7.3      2.886      6.108
REMARK  Name = 
REMARK  4 active torsions:
REMARK  status: ('A' for Active; 'I' for Inactive)
REMARK    1  A    between atoms: S_2  and  C_4
REMARK    2  A    between atoms: S_2  and  N_18
REMARK    3  A    between atoms: C_8  and  S_9
REMARK    4  A    between atoms: S_9  and  N_12
REMARK                            x       y       z     vdW  Elec       q    Type
REMARK                         _______ _______ _______ _____ _____    ______ ____
ROOT
ATOM      1  C   UNL     1       2.823   6.008  19.319  0.00  0.00    +0.000 A 
ATOM      2  C   UNL     1       2.126   7.218  19.253  0.00  0.00    +0.000 A 
ATOM      3  C   UNL     1       2.477   8.149  18.275  0.00  0.00    +0.000 A 
ATOM      4  C   UNL     1       3.501   7.860  17.363  0.00  0.00    +0.000 A 
ATOM      5  C   UNL     1       4.221   6.663  17.476  0.00  0.00    +0.000 A 
ATOM      6  C   UNL     1       3.918   5.761  18.493  0.00  0.00    +0.000 A 
ENDROOT
BRANCH   1   8
ATOM      7  O   UNL     1       2.455   4.851  21.629  0.00  0.00    +0.000 OA
ATOM      8  S   UNL     1       2.141   4.633  20.234  0.00  0.00    +0.000 S 
ATOM      9  O   UNL     1       0.779   4.448  19.782  0.00  0.00    +0.000 OA
BRANCH   8  10
ATOM     10  N   UNL     1       3.090   3.319  19.636  0.00  0.00    +0.000 NA
ATOM     11  C   UNL     1       3.750   2.510  20.701  0.00  0.00    +0.000 C 
ATOM     12  C   UNL     1       4.754   1.534  20.105  0.00  0.00    +0.000 C 
ATOM     13  C   UNL     1       4.104   0.652  19.045  0.00  0.00    +0.000 C 
ATOM     14  C   UNL     1       3.459   1.518  17.971  0.00  0.00    +0.000 C 
ATOM     15  C   UNL     1       2.449   2.478  18.585  0.00  0.00    +0.000 C 
ENDBRANCH   8  10
ENDBRANCH   1   8
BRANCH   5  16
ATOM     16  S   UNL     1       5.253   6.099  16.124  0.00  0.00    +0.000 S 
ATOM     17  O   UNL     1       4.910   4.703  15.924  0.00  0.00    +0.000 OA
ATOM     18  O   UNL     1       5.113   7.058  15.051  0.00  0.00    +0.000 OA
BRANCH  16  19
ATOM     19  N   UNL     1       6.834   6.176  16.684  0.00  0.00    +0.000 NA
ATOM     20  C   UNL     1       7.437   5.043  17.402  0.00  0.00    +0.000 C 
ATOM     21  C   UNL     1       7.644   5.574  18.807  0.00  0.00    +0.000 C 
ATOM     22  C   UNL     1       7.985   7.040  18.595  0.00  0.00    +0.000 C 
ATOM     23  C   UNL     1       7.323   7.434  17.277  0.00  0.00    +0.000 C 
ENDBRANCH  16  19
ENDBRANCH   5  16
TORSDOF 4
ENDMDL
MODEL 7
REMARK VINA RESULT:      -7.2      1.379      2.067
REMARK  Name = 
REMARK  4 active torsions:
REMARK  status: ('A' for Active; 'I' for Inactive)
REMARK    1  A    between atoms: S_2  and  C_4
REMARK    2  A    between atoms: S_2  and  N_18
REMARK    3  A    between atoms: C_8  and  S_9
REMARK    4  A    between atoms: S_9  and  N_12
REMARK                            x       y       z     vdW  Elec       q    Type
REMARK                         _______ _______ _______ _____ _____    ______ ____
ROOT
ATOM      1  C   UNL     1       5.540   4.911  16.907  0.00  0.00    +0.000 A 
ATOM      2  C   UNL     1       4.799   6.060  17.204  0.00  0.00    +0.000 A 
ATOM      3  C   UNL     1       3.706   5.955  18.066  0.00  0.00    +0.000 A 
ATOM      4  C   UNL     1       3.375   4.719  18.636  0.00  0.00    +0.000 A 
ATOM      5  C   UNL     1       4.099   3.571  18.288  0.00  0.00    +0.000 A 
ATOM      6  C   UNL     1       5.148   3.659  17.376  0.00  0.00    +0.000 A 
ENDROOT
BRANCH   1   8
ATOM      7  O   UNL     1       7.463   6.475  16.091  0.00  0.00    +0.000 OA
ATOM      8  S   UNL     1       7.169   5.062  16.189  0.00  0.00    +0.000 S 
ATOM      9  O   UNL     1       8.040   4.153  16.901  0.00  0.00    +0.000 OA
BRANCH   8  10
ATOM     10  N   UNL     1       6.905   4.425  14.605  0.00  0.00    +0.000 NA
ATOM     11  C   UNL     1       5.469   4.188  14.276  0.00  0.00    +0.000 C 
ATOM     12  C   UNL     1       5.327   3.407  12.977  0.00  0.00    +0.000 C 
ATOM     13  C   UNL     1       6.064   4.097  11.835  0.00  0.00    +0.000 C 
ATOM     14  C   UNL     1       7.526   4.302  12.207  0.00  0.00    +0.000 C 
ATOM     15  C   UNL     1       7.648   5.097  13.501  0.00  0.00    +0.000 C 
ENDBRANCH   8  10
ENDBRANCH   1   8
BRANCH   5  16
ATOM     16  S   UNL     1       3.954   2.080  19.271  0.00  0.00    +0.000 S 
ATOM     17  O   UNL     1       3.997   0.980  18.325  0.00  0.00    +0.000 OA
ATOM     18  O   UNL     1       4.923   2.177  20.339  0.00  0.00    +0.000 OA
BRANCH  16  19
ATOM     19  N   UNL     1       2.421   2.123  19.955  0.00  0.00    +0.000 NA
ATOM     20  C   UNL     1       1.221   2.250  19.114  0.00  0.00    +0.000 C 
ATOM     21  C   UNL     1       0.668   3.613  19.477  0.00  0.00    +0.000 C 
ATOM     22  C   UNL     1       0.985   3.754  20.956  0.00  0.00    +0.000 C 
ATOM     23  C   UNL     1       2.215   2.883  21.201  0.00  0.00    +0.000 C 
ENDBRANCH  16  19
ENDBRANCH   5  16
TORSDOF 4
ENDMDL
MODEL 8
REMARK VINA RESULT:      -7.1      0.894      1.643
REMARK  Name = 
REMARK  4 active torsions:
REMARK  status: ('A' for Active; 'I' for Inactive)
REMARK    1  A    between atoms: S_2  and  C_4
REMARK    2  A    between atoms: S_2  and  N_18
REMARK    3  A    between atoms: C_8  and  S_9
REMARK    4  A    between atoms: S_9  and  N_12
REMARK                            x       y       z     vdW  Elec       q    Type
REMARK                         _______ _______ _______ _____ _____    ______ ____
ROOT
ATOM      1  C   UNL     1       5.345   5.341  16.737  0.00  0.00    +0.000 A 
ATOM      2  C   UNL     1       4.699   6.529  17.088  0.00  0.00    +0.000 A 
ATOM      3  C   UNL     1       3.415   6.465  17.633  0.00  0.00    +0.000 A 
ATOM      4  C   UNL     1       2.799   5.223  17.839  0.00  0.00    +0.000 A 
ATOM      5  C   UNL     1       3.443   4.047  17.435  0.00  0.00    +0.000 A 
ATOM      6  C   UNL     1       4.696   4.111  16.830  0.00  0.00    +0.000 A 
ENDROOT
BRANCH   1   8
ATOM      7  O   UNL     1       7.555   6.710  16.503  0.00  0.00    +0.000 OA
ATOM      8  S   UNL     1       7.111   5.334  16.462  0.00  0.00    +0.000 S 
ATOM      9  O   UNL     1       7.679   4.327  17.331  0.00  0.00    +0.000 OA
BRANCH   8  10
ATOM     10  N   UNL     1       7.202   4.756  14.837  0.00  0.00    +0.000 NA
ATOM     11  C   UNL     1       5.953   4.100  14.352  0.00  0.00    +0.000 C 
ATOM     12  C   UNL     1       6.181   3.405  13.018  0.00  0.00    +0.000 C 
ATOM     13  C   UNL     1       6.752   4.368  11.984  0.00  0.00    +0.000 C 
ATOM     14  C   UNL     1       8.033   4.999  12.512  0.00  0.00    +0.000 C 
ATOM     15  C   UNL     1       7.782   5.701  13.840  0.00  0.00    +0.000 C 
ENDBRANCH   8  10
ENDBRANCH   1   8
BRANCH   5  16
ATOM     16  S   UNL     1       2.868   2.455  18.022  0.00  0.00    +0.000 S 
ATOM     17  O   UNL     1       1.639   2.190  17.299  0.00  0.00    +0.000 OA
ATOM     18  O   UNL     1       3.986   1.541  17.944  0.00  0.00    +0.000 OA
BRANCH  16  19
ATOM     19  N   UNL     1       2.487   2.670  19.644  0.00  0.00    +0.000 NA
ATOM     20  C   UNL     1       1.089   2.801  20.081  0.00  0.00    +0.000 C 
ATOM     21  C   UNL     1       1.000   4.228  20.583  0.00  0.00    +0.000 C 
ATOM     22  C   UNL     1       2.365   4.484  21.198  0.00  0.00    +0.000 C 
ATOM     23  C   UNL     1       3.331   3.556  20.466  0.00  0.00    +0.000 C 
ENDBRANCH  16  19
ENDBRANCH   5  16
TORSDOF 4
ENDMDL
MODEL 9
REMARK VINA RESULT:      -7.1      0.387      1.107
REMARK  Name = 
REMARK  4 active torsions:
REMARK  status: ('A' for Active; 'I' for Inactive)
REMARK    1  A    between atoms: S_2  and  C_4
REMARK    2  A    between atoms: S_2  and  N_18
REMARK    3  A    between atoms: C_8  and  S_9
REMARK    4  A    between atoms: S_9  and  N_12
REMARK                            x       y       z     vdW  Elec       q    Type
REMARK                         _______ _______ _______ _____ _____    ______ ____
ROOT
ATOM      1  C   UNL     1       5.374   5.792  16.785  0.00  0.00    +0.000 A 
ATOM      2  C   UNL     1       4.964   7.101  17.055  0.00  0.00    +0.000 A 
ATOM      3  C   UNL     1       3.679   7.317  17.556  0.00  0.00    +0.000 A 
ATOM      4  C   UNL     1       2.827   6.232  17.800  0.00  0.00    +0.000 A 
ATOM      5  C   UNL     1       3.238   4.932  17.476  0.00  0.00    +0.000 A 
ATOM      6  C   UNL     1       4.494   4.719  16.914  0.00  0.00    +0.000 A 
ENDROOT
BRANCH   1   8
ATOM      7  O   UNL     1       7.816   6.690  16.581  0.00  0.00    +0.000 OA
ATOM      8  S   UNL     1       7.111   5.427  16.575  0.00  0.00    +0.000 S 
ATOM      9  O   UNL     1       7.444   4.367  17.501  0.00  0.00    +0.000 OA
BRANCH   8  10
ATOM     10  N   UNL     1       7.132   4.772  14.977  0.00  0.00    +0.000 NA
ATOM     11  C   UNL     1       5.852   4.124  14.567  0.00  0.00    +0.000 C 
ATOM     12  C   UNL     1       6.017   3.362  13.260  0.00  0.00    +0.000 C 
ATOM     13  C   UNL     1       6.572   4.263  12.163  0.00  0.00    +0.000 C 
ATOM     14  C   UNL     1       7.885   4.887  12.616  0.00  0.00    +0.000 C 
ATOM     15  C   UNL     1       7.696   5.656  13.918  0.00  0.00    +0.000 C 
ENDBRANCH   8  10
ENDBRANCH   1   8
BRANCH   5  16
ATOM     16  S   UNL     1       2.347   3.517  18.119  0.00  0.00    +0.000 S 
ATOM     17  O   UNL     1       1.061   3.524  17.448  0.00  0.00    +0.000 OA
ATOM     18  O   UNL     1       3.229   2.376  18.021  0.00  0.00    +0.000 OA
BRANCH  16  19
ATOM     19  N   UNL     1       2.089   3.833  19.749  0.00  0.00    +0.000 NA
ATOM     20  C   UNL     1       3.188   3.734  20.721  0.00  0.00    +0.000 C 
ATOM     21  C   UNL     1       2.792   2.561  21.595  0.00  0.00    +0.000 C 
ATOM     22  C   UNL     1       1.276   2.654  21.665  0.00  0.00    +0.000 C 
ATOM     23  C   UNL     1       0.845   3.360  20.381  0.00  0.00    +0.000 C 
ENDBRANCH  16  19
ENDBRANCH   5  16
TORSDOF 4
ENDMDL
