MODEL 1
REMARK VINA RESULT:      -8.3      0.000      0.000
REMARK  Name = 
REMARK  4 active torsions:
REMARK  status: ('A' for Active; 'I' for Inactive)
REMARK    1  A    between atoms: C_2  and  C_3
REMARK    2  A    between atoms: C_2  and  C_16
REMARK    3  A    between atoms: N_6  and  C_7
REMARK    4  A    between atoms: C_22  and  O_23
REMARK                            x       y       z     vdW  Elec       q    Type
REMARK                         _______ _______ _______ _____ _____    ______ ____
ROOT
ATOM      1  C   UNL     1       2.838   7.097  18.368  0.00  0.00    +0.000 A 
ATOM      2  C   UNL     1       2.544   8.245  17.612  0.00  0.00    +0.000 A 
ATOM      3  N   UNL     1       1.783   9.121  18.269  0.00  0.00    +0.000 NA
ATOM      4  N   UNL     1       1.624   8.578  19.501  0.00  0.00    +0.000 N 
ATOM      5  C   UNL     1       2.283   7.373  19.603  0.00  0.00    +0.000 A 
ENDROOT
BRANCH   4   6
ATOM      6  C   UNL     1       0.850   9.233  20.500  0.00  0.00    +0.000 A 
ATOM      7  C   UNL     1      -0.017  10.278  20.133  0.00  0.00    +0.000 A 
ATOM      8  C   UNL     1      -0.769  10.945  21.107  0.00  0.00    +0.000 A 
ATOM      9  C   UNL     1      -0.652  10.571  22.440  0.00  0.00    +0.000 A 
ATOM     10  F   UNL     1      -1.361  11.222  23.373  0.00  0.00    +0.000 F 
ATOM     11  C   UNL     1       0.193   9.531  22.804  0.00  0.00    +0.000 A 
ATOM     12  F   UNL     1       0.306   9.171  24.091  0.00  0.00    +0.000 F 
ATOM     13  C   UNL     1       0.942   8.853  21.846  0.00  0.00    +0.000 A 
ENDBRANCH   4   6
BRANCH   1  15
ATOM     14  O   UNL     1       4.425   5.992  17.068  0.00  0.00    +0.000 OA
ATOM     15  C   UNL     1       3.560   5.911  17.932  0.00  0.00    +0.000 C 
BRANCH  15  16
ATOM     16  C   UNL     1       3.136   4.580  18.470  0.00  0.00    +0.000 A 
ATOM     17  C   UNL     1       1.826   4.125  18.254  0.00  0.00    +0.000 A 
ATOM     18  C   UNL     1       1.431   2.877  18.717  0.00  0.00    +0.000 A 
ATOM     19  F   UNL     1       0.166   2.479  18.528  0.00  0.00    +0.000 F 
ATOM     20  C   UNL     1       2.325   2.034  19.362  0.00  0.00    +0.000 A 
ATOM     21  C   UNL     1       3.639   2.455  19.561  0.00  0.00    +0.000 A 
ATOM     22  C   UNL     1       4.040   3.725  19.123  0.00  0.00    +0.000 A 
BRANCH  22  23
ATOM     23  O   UNL     1       5.319   4.126  19.377  0.00  0.00    +0.000 OA
ATOM     24  H   UNL     1       5.669   3.657  20.150  0.00  0.00    +0.000 HD
ENDBRANCH  22  23
ENDBRANCH  15  16
ENDBRANCH   1  15
TORSDOF 4
ENDMDL
MODEL 2
REMARK VINA RESULT:      -8.3      4.558      6.642
REMARK  Name = 
REMARK  4 active torsions:
REMARK  status: ('A' for Active; 'I' for Inactive)
REMARK    1  A    between atoms: C_2  and  C_3
REMARK    2  A    between atoms: C_2  and  C_16
REMARK    3  A    between atoms: N_6  and  C_7
REMARK    4  A    between atoms: C_22  and  O_23
REMARK                            x       y       z     vdW  Elec       q    Type
REMARK                         _______ _______ _______ _____ _____    ______ ____
ROOT
ATOM      1  C   UNL     1       5.342   4.989  16.486  0.00  0.00    +0.000 A 
ATOM      2  C   UNL     1       6.311   4.492  17.376  0.00  0.00    +0.000 A 
ATOM      3  N   UNL     1       5.785   4.017  18.506  0.00  0.00    +0.000 NA
ATOM      4  N   UNL     1       4.445   4.139  18.337  0.00  0.00    +0.000 N 
ATOM      5  C   UNL     1       4.146   4.688  17.109  0.00  0.00    +0.000 A 
ENDROOT
BRANCH   4   6
ATOM      6  C   UNL     1       3.536   3.736  19.354  0.00  0.00    +0.000 A 
ATOM      7  C   UNL     1       3.896   2.706  20.242  0.00  0.00    +0.000 A 
ATOM      8  C   UNL     1       3.004   2.284  21.234  0.00  0.00    +0.000 A 
ATOM      9  C   UNL     1       1.756   2.888  21.335  0.00  0.00    +0.000 A 
ATOM     10  F   UNL     1       0.897   2.472  22.276  0.00  0.00    +0.000 F 
ATOM     11  C   UNL     1       1.401   3.914  20.469  0.00  0.00    +0.000 A 
ATOM     12  F   UNL     1       0.197   4.495  20.568  0.00  0.00    +0.000 F 
ATOM     13  C   UNL     1       2.282   4.349  19.482  0.00  0.00    +0.000 A 
ENDBRANCH   4   6
BRANCH   1  15
ATOM     14  O   UNL     1       5.321   6.850  15.085  0.00  0.00    +0.000 OA
ATOM     15  C   UNL     1       5.569   5.658  15.213  0.00  0.00    +0.000 C 
BRANCH  15  16
ATOM     16  C   UNL     1       5.990   4.831  14.039  0.00  0.00    +0.000 A 
ATOM     17  C   UNL     1       5.058   3.999  13.400  0.00  0.00    +0.000 A 
ATOM     18  C   UNL     1       5.428   3.254  12.287  0.00  0.00    +0.000 A 
ATOM     19  F   UNL     1       4.528   2.442  11.715  0.00  0.00    +0.000 F 
ATOM     20  C   UNL     1       6.705   3.345  11.755  0.00  0.00    +0.000 A 
ATOM     21  C   UNL     1       7.638   4.188  12.357  0.00  0.00    +0.000 A 
ATOM     22  C   UNL     1       7.284   4.921  13.497  0.00  0.00    +0.000 A 
BRANCH  22  23
ATOM     23  O   UNL     1       8.235   5.699  14.092  0.00  0.00    +0.000 OA
ATOM     24  H   UNL     1       8.307   5.478  15.034  0.00  0.00    +0.000 HD
ENDBRANCH  22  23
ENDBRANCH  15  16
ENDBRANCH   1  15
TORSDOF 4
ENDMDL
MODEL 3
REMARK VINA RESULT:      -8.3      0.607      1.402
REMARK  Name = 
REMARK  4 active torsions:
REMARK  status: ('A' for Active; 'I' for Inactive)
REMARK    1  A    between atoms: C_2  and  C_3
REMARK    2  A    between atoms: C_2  and  C_16
REMARK    3  A    between atoms: N_6  and  C_7
REMARK    4  A    between atoms: C_22  and  O_23
REMARK                            x       y       z     vdW  Elec       q    Type
REMARK                         _______ _______ _______ _____ _____    ______ ____
ROOT
ATOM      1  C   UNL     1       2.956   6.959  18.259  0.00  0.00    +0.000 A 
ATOM      2  C   UNL     1       2.637   8.111  17.520  0.00  0.00    +0.000 A 
ATOM      3  N   UNL     1       1.887   8.977  18.203  0.00  0.00    +0.000 NA
ATOM      4  N   UNL     1       1.762   8.424  19.434  0.00  0.00    +0.000 N 
ATOM      5  C   UNL     1       2.429   7.221  19.510  0.00  0.00    +0.000 A 
ENDROOT
BRANCH   4   6
ATOM      6  C   UNL     1       1.008   9.066  20.457  0.00  0.00    +0.000 A 
ATOM      7  C   UNL     1       1.181   8.675  21.797  0.00  0.00    +0.000 A 
ATOM      8  C   UNL     1       0.431   9.282  22.810  0.00  0.00    +0.000 A 
ATOM      9  C   UNL     1      -0.489  10.272  22.485  0.00  0.00    +0.000 A 
ATOM     10  F   UNL     1      -1.216  10.841  23.456  0.00  0.00    +0.000 F 
ATOM     11  C   UNL     1      -0.652  10.669  21.165  0.00  0.00    +0.000 A 
ATOM     12  F   UNL     1      -1.539  11.625  20.852  0.00  0.00    +0.000 F 
ATOM     13  C   UNL     1       0.092  10.080  20.145  0.00  0.00    +0.000 A 
ENDBRANCH   4   6
BRANCH   1  15
ATOM     14  O   UNL     1       4.550   5.880  16.946  0.00  0.00    +0.000 OA
ATOM     15  C   UNL     1       3.673   5.780  17.796  0.00  0.00    +0.000 C 
BRANCH  15  16
ATOM     16  C   UNL     1       3.231   4.437  18.287  0.00  0.00    +0.000 A 
ATOM     17  C   UNL     1       1.881   4.064  18.181  0.00  0.00    +0.000 A 
ATOM     18  C   UNL     1       1.465   2.808  18.601  0.00  0.00    +0.000 A 
ATOM     19  F   UNL     1       0.166   2.488  18.521  0.00  0.00    +0.000 F 
ATOM     20  C   UNL     1       2.370   1.878  19.090  0.00  0.00    +0.000 A 
ATOM     21  C   UNL     1       3.720   2.217  19.176  0.00  0.00    +0.000 A 
ATOM     22  C   UNL     1       4.146   3.493  18.783  0.00  0.00    +0.000 A 
BRANCH  22  23
ATOM     23  O   UNL     1       5.465   3.811  18.926  0.00  0.00    +0.000 OA
ATOM     24  H   UNL     1       5.838   4.081  18.072  0.00  0.00    +0.000 HD
ENDBRANCH  22  23
ENDBRANCH  15  16
ENDBRANCH   1  15
TORSDOF 4
ENDMDL
MODEL 4
REMARK VINA RESULT:      -8.1      4.451      6.449
REMARK  Name = 
REMARK  4 active torsions:
REMARK  status: ('A' for Active; 'I' for Inactive)
REMARK    1  A    between atoms: C_2  and  C_3
REMARK    2  A    between atoms: C_2  and  C_16
REMARK    3  A    between atoms: N_6  and  C_7
REMARK    4  A    between atoms: C_22  and  O_23
REMARK                            x       y       z     vdW  Elec       q    Type
REMARK                         _______ _______ _______ _____ _____    ______ ____
ROOT
ATOM      1  C   UNL     1       5.563   5.645  16.512  0.00  0.00    +0.000 A 
ATOM      2  C   UNL     1       4.602   6.671  16.551  0.00  0.00    +0.000 A 
ATOM      3  N   UNL     1       3.567   6.385  17.341  0.00  0.00    +0.000 NA
ATOM      4  N   UNL     1       3.875   5.183  17.887  0.00  0.00    +0.000 N 
ATOM      5  C   UNL     1       5.094   4.728  17.433  0.00  0.00    +0.000 A 
ENDROOT
BRANCH   4   6
ATOM      6  C   UNL     1       2.989   4.538  18.794  0.00  0.00    +0.000 A 
ATOM      7  C   UNL     1       3.108   4.782  20.174  0.00  0.00    +0.000 A 
ATOM      8  C   UNL     1       2.259   4.138  21.081  0.00  0.00    +0.000 A 
ATOM      9  C   UNL     1       1.296   3.252  20.609  0.00  0.00    +0.000 A 
ATOM     10  F   UNL     1       0.494   2.625  21.480  0.00  0.00    +0.000 F 
ATOM     11  C   UNL     1       1.167   3.019  19.247  0.00  0.00    +0.000 A 
ATOM     12  F   UNL     1       0.239   2.165  18.793  0.00  0.00    +0.000 F 
ATOM     13  C   UNL     1       2.001   3.658  18.332  0.00  0.00    +0.000 A 
ENDBRANCH   4   6
BRANCH   1  15
ATOM     14  O   UNL     1       7.792   6.140  16.050  0.00  0.00    +0.000 OA
ATOM     15  C   UNL     1       6.761   5.585  15.688  0.00  0.00    +0.000 C 
BRANCH  15  16
ATOM     16  C   UNL     1       6.669   4.942  14.340  0.00  0.00    +0.000 A 
ATOM     17  C   UNL     1       5.555   4.150  14.019  0.00  0.00    +0.000 A 
ATOM     18  C   UNL     1       5.441   3.576  12.759  0.00  0.00    +0.000 A 
ATOM     19  F   UNL     1       4.385   2.798  12.488  0.00  0.00    +0.000 F 
ATOM     20  C   UNL     1       6.395   3.804  11.777  0.00  0.00    +0.000 A 
ATOM     21  C   UNL     1       7.494   4.611  12.067  0.00  0.00    +0.000 A 
ATOM     22  C   UNL     1       7.634   5.170  13.344  0.00  0.00    +0.000 A 
BRANCH  22  23
ATOM     23  O   UNL     1       8.746   5.914  13.610  0.00  0.00    +0.000 OA
ATOM     24  H   UNL     1       8.502   6.722  14.089  0.00  0.00    +0.000 HD
ENDBRANCH  22  23
ENDBRANCH  15  16
ENDBRANCH   1  15
TORSDOF 4
ENDMDL
MODEL 5
REMARK VINA RESULT:      -8.1      1.295      1.741
REMARK  Name = 
REMARK  4 active torsions:
REMARK  status: ('A' for Active; 'I' for Inactive)
REMARK    1  A    between atoms: C_2  and  C_3
REMARK    2  A    between atoms: C_2  and  C_16
REMARK    3  A    between atoms: N_6  and  C_7
REMARK    4  A    between atoms: C_22  and  O_23
REMARK                            x       y       z     vdW  Elec       q    Type
REMARK                         _______ _______ _______ _____ _____    ______ ____
ROOT
ATOM      1  C   UNL     1       2.677   7.028  18.461  0.00  0.00    +0.000 A 
ATOM      2  C   UNL     1       2.552   8.220  17.727  0.00  0.00    +0.000 A 
ATOM      3  N   UNL     1       1.860   9.160  18.373  0.00  0.00    +0.000 NA
ATOM      4  N   UNL     1       1.579   8.608  19.579  0.00  0.00    +0.000 N 
ATOM      5  C   UNL     1       2.094   7.334  19.676  0.00  0.00    +0.000 A 
ENDROOT
BRANCH   4   6
ATOM      6  C   UNL     1       0.832   9.321  20.558  0.00  0.00    +0.000 A 
ATOM      7  C   UNL     1       0.092  10.455  20.178  0.00  0.00    +0.000 A 
ATOM      8  C   UNL     1      -0.630  11.179  21.134  0.00  0.00    +0.000 A 
ATOM      9  C   UNL     1      -0.609  10.772  22.463  0.00  0.00    +0.000 A 
ATOM     10  F   UNL     1      -1.288  11.476  23.379  0.00  0.00    +0.000 F 
ATOM     11  C   UNL     1       0.110   9.645  22.839  0.00  0.00    +0.000 A 
ATOM     12  F   UNL     1       0.129   9.254  24.121  0.00  0.00    +0.000 F 
ATOM     13  C   UNL     1       0.828   8.910  21.899  0.00  0.00    +0.000 A 
ENDBRANCH   4   6
BRANCH   1  15
ATOM     14  O   UNL     1       4.100   5.770  17.112  0.00  0.00    +0.000 OA
ATOM     15  C   UNL     1       3.284   5.779  18.025  0.00  0.00    +0.000 C 
BRANCH  15  16
ATOM     16  C   UNL     1       2.795   4.499  18.629  0.00  0.00    +0.000 A 
ATOM     17  C   UNL     1       3.470   3.942  19.727  0.00  0.00    +0.000 A 
ATOM     18  C   UNL     1       3.006   2.774  20.318  0.00  0.00    +0.000 A 
ATOM     19  F   UNL     1       3.687   2.245  21.343  0.00  0.00    +0.000 F 
ATOM     20  C   UNL     1       1.848   2.155  19.872  0.00  0.00    +0.000 A 
ATOM     21  C   UNL     1       1.146   2.708  18.801  0.00  0.00    +0.000 A 
ATOM     22  C   UNL     1       1.622   3.870  18.178  0.00  0.00    +0.000 A 
BRANCH  22  23
ATOM     23  O   UNL     1       0.940   4.357  17.102  0.00  0.00    +0.000 OA
ATOM     24  H   UNL     1       1.295   5.223  16.845  0.00  0.00    +0.000 HD
ENDBRANCH  22  23
ENDBRANCH  15  16
ENDBRANCH   1  15
TORSDOF 4
ENDMDL
MODEL 6
REMARK VINA RESULT:      -8.1      4.435      5.516
REMARK  Name = 
REMARK  4 active torsions:
REMARK  status: ('A' for Active; 'I' for Inactive)
REMARK    1  A    between atoms: C_2  and  C_3
REMARK    2  A    between atoms: C_2  and  C_16
REMARK    3  A    between atoms: N_6  and  C_7
REMARK    4  A    between atoms: C_22  and  O_23
REMARK                            x       y       z     vdW  Elec       q    Type
REMARK                         _______ _______ _______ _____ _____    ______ ____
ROOT
ATOM      1  C   UNL     1       5.537   4.928  16.418  0.00  0.00    +0.000 A 
ATOM      2  C   UNL     1       4.548   4.030  16.857  0.00  0.00    +0.000 A 
ATOM      3  N   UNL     1       3.573   4.624  17.546  0.00  0.00    +0.000 NA
ATOM      4  N   UNL     1       3.883   5.943  17.508  0.00  0.00    +0.000 N 
ATOM      5  C   UNL     1       5.045   6.162  16.800  0.00  0.00    +0.000 A 
ENDROOT
BRANCH   4   6
ATOM      6  C   UNL     1       3.064   6.911  18.154  0.00  0.00    +0.000 A 
ATOM      7  C   UNL     1       2.728   8.099  17.480  0.00  0.00    +0.000 A 
ATOM      8  C   UNL     1       1.941   9.070  18.111  0.00  0.00    +0.000 A 
ATOM      9  C   UNL     1       1.496   8.854  19.410  0.00  0.00    +0.000 A 
ATOM     10  F   UNL     1       0.755   9.791  20.017  0.00  0.00    +0.000 F 
ATOM     11  C   UNL     1       1.815   7.677  20.073  0.00  0.00    +0.000 A 
ATOM     12  F   UNL     1       1.384   7.470  21.326  0.00  0.00    +0.000 F 
ATOM     13  C   UNL     1       2.591   6.698  19.456  0.00  0.00    +0.000 A 
ENDBRANCH   4   6
BRANCH   1  15
ATOM     14  O   UNL     1       7.846   4.633  16.323  0.00  0.00    +0.000 OA
ATOM     15  C   UNL     1       6.777   4.611  15.725  0.00  0.00    +0.000 C 
BRANCH  15  16
ATOM     16  C   UNL     1       6.730   4.382  14.247  0.00  0.00    +0.000 A 
ATOM     17  C   UNL     1       5.741   3.548  13.700  0.00  0.00    +0.000 A 
ATOM     18  C   UNL     1       5.666   3.356  12.327  0.00  0.00    +0.000 A 
ATOM     19  F   UNL     1       4.735   2.529  11.833  0.00  0.00    +0.000 F 
ATOM     20  C   UNL     1       6.529   4.011  11.461  0.00  0.00    +0.000 A 
ATOM     21  C   UNL     1       7.499   4.867  11.982  0.00  0.00    +0.000 A 
ATOM     22  C   UNL     1       7.603   5.045  13.368  0.00  0.00    +0.000 A 
BRANCH  22  23
ATOM     23  O   UNL     1       8.595   5.850  13.847  0.00  0.00    +0.000 OA
ATOM     24  H   UNL     1       8.285   6.768  13.898  0.00  0.00    +0.000 HD
ENDBRANCH  22  23
ENDBRANCH  15  16
ENDBRANCH   1  15
TORSDOF 4
ENDMDL
MODEL 7
REMARK VINA RESULT:      -8.0      4.507      6.413
REMARK  Name = 
REMARK  4 active torsions:
REMARK  status: ('A' for Active; 'I' for Inactive)
REMARK    1  A    between atoms: C_2  and  C_3
REMARK    2  A    between atoms: C_2  and  C_16
REMARK    3  A    between atoms: N_6  and  C_7
REMARK    4  A    between atoms: C_22  and  O_23
REMARK                            x       y       z     vdW  Elec       q    Type
REMARK                         _______ _______ _______ _____ _____    ______ ____
ROOT
ATOM      1  C   UNL     1       5.595   5.571  16.604  0.00  0.00    +0.000 A 
ATOM      2  C   UNL     1       4.552   6.514  16.635  0.00  0.00    +0.000 A 
ATOM      3  N   UNL     1       3.573   6.180  17.477  0.00  0.00    +0.000 NA
ATOM      4  N   UNL     1       4.002   5.035  18.062  0.00  0.00    +0.000 N 
ATOM      5  C   UNL     1       5.238   4.663  17.583  0.00  0.00    +0.000 A 
ENDROOT
BRANCH   4   6
ATOM      6  C   UNL     1       3.206   4.361  19.031  0.00  0.00    +0.000 A 
ATOM      7  C   UNL     1       1.829   4.632  19.110  0.00  0.00    +0.000 A 
ATOM      8  C   UNL     1       1.038   3.994  20.072  0.00  0.00    +0.000 A 
ATOM      9  C   UNL     1       1.623   3.091  20.953  0.00  0.00    +0.000 A 
ATOM     10  F   UNL     1       0.867   2.493  21.883  0.00  0.00    +0.000 F 
ATOM     11  C   UNL     1       2.980   2.812  20.870  0.00  0.00    +0.000 A 
ATOM     12  F   UNL     1       3.544   1.941  21.719  0.00  0.00    +0.000 F 
ATOM     13  C   UNL     1       3.779   3.434  19.913  0.00  0.00    +0.000 A 
ENDBRANCH   4   6
BRANCH   1  15
ATOM     14  O   UNL     1       7.781   6.172  16.069  0.00  0.00    +0.000 OA
ATOM     15  C   UNL     1       6.765   5.573  15.738  0.00  0.00    +0.000 C 
BRANCH  15  16
ATOM     16  C   UNL     1       6.654   4.937  14.388  0.00  0.00    +0.000 A 
ATOM     17  C   UNL     1       5.533   4.151  14.076  0.00  0.00    +0.000 A 
ATOM     18  C   UNL     1       5.402   3.584  12.815  0.00  0.00    +0.000 A 
ATOM     19  F   UNL     1       4.341   2.811  12.552  0.00  0.00    +0.000 F 
ATOM     20  C   UNL     1       6.345   3.814  11.823  0.00  0.00    +0.000 A 
ATOM     21  C   UNL     1       7.450   4.616  12.103  0.00  0.00    +0.000 A 
ATOM     22  C   UNL     1       7.607   5.168  13.381  0.00  0.00    +0.000 A 
BRANCH  22  23
ATOM     23  O   UNL     1       8.725   5.907  13.638  0.00  0.00    +0.000 OA
ATOM     24  H   UNL     1       9.280   5.457  14.294  0.00  0.00    +0.000 HD
ENDBRANCH  22  23
ENDBRANCH  15  16
ENDBRANCH   1  15
TORSDOF 4
ENDMDL
MODEL 8
REMARK VINA RESULT:      -8.0      2.784      3.776
REMARK  Name = 
REMARK  4 active torsions:
REMARK  status: ('A' for Active; 'I' for Inactive)
REMARK    1  A    between atoms: C_2  and  C_3
REMARK    2  A    between atoms: C_2  and  C_16
REMARK    3  A    between atoms: N_6  and  C_7
REMARK    4  A    between atoms: C_22  and  O_23
REMARK                            x       y       z     vdW  Elec       q    Type
REMARK                         _______ _______ _______ _____ _____    ______ ____
ROOT
ATOM      1  C   UNL     1       3.685   4.813  19.369  0.00  0.00    +0.000 A 
ATOM      2  C   UNL     1       2.617   4.572  20.251  0.00  0.00    +0.000 A 
ATOM      3  N   UNL     1       1.864   5.652  20.464  0.00  0.00    +0.000 NA
ATOM      4  N   UNL     1       2.399   6.605  19.663  0.00  0.00    +0.000 N 
ATOM      5  C   UNL     1       3.478   6.116  18.959  0.00  0.00    +0.000 A 
ENDROOT
BRANCH   4   6
ATOM      6  C   UNL     1       1.860   7.921  19.623  0.00  0.00    +0.000 A 
ATOM      7  C   UNL     1       1.896   8.652  18.421  0.00  0.00    +0.000 A 
ATOM      8  C   UNL     1       1.389   9.955  18.372  0.00  0.00    +0.000 A 
ATOM      9  C   UNL     1       0.852  10.526  19.520  0.00  0.00    +0.000 A 
ATOM     10  F   UNL     1       0.381  11.780  19.475  0.00  0.00    +0.000 F 
ATOM     11  C   UNL     1       0.802   9.803  20.705  0.00  0.00    +0.000 A 
ATOM     12  F   UNL     1       0.284  10.355  21.811  0.00  0.00    +0.000 F 
ATOM     13  C   UNL     1       1.296   8.502  20.767  0.00  0.00    +0.000 A 
ENDBRANCH   4   6
BRANCH   1  15
ATOM     14  O   UNL     1       5.073   2.979  19.740  0.00  0.00    +0.000 OA
ATOM     15  C   UNL     1       4.746   3.891  18.990  0.00  0.00    +0.000 C 
BRANCH  15  16
ATOM     16  C   UNL     1       5.507   4.158  17.730  0.00  0.00    +0.000 A 
ATOM     17  C   UNL     1       4.872   4.014  16.486  0.00  0.00    +0.000 A 
ATOM     18  C   UNL     1       5.558   4.293  15.311  0.00  0.00    +0.000 A 
ATOM     19  F   UNL     1       4.940   4.115  14.135  0.00  0.00    +0.000 F 
ATOM     20  C   UNL     1       6.864   4.760  15.335  0.00  0.00    +0.000 A 
ATOM     21  C   UNL     1       7.503   4.938  16.561  0.00  0.00    +0.000 A 
ATOM     22  C   UNL     1       6.831   4.632  17.751  0.00  0.00    +0.000 A 
BRANCH  22  23
ATOM     23  O   UNL     1       7.501   4.770  18.932  0.00  0.00    +0.000 OA
ATOM     24  H   UNL     1       7.756   5.696  19.065  0.00  0.00    +0.000 HD
ENDBRANCH  22  23
ENDBRANCH  15  16
ENDBRANCH   1  15
TORSDOF 4
ENDMDL
MODEL 9
REMARK VINA RESULT:      -8.0      4.849      8.372
REMARK  Name = 
REMARK  4 active torsions:
REMARK  status: ('A' for Active; 'I' for Inactive)
REMARK    1  A    between atoms: C_2  and  C_3
REMARK    2  A    between atoms: C_2  and  C_16
REMARK    3  A    between atoms: N_6  and  C_7
REMARK    4  A    between atoms: C_22  and  O_23
REMARK                            x       y       z     vdW  Elec       q    Type
REMARK                         _______ _______ _______ _____ _____    ______ ____
ROOT
ATOM      1  C   UNL     1       5.461   5.302  17.818  0.00  0.00    +0.000 A 
ATOM      2  C   UNL     1       5.190   6.504  17.140  0.00  0.00    +0.000 A 
ATOM      3  N   UNL     1       5.483   6.446  15.840  0.00  0.00    +0.000 NA
ATOM      4  N   UNL     1       5.890   5.169  15.638  0.00  0.00    +0.000 N 
ATOM      5  C   UNL     1       5.851   4.442  16.808  0.00  0.00    +0.000 A 
ENDROOT
BRANCH   4   6
ATOM      6  C   UNL     1       6.300   4.722  14.351  0.00  0.00    +0.000 A 
ATOM      7  C   UNL     1       7.427   5.301  13.740  0.00  0.00    +0.000 A 
ATOM      8  C   UNL     1       7.829   4.887  12.465  0.00  0.00    +0.000 A 
ATOM      9  C   UNL     1       7.106   3.901  11.803  0.00  0.00    +0.000 A 
ATOM     10  F   UNL     1       7.484   3.518  10.576  0.00  0.00    +0.000 F 
ATOM     11  C   UNL     1       6.001   3.319  12.408  0.00  0.00    +0.000 A 
ATOM     12  F   UNL     1       5.304   2.368  11.769  0.00  0.00    +0.000 F 
ATOM     13  C   UNL     1       5.592   3.715  13.680  0.00  0.00    +0.000 A 
ENDBRANCH   4   6
BRANCH   1  15
ATOM     14  O   UNL     1       6.314   5.201  19.983  0.00  0.00    +0.000 OA
ATOM     15  C   UNL     1       5.348   5.046  19.246  0.00  0.00    +0.000 C 
BRANCH  15  16
ATOM     16  C   UNL     1       4.068   4.472  19.769  0.00  0.00    +0.000 A 
ATOM     17  C   UNL     1       2.971   5.315  20.008  0.00  0.00    +0.000 A 
ATOM     18  C   UNL     1       1.768   4.789  20.460  0.00  0.00    +0.000 A 
ATOM     19  F   UNL     1       0.746   5.618  20.713  0.00  0.00    +0.000 F 
ATOM     20  C   UNL     1       1.604   3.424  20.644  0.00  0.00    +0.000 A 
ATOM     21  C   UNL     1       2.673   2.567  20.384  0.00  0.00    +0.000 A 
ATOM     22  C   UNL     1       3.900   3.089  19.956  0.00  0.00    +0.000 A 
BRANCH  22  23
ATOM     23  O   UNL     1       4.940   2.229  19.759  0.00  0.00    +0.000 OA
ATOM     24  H   UNL     1       5.051   1.654  20.532  0.00  0.00    +0.000 HD
ENDBRANCH  22  23
ENDBRANCH  15  16
ENDBRANCH   1  15
TORSDOF 4
ENDMDL
