MODEL 1
REMARK VINA RESULT:      -8.8      0.000      0.000
REMARK  Name = 
REMARK  3 active torsions:
REMARK  status: ('A' for Active; 'I' for Inactive)
REMARK    1  A    between atoms: C_2  and  C_19
REMARK    2  A    between atoms: C_9  and  C_10
REMARK    3  A    between atoms: C_21  and  C_22
REMARK                            x       y       z     vdW  Elec       q    Type
REMARK                         _______ _______ _______ _____ _____    ______ ____
ROOT
ATOM      1  O   UNL     1       1.624   5.737  20.922  0.00  0.00    +0.000 OA
ATOM      2  C   UNL     1       2.208   6.177  19.944  0.00  0.00    +0.000 C 
ATOM      3  N   UNL     1       2.176   7.455  19.451  0.00  0.00    +0.000 N 
ATOM      4  C   UNL     1       1.520   8.506  20.044  0.00  0.00    +0.000 A 
ATOM      5  N   UNL     1       1.219   9.592  19.374  0.00  0.00    +0.000 NA
ATOM      6  C   UNL     1       0.475  10.435  20.187  0.00  0.00    +0.000 A 
ATOM      7  C   UNL     1      -0.143  11.634  19.796  0.00  0.00    +0.000 A 
ATOM      8  C   UNL     1      -0.897  12.363  20.727  0.00  0.00    +0.000 A 
ATOM      9  C   UNL     1      -1.047  11.945  22.061  0.00  0.00    +0.000 A 
ATOM     10  C   UNL     1      -0.404  10.755  22.454  0.00  0.00    +0.000 A 
ATOM     11  C   UNL     1       0.326  10.014  21.506  0.00  0.00    +0.000 A 
ATOM     12  S   UNL     1       1.130   8.511  21.700  0.00  0.00    +0.000 S 
ATOM     13  H   UNL     1       2.487   7.640  18.511  0.00  0.00    +0.000 HD
ENDROOT
BRANCH   9  14
ATOM     14  C   UNL     1      -1.873  12.718  23.021  0.00  0.00    +0.000 A 
ATOM     15  C   UNL     1      -1.437  13.946  23.537  0.00  0.00    +0.000 A 
ATOM     16  C   UNL     1      -2.241  14.637  24.432  0.00  0.00    +0.000 A 
ATOM     17  N   UNL     1      -3.446  14.206  24.845  0.00  0.00    +0.000 NA
ATOM     18  C   UNL     1      -3.867  13.029  24.341  0.00  0.00    +0.000 A 
ATOM     19  C   UNL     1      -3.129  12.265  23.448  0.00  0.00    +0.000 A 
ENDBRANCH   9  14
BRANCH   2  20
ATOM     20  C   UNL     1       3.036   5.246  19.114  0.00  0.00    +0.000 C 
ATOM     21  C   UNL     1       2.371   4.394  18.060  0.00  0.00    +0.000 C 
ATOM     22  C   UNL     1       3.256   5.542  17.638  0.00  0.00    +0.000 C 
BRANCH  22  23
ATOM     23  C   UNL     1       4.605   5.269  17.012  0.00  0.00    +0.000 A 
ATOM     24  C   UNL     1       4.823   4.137  16.211  0.00  0.00    +0.000 A 
ATOM     25  C   UNL     1       6.062   3.890  15.611  0.00  0.00    +0.000 A 
ATOM     26  C   UNL     1       7.115   4.781  15.799  0.00  0.00    +0.000 A 
ATOM     27  C   UNL     1       6.925   5.914  16.583  0.00  0.00    +0.000 A 
ATOM     28  C   UNL     1       5.684   6.154  17.179  0.00  0.00    +0.000 A 
ENDBRANCH  22  23
ENDBRANCH   2  20
TORSDOF 3
ENDMDL
MODEL 2
REMARK VINA RESULT:      -8.7      0.029      1.290
REMARK  Name = 
REMARK  3 active torsions:
REMARK  status: ('A' for Active; 'I' for Inactive)
REMARK    1  A    between atoms: C_2  and  C_19
REMARK    2  A    between atoms: C_9  and  C_10
REMARK    3  A    between atoms: C_21  and  C_22
REMARK                            x       y       z     vdW  Elec       q    Type
REMARK                         _______ _______ _______ _____ _____    ______ ____
ROOT
ATOM      1  O   UNL     1       1.625   5.736  20.903  0.00  0.00    +0.000 OA
ATOM      2  C   UNL     1       2.216   6.178  19.930  0.00  0.00    +0.000 C 
ATOM      3  N   UNL     1       2.189   7.458  19.442  0.00  0.00    +0.000 N 
ATOM      4  C   UNL     1       1.531   8.507  20.034  0.00  0.00    +0.000 A 
ATOM      5  N   UNL     1       1.237   9.597  19.368  0.00  0.00    +0.000 NA
ATOM      6  C   UNL     1       0.489  10.438  20.178  0.00  0.00    +0.000 A 
ATOM      7  C   UNL     1      -0.124  11.640  19.788  0.00  0.00    +0.000 A 
ATOM      8  C   UNL     1      -0.883  12.366  20.718  0.00  0.00    +0.000 A 
ATOM      9  C   UNL     1      -1.041  11.944  22.050  0.00  0.00    +0.000 A 
ATOM     10  C   UNL     1      -0.403  10.751  22.441  0.00  0.00    +0.000 A 
ATOM     11  C   UNL     1       0.332  10.013  21.495  0.00  0.00    +0.000 A 
ATOM     12  S   UNL     1       1.132   8.507  21.688  0.00  0.00    +0.000 S 
ATOM     13  H   UNL     1       2.507   7.646  18.504  0.00  0.00    +0.000 HD
ENDROOT
BRANCH   9  14
ATOM     14  C   UNL     1      -1.872  12.714  23.007  0.00  0.00    +0.000 A 
ATOM     15  C   UNL     1      -3.118  12.240  23.440  0.00  0.00    +0.000 A 
ATOM     16  C   UNL     1      -3.863  12.992  24.337  0.00  0.00    +0.000 A 
ATOM     17  N   UNL     1      -3.461  14.172  24.842  0.00  0.00    +0.000 NA
ATOM     18  C   UNL     1      -2.259  14.622  24.430  0.00  0.00    +0.000 A 
ATOM     19  C   UNL     1      -1.448  13.943  23.532  0.00  0.00    +0.000 A 
ENDBRANCH   9  14
BRANCH   2  20
ATOM     20  C   UNL     1       3.047   5.248  19.102  0.00  0.00    +0.000 C 
ATOM     21  C   UNL     1       2.380   4.360  18.080  0.00  0.00    +0.000 C 
ATOM     22  C   UNL     1       3.229   5.519  17.615  0.00  0.00    +0.000 C 
BRANCH  22  23
ATOM     23  C   UNL     1       4.571   5.263  16.966  0.00  0.00    +0.000 A 
ATOM     24  C   UNL     1       5.644   6.153  17.134  0.00  0.00    +0.000 A 
ATOM     25  C   UNL     1       6.894   5.911  16.555  0.00  0.00    +0.000 A 
ATOM     26  C   UNL     1       7.097   4.764  15.793  0.00  0.00    +0.000 A 
ATOM     27  C   UNL     1       6.052   3.863  15.615  0.00  0.00    +0.000 A 
ATOM     28  C   UNL     1       4.806   4.111  16.197  0.00  0.00    +0.000 A 
ENDBRANCH  22  23
ENDBRANCH   2  20
TORSDOF 3
ENDMDL
MODEL 3
REMARK VINA RESULT:      -8.4      2.639     11.176
REMARK  Name = 
REMARK  3 active torsions:
REMARK  status: ('A' for Active; 'I' for Inactive)
REMARK    1  A    between atoms: C_2  and  C_19
REMARK    2  A    between atoms: C_9  and  C_10
REMARK    3  A    between atoms: C_21  and  C_22
REMARK                            x       y       z     vdW  Elec       q    Type
REMARK                         _______ _______ _______ _____ _____    ______ ____
ROOT
ATOM      1  O   UNL     1       1.024   9.395  18.615  0.00  0.00    +0.000 OA
ATOM      2  C   UNL     1       1.120   8.785  19.668  0.00  0.00    +0.000 C 
ATOM      3  N   UNL     1       1.856   7.658  19.921  0.00  0.00    +0.000 N 
ATOM      4  C   UNL     1       2.697   7.054  19.019  0.00  0.00    +0.000 A 
ATOM      5  N   UNL     1       3.092   5.813  19.172  0.00  0.00    +0.000 NA
ATOM      6  C   UNL     1       3.844   5.436  18.070  0.00  0.00    +0.000 A 
ATOM      7  C   UNL     1       4.335   4.148  17.799  0.00  0.00    +0.000 A 
ATOM      8  C   UNL     1       5.053   3.912  16.618  0.00  0.00    +0.000 A 
ATOM      9  C   UNL     1       5.323   4.932  15.689  0.00  0.00    +0.000 A 
ATOM     10  C   UNL     1       4.850   6.227  15.977  0.00  0.00    +0.000 A 
ATOM     11  C   UNL     1       4.104   6.449  17.150  0.00  0.00    +0.000 A 
ATOM     12  S   UNL     1       3.356   7.894  17.694  0.00  0.00    +0.000 S 
ATOM     13  H   UNL     1       1.664   7.103  20.741  0.00  0.00    +0.000 HD
ENDROOT
BRANCH   9  14
ATOM     14  C   UNL     1       6.061   4.652  14.432  0.00  0.00    +0.000 A 
ATOM     15  C   UNL     1       5.589   3.716  13.501  0.00  0.00    +0.000 A 
ATOM     16  C   UNL     1       6.310   3.484  12.339  0.00  0.00    +0.000 A 
ATOM     17  N   UNL     1       7.456   4.118  12.027  0.00  0.00    +0.000 NA
ATOM     18  C   UNL     1       7.902   5.023  12.920  0.00  0.00    +0.000 A 
ATOM     19  C   UNL     1       7.253   5.315  14.112  0.00  0.00    +0.000 A 
ENDBRANCH   9  14
BRANCH   2  20
ATOM     20  C   UNL     1       0.323   9.246  20.849  0.00  0.00    +0.000 C 
ATOM     21  C   UNL     1       1.031   9.600  22.135  0.00  0.00    +0.000 C 
ATOM     22  C   UNL     1       0.413  10.697  21.301  0.00  0.00    +0.000 C 
BRANCH  22  23
ATOM     23  C   UNL     1      -0.831  11.408  21.785  0.00  0.00    +0.000 A 
ATOM     24  C   UNL     1      -1.563  12.255  20.937  0.00  0.00    +0.000 A 
ATOM     25  C   UNL     1      -2.727  12.898  21.372  0.00  0.00    +0.000 A 
ATOM     26  C   UNL     1      -3.186  12.703  22.671  0.00  0.00    +0.000 A 
ATOM     27  C   UNL     1      -2.482  11.865  23.530  0.00  0.00    +0.000 A 
ATOM     28  C   UNL     1      -1.321  11.225  23.089  0.00  0.00    +0.000 A 
ENDBRANCH  22  23
ENDBRANCH   2  20
TORSDOF 3
ENDMDL
MODEL 4
REMARK VINA RESULT:      -8.4      2.659     11.163
REMARK  Name = 
REMARK  3 active torsions:
REMARK  status: ('A' for Active; 'I' for Inactive)
REMARK    1  A    between atoms: C_2  and  C_19
REMARK    2  A    between atoms: C_9  and  C_10
REMARK    3  A    between atoms: C_21  and  C_22
REMARK                            x       y       z     vdW  Elec       q    Type
REMARK                         _______ _______ _______ _____ _____    ______ ____
ROOT
ATOM      1  O   UNL     1       1.163   9.432  18.641  0.00  0.00    +0.000 OA
ATOM      2  C   UNL     1       1.198   8.770  19.667  0.00  0.00    +0.000 C 
ATOM      3  N   UNL     1       1.866   7.595  19.885  0.00  0.00    +0.000 N 
ATOM      4  C   UNL     1       2.699   6.988  18.977  0.00  0.00    +0.000 A 
ATOM      5  N   UNL     1       3.023   5.722  19.082  0.00  0.00    +0.000 NA
ATOM      6  C   UNL     1       3.784   5.356  17.982  0.00  0.00    +0.000 A 
ATOM      7  C   UNL     1       4.214   4.057  17.664  0.00  0.00    +0.000 A 
ATOM      8  C   UNL     1       4.951   3.836  16.492  0.00  0.00    +0.000 A 
ATOM      9  C   UNL     1       5.299   4.882  15.618  0.00  0.00    +0.000 A 
ATOM     10  C   UNL     1       4.888   6.185  15.955  0.00  0.00    +0.000 A 
ATOM     11  C   UNL     1       4.123   6.394  17.118  0.00  0.00    +0.000 A 
ATOM     12  S   UNL     1       3.437   7.851  17.710  0.00  0.00    +0.000 S 
ATOM     13  H   UNL     1       1.622   7.015  20.673  0.00  0.00    +0.000 HD
ENDROOT
BRANCH   9  14
ATOM     14  C   UNL     1       6.056   4.620  14.368  0.00  0.00    +0.000 A 
ATOM     15  C   UNL     1       7.257   5.286  14.088  0.00  0.00    +0.000 A 
ATOM     16  C   UNL     1       7.933   5.011  12.908  0.00  0.00    +0.000 A 
ATOM     17  N   UNL     1       7.512   4.120  11.993  0.00  0.00    +0.000 NA
ATOM     18  C   UNL     1       6.362   3.475  12.269  0.00  0.00    +0.000 A 
ATOM     19  C   UNL     1       5.614   3.689  13.418  0.00  0.00    +0.000 A 
ENDBRANCH   9  14
BRANCH   2  20
ATOM     20  C   UNL     1       0.394   9.220  20.848  0.00  0.00    +0.000 C 
ATOM     21  C   UNL     1       1.100   9.653  22.110  0.00  0.00    +0.000 C 
ATOM     22  C   UNL     1       0.405  10.686  21.255  0.00  0.00    +0.000 C 
BRANCH  22  23
ATOM     23  C   UNL     1      -0.870  11.338  21.740  0.00  0.00    +0.000 A 
ATOM     24  C   UNL     1      -1.288  11.219  23.076  0.00  0.00    +0.000 A 
ATOM     25  C   UNL     1      -2.455  11.839  23.536  0.00  0.00    +0.000 A 
ATOM     26  C   UNL     1      -3.230  12.598  22.664  0.00  0.00    +0.000 A 
ATOM     27  C   UNL     1      -2.835  12.736  21.337  0.00  0.00    +0.000 A 
ATOM     28  C   UNL     1      -1.668  12.116  20.885  0.00  0.00    +0.000 A 
ENDBRANCH  22  23
ENDBRANCH   2  20
TORSDOF 3
ENDMDL
MODEL 5
REMARK VINA RESULT:      -8.4      2.343     10.677
REMARK  Name = 
REMARK  3 active torsions:
REMARK  status: ('A' for Active; 'I' for Inactive)
REMARK    1  A    between atoms: C_2  and  C_19
REMARK    2  A    between atoms: C_9  and  C_10
REMARK    3  A    between atoms: C_21  and  C_22
REMARK                            x       y       z     vdW  Elec       q    Type
REMARK                         _______ _______ _______ _____ _____    ______ ____
ROOT
ATOM      1  O   UNL     1      -0.251  10.325  23.599  0.00  0.00    +0.000 OA
ATOM      2  C   UNL     1      -0.917  10.956  22.793  0.00  0.00    +0.000 C 
ATOM      3  N   UNL     1      -0.844  10.912  21.426  0.00  0.00    +0.000 N 
ATOM      4  C   UNL     1      -0.035  10.061  20.713  0.00  0.00    +0.000 A 
ATOM      5  N   UNL     1       0.266  10.290  19.458  0.00  0.00    +0.000 NA
ATOM      6  C   UNL     1       1.172   9.334  19.026  0.00  0.00    +0.000 A 
ATOM      7  C   UNL     1       1.831   9.314  17.785  0.00  0.00    +0.000 A 
ATOM      8  C   UNL     1       2.753   8.295  17.505  0.00  0.00    +0.000 A 
ATOM      9  C   UNL     1       3.035   7.266  18.421  0.00  0.00    +0.000 A 
ATOM     10  C   UNL     1       2.353   7.278  19.653  0.00  0.00    +0.000 A 
ATOM     11  C   UNL     1       1.451   8.320  19.939  0.00  0.00    +0.000 A 
ATOM     12  S   UNL     1       0.559   8.610  21.375  0.00  0.00    +0.000 S 
ATOM     13  H   UNL     1      -1.255  11.649  20.875  0.00  0.00    +0.000 HD
ENDROOT
BRANCH   9  14
ATOM     14  C   UNL     1       4.035   6.215  18.113  0.00  0.00    +0.000 A 
ATOM     15  C   UNL     1       4.450   5.294  19.085  0.00  0.00    +0.000 A 
ATOM     16  C   UNL     1       5.388   4.326  18.755  0.00  0.00    +0.000 A 
ATOM     17  N   UNL     1       5.936   4.199  17.533  0.00  0.00    +0.000 NA
ATOM     18  C   UNL     1       5.529   5.080  16.599  0.00  0.00    +0.000 A 
ATOM     19  C   UNL     1       4.603   6.085  16.838  0.00  0.00    +0.000 A 
ENDBRANCH   9  14
BRANCH   2  20
ATOM     20  C   UNL     1      -1.915  11.951  23.298  0.00  0.00    +0.000 C 
ATOM     21  C   UNL     1      -1.574  13.422  23.290  0.00  0.00    +0.000 C 
ATOM     22  C   UNL     1      -2.604  12.893  22.321  0.00  0.00    +0.000 C 
BRANCH  22  23
ATOM     23  C   UNL     1      -4.066  13.230  22.510  0.00  0.00    +0.000 A 
ATOM     24  C   UNL     1      -4.484  14.138  23.497  0.00  0.00    +0.000 A 
ATOM     25  C   UNL     1      -5.833  14.471  23.662  0.00  0.00    +0.000 A 
ATOM     26  C   UNL     1      -6.796  13.901  22.835  0.00  0.00    +0.000 A 
ATOM     27  C   UNL     1      -6.408  13.003  21.846  0.00  0.00    +0.000 A 
ATOM     28  C   UNL     1      -5.059  12.675  21.686  0.00  0.00    +0.000 A 
ENDBRANCH  22  23
ENDBRANCH   2  20
TORSDOF 3
ENDMDL
MODEL 6
REMARK VINA RESULT:      -8.3      3.871      9.831
REMARK  Name = 
REMARK  3 active torsions:
REMARK  status: ('A' for Active; 'I' for Inactive)
REMARK    1  A    between atoms: C_2  and  C_19
REMARK    2  A    between atoms: C_9  and  C_10
REMARK    3  A    between atoms: C_21  and  C_22
REMARK                            x       y       z     vdW  Elec       q    Type
REMARK                         _______ _______ _______ _____ _____    ______ ____
ROOT
ATOM      1  O   UNL     1       0.879  12.669  21.493  0.00  0.00    +0.000 OA
ATOM      2  C   UNL     1       0.647  12.969  20.332  0.00  0.00    +0.000 C 
ATOM      3  N   UNL     1       0.740  12.170  19.224  0.00  0.00    +0.000 N 
ATOM      4  C   UNL     1       1.045  10.831  19.248  0.00  0.00    +0.000 A 
ATOM      5  N   UNL     1       1.468  10.204  18.177  0.00  0.00    +0.000 NA
ATOM      6  C   UNL     1       1.794   8.899  18.514  0.00  0.00    +0.000 A 
ATOM      7  C   UNL     1       2.403   7.951  17.675  0.00  0.00    +0.000 A 
ATOM      8  C   UNL     1       2.706   6.675  18.173  0.00  0.00    +0.000 A 
ATOM      9  C   UNL     1       2.405   6.295  19.492  0.00  0.00    +0.000 A 
ATOM     10  C   UNL     1       1.773   7.241  20.321  0.00  0.00    +0.000 A 
ATOM     11  C   UNL     1       1.498   8.528  19.824  0.00  0.00    +0.000 A 
ATOM     12  S   UNL     1       0.815   9.875  20.637  0.00  0.00    +0.000 S 
ATOM     13  H   UNL     1       0.771  12.583  18.305  0.00  0.00    +0.000 HD
ENDROOT
BRANCH   9  14
ATOM     14  C   UNL     1       2.761   4.948  20.005  0.00  0.00    +0.000 A 
ATOM     15  C   UNL     1       2.052   4.357  21.059  0.00  0.00    +0.000 A 
ATOM     16  C   UNL     1       2.418   3.096  21.508  0.00  0.00    +0.000 A 
ATOM     17  N   UNL     1       3.427   2.377  20.984  0.00  0.00    +0.000 NA
ATOM     18  C   UNL     1       4.101   2.944  19.965  0.00  0.00    +0.000 A 
ATOM     19  C   UNL     1       3.813   4.202  19.454  0.00  0.00    +0.000 A 
ENDBRANCH   9  14
BRANCH   2  20
ATOM     20  C   UNL     1       0.257  14.378  20.012  0.00  0.00    +0.000 C 
ATOM     21  C   UNL     1       0.503  15.470  21.025  0.00  0.00    +0.000 C 
ATOM     22  C   UNL     1       1.335  15.423  19.766  0.00  0.00    +0.000 C 
BRANCH  22  23
ATOM     23  C   UNL     1       1.137  16.465  18.687  0.00  0.00    +0.000 A 
ATOM     24  C   UNL     1       2.174  16.806  17.803  0.00  0.00    +0.000 A 
ATOM     25  C   UNL     1       1.990  17.752  16.788  0.00  0.00    +0.000 A 
ATOM     26  C   UNL     1       0.756  18.376  16.635  0.00  0.00    +0.000 A 
ATOM     27  C   UNL     1      -0.290  18.052  17.493  0.00  0.00    +0.000 A 
ATOM     28  C   UNL     1      -0.100  17.106  18.504  0.00  0.00    +0.000 A 
ENDBRANCH  22  23
ENDBRANCH   2  20
TORSDOF 3
ENDMDL
MODEL 7
REMARK VINA RESULT:      -8.2      2.282     10.922
REMARK  Name = 
REMARK  3 active torsions:
REMARK  status: ('A' for Active; 'I' for Inactive)
REMARK    1  A    between atoms: C_2  and  C_19
REMARK    2  A    between atoms: C_9  and  C_10
REMARK    3  A    between atoms: C_21  and  C_22
REMARK                            x       y       z     vdW  Elec       q    Type
REMARK                         _______ _______ _______ _____ _____    ______ ____
ROOT
ATOM      1  O   UNL     1      -0.562  11.359  23.152  0.00  0.00    +0.000 OA
ATOM      2  C   UNL     1      -1.079  11.886  22.179  0.00  0.00    +0.000 C 
ATOM      3  N   UNL     1      -0.897  11.573  20.858  0.00  0.00    +0.000 N 
ATOM      4  C   UNL     1      -0.135  10.526  20.400  0.00  0.00    +0.000 A 
ATOM      5  N   UNL     1       0.296  10.480  19.163  0.00  0.00    +0.000 NA
ATOM      6  C   UNL     1       1.117   9.374  19.009  0.00  0.00    +0.000 A 
ATOM      7  C   UNL     1       1.872   9.051  17.868  0.00  0.00    +0.000 A 
ATOM      8  C   UNL     1       2.689   7.911  17.876  0.00  0.00    +0.000 A 
ATOM      9  C   UNL     1       2.771   7.055  18.989  0.00  0.00    +0.000 A 
ATOM     10  C   UNL     1       1.993   7.370  20.119  0.00  0.00    +0.000 A 
ATOM     11  C   UNL     1       1.199   8.531  20.115  0.00  0.00    +0.000 A 
ATOM     12  S   UNL     1       0.228   9.178  21.373  0.00  0.00    +0.000 S 
ATOM     13  H   UNL     1      -1.171  12.228  20.142  0.00  0.00    +0.000 HD
ENDROOT
BRANCH   9  14
ATOM     14  C   UNL     1       3.665   5.871  18.983  0.00  0.00    +0.000 A 
ATOM     15  C   UNL     1       3.316   4.689  19.652  0.00  0.00    +0.000 A 
ATOM     16  C   UNL     1       4.180   3.605  19.621  0.00  0.00    +0.000 A 
ATOM     17  N   UNL     1       5.358   3.602  18.971  0.00  0.00    +0.000 NA
ATOM     18  C   UNL     1       5.687   4.736  18.322  0.00  0.00    +0.000 A 
ATOM     19  C   UNL     1       4.890   5.873  18.302  0.00  0.00    +0.000 A 
ENDBRANCH   9  14
BRANCH   2  20
ATOM     20  C   UNL     1      -1.994  13.053  22.388  0.00  0.00    +0.000 C 
ATOM     21  C   UNL     1      -3.486  12.830  22.453  0.00  0.00    +0.000 C 
ATOM     22  C   UNL     1      -2.735  13.205  23.708  0.00  0.00    +0.000 C 
BRANCH  22  23
ATOM     23  C   UNL     1      -2.910  14.580  24.314  0.00  0.00    +0.000 A 
ATOM     24  C   UNL     1      -1.856  15.222  24.984  0.00  0.00    +0.000 A 
ATOM     25  C   UNL     1      -2.005  16.503  25.527  0.00  0.00    +0.000 A 
ATOM     26  C   UNL     1      -3.219  17.173  25.406  0.00  0.00    +0.000 A 
ATOM     27  C   UNL     1      -4.277  16.562  24.742  0.00  0.00    +0.000 A 
ATOM     28  C   UNL     1      -4.122  15.283  24.201  0.00  0.00    +0.000 A 
ENDBRANCH  22  23
ENDBRANCH   2  20
TORSDOF 3
ENDMDL
MODEL 8
REMARK VINA RESULT:      -8.1      0.970      1.313
REMARK  Name = 
REMARK  3 active torsions:
REMARK  status: ('A' for Active; 'I' for Inactive)
REMARK    1  A    between atoms: C_2  and  C_19
REMARK    2  A    between atoms: C_9  and  C_10
REMARK    3  A    between atoms: C_21  and  C_22
REMARK                            x       y       z     vdW  Elec       q    Type
REMARK                         _______ _______ _______ _____ _____    ______ ____
ROOT
ATOM      1  O   UNL     1       1.576   6.036  20.940  0.00  0.00    +0.000 OA
ATOM      2  C   UNL     1       2.256   6.480  20.028  0.00  0.00    +0.000 C 
ATOM      3  N   UNL     1       2.200   7.730  19.472  0.00  0.00    +0.000 N 
ATOM      4  C   UNL     1       1.396   8.750  19.918  0.00  0.00    +0.000 A 
ATOM      5  N   UNL     1       1.113   9.782  19.161  0.00  0.00    +0.000 NA
ATOM      6  C   UNL     1       0.207  10.597  19.823  0.00  0.00    +0.000 A 
ATOM      7  C   UNL     1      -0.436  11.728  19.294  0.00  0.00    +0.000 A 
ATOM      8  C   UNL     1      -1.360  12.433  20.079  0.00  0.00    +0.000 A 
ATOM      9  C   UNL     1      -1.660  12.059  21.401  0.00  0.00    +0.000 A 
ATOM     10  C   UNL     1      -0.994  10.939  21.934  0.00  0.00    +0.000 A 
ATOM     11  C   UNL     1      -0.090  10.219  21.131  0.00  0.00    +0.000 A 
ATOM     12  S   UNL     1       0.784   8.792  21.505  0.00  0.00    +0.000 S 
ATOM     13  H   UNL     1       2.623   7.901  18.573  0.00  0.00    +0.000 HD
ENDROOT
BRANCH   9  14
ATOM     14  C   UNL     1      -2.663  12.803  22.202  0.00  0.00    +0.000 A 
ATOM     15  C   UNL     1      -2.420  13.149  23.538  0.00  0.00    +0.000 A 
ATOM     16  C   UNL     1      -3.384  13.846  24.252  0.00  0.00    +0.000 A 
ATOM     17  N   UNL     1      -4.565  14.233  23.736  0.00  0.00    +0.000 NA
ATOM     18  C   UNL     1      -4.793  13.907  22.449  0.00  0.00    +0.000 A 
ATOM     19  C   UNL     1      -3.892  13.205  21.660  0.00  0.00    +0.000 A 
ENDBRANCH   9  14
BRANCH   2  20
ATOM     20  C   UNL     1       3.253   5.583  19.364  0.00  0.00    +0.000 C 
ATOM     21  C   UNL     1       2.885   4.149  19.064  0.00  0.00    +0.000 C 
ATOM     22  C   UNL     1       3.026   5.133  17.928  0.00  0.00    +0.000 C 
BRANCH  22  23
ATOM     23  C   UNL     1       4.201   5.034  16.980  0.00  0.00    +0.000 A 
ATOM     24  C   UNL     1       4.815   6.183  16.456  0.00  0.00    +0.000 A 
ATOM     25  C   UNL     1       5.916   6.098  15.596  0.00  0.00    +0.000 A 
ATOM     26  C   UNL     1       6.429   4.853  15.245  0.00  0.00    +0.000 A 
ATOM     27  C   UNL     1       5.843   3.699  15.755  0.00  0.00    +0.000 A 
ATOM     28  C   UNL     1       4.745   3.791  16.613  0.00  0.00    +0.000 A 
ENDBRANCH  22  23
ENDBRANCH   2  20
TORSDOF 3
ENDMDL
MODEL 9
REMARK VINA RESULT:      -8.1      0.982      1.019
REMARK  Name = 
REMARK  3 active torsions:
REMARK  status: ('A' for Active; 'I' for Inactive)
REMARK    1  A    between atoms: C_2  and  C_19
REMARK    2  A    between atoms: C_9  and  C_10
REMARK    3  A    between atoms: C_21  and  C_22
REMARK                            x       y       z     vdW  Elec       q    Type
REMARK                         _______ _______ _______ _____ _____    ______ ____
ROOT
ATOM      1  O   UNL     1       1.749   5.539  20.797  0.00  0.00    +0.000 OA
ATOM      2  C   UNL     1       2.445   5.942  19.877  0.00  0.00    +0.000 C 
ATOM      3  N   UNL     1       2.441   7.186  19.304  0.00  0.00    +0.000 N 
ATOM      4  C   UNL     1       1.683   8.245  19.739  0.00  0.00    +0.000 A 
ATOM      5  N   UNL     1       1.442   9.279  18.969  0.00  0.00    +0.000 NA
ATOM      6  C   UNL     1       0.574  10.140  19.623  0.00  0.00    +0.000 A 
ATOM      7  C   UNL     1      -0.022  11.291  19.080  0.00  0.00    +0.000 A 
ATOM      8  C   UNL     1      -0.912  12.045  19.858  0.00  0.00    +0.000 A 
ATOM      9  C   UNL     1      -1.224  11.702  21.185  0.00  0.00    +0.000 A 
ATOM     10  C   UNL     1      -0.605  10.561  21.732  0.00  0.00    +0.000 A 
ATOM     11  C   UNL     1       0.264   9.793  20.936  0.00  0.00    +0.000 A 
ATOM     12  S   UNL     1       1.078   8.334  21.327  0.00  0.00    +0.000 S 
ATOM     13  H   UNL     1       2.868   7.327  18.402  0.00  0.00    +0.000 HD
ENDROOT
BRANCH   9  14
ATOM     14  C   UNL     1      -2.192  12.499  21.978  0.00  0.00    +0.000 A 
ATOM     15  C   UNL     1      -2.682  13.727  21.513  0.00  0.00    +0.000 A 
ATOM     16  C   UNL     1      -3.586  14.441  22.286  0.00  0.00    +0.000 A 
ATOM     17  N   UNL     1      -4.045  14.024  23.480  0.00  0.00    +0.000 NA
ATOM     18  C   UNL     1      -3.578  12.840  23.921  0.00  0.00    +0.000 A 
ATOM     19  C   UNL     1      -2.668  12.060  23.221  0.00  0.00    +0.000 A 
ENDBRANCH   9  14
BRANCH   2  20
ATOM     20  C   UNL     1       3.401   4.994  19.222  0.00  0.00    +0.000 C 
ATOM     21  C   UNL     1       2.873   3.757  18.536  0.00  0.00    +0.000 C 
ATOM     22  C   UNL     1       3.435   4.884  17.705  0.00  0.00    +0.000 C 
BRANCH  22  23
ATOM     23  C   UNL     1       4.761   4.716  16.996  0.00  0.00    +0.000 A 
ATOM     24  C   UNL     1       4.824   4.476  15.614  0.00  0.00    +0.000 A 
ATOM     25  C   UNL     1       6.048   4.342  14.949  0.00  0.00    +0.000 A 
ATOM     26  C   UNL     1       7.241   4.451  15.658  0.00  0.00    +0.000 A 
ATOM     27  C   UNL     1       7.206   4.694  17.027  0.00  0.00    +0.000 A 
ATOM     28  C   UNL     1       5.980   4.828  17.685  0.00  0.00    +0.000 A 
ENDBRANCH  22  23
ENDBRANCH   2  20
TORSDOF 3
ENDMDL
