MODEL 1
REMARK VINA RESULT:      -8.1      0.000      0.000
REMARK  Name = 
REMARK  6 active torsions:
REMARK  status: ('A' for Active; 'I' for Inactive)
REMARK    1  A    between atoms: C_1  and  C_2
REMARK    2  A    between atoms: C_2  and  O_3
REMARK    3  A    between atoms: O_3  and  C_4
REMARK    4  A    between atoms: C_4  and  C_6
REMARK    5  A    between atoms: C_9  and  C_10
REMARK    6  A    between atoms: C_13  and  C_14
REMARK                            x       y       z     vdW  Elec       q    Type
REMARK                         _______ _______ _______ _____ _____    ______ ____
ROOT
ATOM      1  C   UNL     1       2.778   6.632  18.535  0.00  0.00    +0.000 A 
ATOM      2  C   UNL     1       2.365   6.284  19.826  0.00  0.00    +0.000 A 
ATOM      3  C   UNL     1       1.638   7.184  20.608  0.00  0.00    +0.000 A 
ATOM      4  C   UNL     1       1.321   8.472  20.147  0.00  0.00    +0.000 A 
ATOM      5  C   UNL     1       1.737   8.807  18.845  0.00  0.00    +0.000 A 
ATOM      6  C   UNL     1       2.452   7.902  18.050  0.00  0.00    +0.000 A 
ENDROOT
BRANCH   4   7
ATOM      7  C   UNL     1       0.595   9.432  21.011  0.00  0.00    +0.000 A 
ATOM      8  C   UNL     1       0.287  10.728  20.554  0.00  0.00    +0.000 A 
ATOM      9  C   UNL     1      -0.390  11.649  21.359  0.00  0.00    +0.000 A 
ATOM     10  C   UNL     1      -0.789  11.288  22.641  0.00  0.00    +0.000 A 
ATOM     11  C   UNL     1      -0.506  10.011  23.118  0.00  0.00    +0.000 A 
ATOM     12  C   UNL     1       0.183   9.096  22.314  0.00  0.00    +0.000 A 
ENDBRANCH   4   7
BRANCH   1  16
ATOM     13  C   UNL     1       5.811   5.372  17.364  0.00  0.00    +0.000 C 
ATOM     14  N   UNL     1       5.482   4.418  18.177  0.00  0.00    +0.000 NA
ATOM     15  O   UNL     1       4.130   4.624  18.516  0.00  0.00    +0.000 OA
ATOM     16  C   UNL     1       3.591   5.676  17.695  0.00  0.00    +0.000 C 
ATOM     17  C   UNL     1       4.770   6.357  17.026  0.00  0.00    +0.000 C 
BRANCH  13  18
ATOM     18  C   UNL     1       7.173   5.470  16.736  0.00  0.00    +0.000 C 
ATOM     19  O   UNL     1       7.787   4.475  16.394  0.00  0.00    +0.000 OA
BRANCH  18  20
ATOM     20  O   UNL     1       7.584   6.751  16.737  0.00  0.00    +0.000 OA
BRANCH  20  22
ATOM     21  C   UNL     1       8.081   8.788  17.878  0.00  0.00    +0.000 C 
ATOM     22  C   UNL     1       7.892   7.287  18.028  0.00  0.00    +0.000 C 
ENDBRANCH  20  22
ENDBRANCH  18  20
ENDBRANCH  13  18
ENDBRANCH   1  16
TORSDOF 5
ENDMDL
MODEL 2
REMARK VINA RESULT:      -8.1      0.241      1.466
REMARK  Name = 
REMARK  6 active torsions:
REMARK  status: ('A' for Active; 'I' for Inactive)
REMARK    1  A    between atoms: C_1  and  C_2
REMARK    2  A    between atoms: C_2  and  O_3
REMARK    3  A    between atoms: O_3  and  C_4
REMARK    4  A    between atoms: C_4  and  C_6
REMARK    5  A    between atoms: C_9  and  C_10
REMARK    6  A    between atoms: C_13  and  C_14
REMARK                            x       y       z     vdW  Elec       q    Type
REMARK                         _______ _______ _______ _____ _____    ______ ____
ROOT
ATOM      1  C   UNL     1       2.758   6.839  18.536  0.00  0.00    +0.000 A 
ATOM      2  C   UNL     1       2.352   8.088  18.056  0.00  0.00    +0.000 A 
ATOM      3  C   UNL     1       1.627   8.963  18.868  0.00  0.00    +0.000 A 
ATOM      4  C   UNL     1       1.256   8.616  20.177  0.00  0.00    +0.000 A 
ATOM      5  C   UNL     1       1.675   7.359  20.650  0.00  0.00    +0.000 A 
ATOM      6  C   UNL     1       2.416   6.484  19.845  0.00  0.00    +0.000 A 
ENDROOT
BRANCH   4   7
ATOM      7  C   UNL     1       0.441   9.536  21.006  0.00  0.00    +0.000 A 
ATOM      8  C   UNL     1       0.096   9.204  22.330  0.00  0.00    +0.000 A 
ATOM      9  C   UNL     1      -0.678  10.056  23.123  0.00  0.00    +0.000 A 
ATOM     10  C   UNL     1      -1.115  11.273  22.611  0.00  0.00    +0.000 A 
ATOM     11  C   UNL     1      -0.784  11.632  21.308  0.00  0.00    +0.000 A 
ATOM     12  C   UNL     1      -0.019  10.771  20.513  0.00  0.00    +0.000 A 
ENDBRANCH   4   7
BRANCH   1  16
ATOM     13  C   UNL     1       5.710   5.544  17.210  0.00  0.00    +0.000 C 
ATOM     14  N   UNL     1       5.413   4.593  18.038  0.00  0.00    +0.000 NA
ATOM     15  O   UNL     1       4.082   4.815  18.447  0.00  0.00    +0.000 OA
ATOM     16  C   UNL     1       3.515   5.875  17.654  0.00  0.00    +0.000 C 
ATOM     17  C   UNL     1       4.666   6.542  16.926  0.00  0.00    +0.000 C 
BRANCH  13  18
ATOM     18  C   UNL     1       7.040   5.626  16.512  0.00  0.00    +0.000 C 
ATOM     19  O   UNL     1       7.569   4.638  16.037  0.00  0.00    +0.000 OA
BRANCH  18  20
ATOM     20  O   UNL     1       7.532   6.874  16.617  0.00  0.00    +0.000 OA
BRANCH  20  22
ATOM     21  C   UNL     1       8.142   8.781  17.917  0.00  0.00    +0.000 C 
ATOM     22  C   UNL     1       7.859   7.288  17.948  0.00  0.00    +0.000 C 
ENDBRANCH  20  22
ENDBRANCH  18  20
ENDBRANCH  13  18
ENDBRANCH   1  16
TORSDOF 5
ENDMDL
MODEL 3
REMARK VINA RESULT:      -8.0      2.943      4.266
REMARK  Name = 
REMARK  6 active torsions:
REMARK  status: ('A' for Active; 'I' for Inactive)
REMARK    1  A    between atoms: C_1  and  C_2
REMARK    2  A    between atoms: C_2  and  O_3
REMARK    3  A    between atoms: O_3  and  C_4
REMARK    4  A    between atoms: C_4  and  C_6
REMARK    5  A    between atoms: C_9  and  C_10
REMARK    6  A    between atoms: C_13  and  C_14
REMARK                            x       y       z     vdW  Elec       q    Type
REMARK                         _______ _______ _______ _____ _____    ______ ____
ROOT
ATOM      1  C   UNL     1       5.055   5.581  17.045  0.00  0.00    +0.000 A 
ATOM      2  C   UNL     1       4.466   5.090  18.215  0.00  0.00    +0.000 A 
ATOM      3  C   UNL     1       3.502   5.837  18.895  0.00  0.00    +0.000 A 
ATOM      4  C   UNL     1       3.110   7.111  18.454  0.00  0.00    +0.000 A 
ATOM      5  C   UNL     1       3.706   7.591  17.272  0.00  0.00    +0.000 A 
ATOM      6  C   UNL     1       4.661   6.838  16.577  0.00  0.00    +0.000 A 
ENDROOT
BRANCH   4   7
ATOM      7  C   UNL     1       2.125   7.911  19.217  0.00  0.00    +0.000 A 
ATOM      8  C   UNL     1       1.520   9.049  18.650  0.00  0.00    +0.000 A 
ATOM      9  C   UNL     1       0.595   9.821  19.360  0.00  0.00    +0.000 A 
ATOM     10  C   UNL     1       0.240   9.461  20.655  0.00  0.00    +0.000 A 
ATOM     11  C   UNL     1       0.815   8.336  21.240  0.00  0.00    +0.000 A 
ATOM     12  C   UNL     1       1.750   7.574  20.531  0.00  0.00    +0.000 A 
ENDBRANCH   4   7
BRANCH   1  16
ATOM     13  C   UNL     1       6.659   4.515  14.139  0.00  0.00    +0.000 C 
ATOM     14  N   UNL     1       7.541   5.358  14.573  0.00  0.00    +0.000 NA
ATOM     15  O   UNL     1       7.187   5.664  15.903  0.00  0.00    +0.000 OA
ATOM     16  C   UNL     1       6.120   4.793  16.321  0.00  0.00    +0.000 C 
ATOM     17  C   UNL     1       5.589   4.120  15.070  0.00  0.00    +0.000 C 
BRANCH  13  18
ATOM     18  C   UNL     1       6.723   3.909  12.764  0.00  0.00    +0.000 C 
ATOM     19  O   UNL     1       7.348   4.441  11.865  0.00  0.00    +0.000 OA
BRANCH  18  20
ATOM     20  O   UNL     1       5.927   2.825  12.708  0.00  0.00    +0.000 OA
BRANCH  20  22
ATOM     21  C   UNL     1       4.053   3.220  11.284  0.00  0.00    +0.000 C 
ATOM     22  C   UNL     1       5.399   2.527  11.411  0.00  0.00    +0.000 C 
ENDBRANCH  20  22
ENDBRANCH  18  20
ENDBRANCH  13  18
ENDBRANCH   1  16
TORSDOF 5
ENDMDL
MODEL 4
REMARK VINA RESULT:      -8.0      2.982      4.454
REMARK  Name = 
REMARK  6 active torsions:
REMARK  status: ('A' for Active; 'I' for Inactive)
REMARK    1  A    between atoms: C_1  and  C_2
REMARK    2  A    between atoms: C_2  and  O_3
REMARK    3  A    between atoms: O_3  and  C_4
REMARK    4  A    between atoms: C_4  and  C_6
REMARK    5  A    between atoms: C_9  and  C_10
REMARK    6  A    between atoms: C_13  and  C_14
REMARK                            x       y       z     vdW  Elec       q    Type
REMARK                         _______ _______ _______ _____ _____    ______ ____
ROOT
ATOM      1  C   UNL     1       5.103   5.566  16.940  0.00  0.00    +0.000 A 
ATOM      2  C   UNL     1       4.469   5.046  18.073  0.00  0.00    +0.000 A 
ATOM      3  C   UNL     1       3.506   5.792  18.756  0.00  0.00    +0.000 A 
ATOM      4  C   UNL     1       3.161   7.093  18.355  0.00  0.00    +0.000 A 
ATOM      5  C   UNL     1       3.802   7.602  17.210  0.00  0.00    +0.000 A 
ATOM      6  C   UNL     1       4.756   6.851  16.512  0.00  0.00    +0.000 A 
ENDROOT
BRANCH   4   7
ATOM      7  C   UNL     1       2.176   7.890  19.123  0.00  0.00    +0.000 A 
ATOM      8  C   UNL     1       1.825   7.534  20.439  0.00  0.00    +0.000 A 
ATOM      9  C   UNL     1       0.891   8.270  21.175  0.00  0.00    +0.000 A 
ATOM     10  C   UNL     1       0.296   9.394  20.614  0.00  0.00    +0.000 A 
ATOM     11  C   UNL     1       0.629   9.776  19.317  0.00  0.00    +0.000 A 
ATOM     12  C   UNL     1       1.554   9.029  18.579  0.00  0.00    +0.000 A 
ENDBRANCH   4   7
BRANCH   1  16
ATOM     13  C   UNL     1       6.689   4.484  14.030  0.00  0.00    +0.000 C 
ATOM     14  N   UNL     1       7.570   5.335  14.450  0.00  0.00    +0.000 NA
ATOM     15  O   UNL     1       7.226   5.652  15.779  0.00  0.00    +0.000 OA
ATOM     16  C   UNL     1       6.167   4.778  16.214  0.00  0.00    +0.000 C 
ATOM     17  C   UNL     1       5.630   4.091  14.973  0.00  0.00    +0.000 C 
BRANCH  13  18
ATOM     18  C   UNL     1       6.746   3.866  12.660  0.00  0.00    +0.000 C 
ATOM     19  O   UNL     1       7.315   4.420  11.738  0.00  0.00    +0.000 OA
BRANCH  18  20
ATOM     20  O   UNL     1       6.008   2.741  12.638  0.00  0.00    +0.000 OA
BRANCH  20  22
ATOM     21  C   UNL     1       4.079   3.271  11.339  0.00  0.00    +0.000 C 
ATOM     22  C   UNL     1       5.363   2.462  11.391  0.00  0.00    +0.000 C 
ENDBRANCH  20  22
ENDBRANCH  18  20
ENDBRANCH  13  18
ENDBRANCH   1  16
TORSDOF 5
ENDMDL
MODEL 5
REMARK VINA RESULT:      -8.0      0.400      1.092
REMARK  Name = 
REMARK  6 active torsions:
REMARK  status: ('A' for Active; 'I' for Inactive)
REMARK    1  A    between atoms: C_1  and  C_2
REMARK    2  A    between atoms: C_2  and  O_3
REMARK    3  A    between atoms: O_3  and  C_4
REMARK    4  A    between atoms: C_4  and  C_6
REMARK    5  A    between atoms: C_9  and  C_10
REMARK    6  A    between atoms: C_13  and  C_14
REMARK                            x       y       z     vdW  Elec       q    Type
REMARK                         _______ _______ _______ _____ _____    ______ ____
ROOT
ATOM      1  C   UNL     1       2.881   6.296  18.901  0.00  0.00    +0.000 A 
ATOM      2  C   UNL     1       2.306   6.002  20.142  0.00  0.00    +0.000 A 
ATOM      3  C   UNL     1       1.529   6.949  20.811  0.00  0.00    +0.000 A 
ATOM      4  C   UNL     1       1.318   8.234  20.283  0.00  0.00    +0.000 A 
ATOM      5  C   UNL     1       1.896   8.516  19.032  0.00  0.00    +0.000 A 
ATOM      6  C   UNL     1       2.663   7.562  18.349  0.00  0.00    +0.000 A 
ENDROOT
BRANCH   4   7
ATOM      7  C   UNL     1       0.535   9.244  21.032  0.00  0.00    +0.000 A 
ATOM      8  C   UNL     1       0.231   9.062  22.394  0.00  0.00    +0.000 A 
ATOM      9  C   UNL     1      -0.515  10.001  23.113  0.00  0.00    +0.000 A 
ATOM     10  C   UNL     1      -0.963  11.158  22.485  0.00  0.00    +0.000 A 
ATOM     11  C   UNL     1      -0.672  11.371  21.141  0.00  0.00    +0.000 A 
ATOM     12  C   UNL     1       0.064  10.422  20.422  0.00  0.00    +0.000 A 
ENDBRANCH   4   7
BRANCH   1  16
ATOM     13  C   UNL     1       5.959   5.172  17.712  0.00  0.00    +0.000 C 
ATOM     14  N   UNL     1       5.814   4.371  18.719  0.00  0.00    +0.000 NA
ATOM     15  O   UNL     1       4.473   4.489  19.139  0.00  0.00    +0.000 OA
ATOM     16  C   UNL     1       3.748   5.288  18.186  0.00  0.00    +0.000 C 
ATOM     17  C   UNL     1       4.780   5.947  17.291  0.00  0.00    +0.000 C 
BRANCH  13  18
ATOM     18  C   UNL     1       7.251   5.293  16.951  0.00  0.00    +0.000 C 
ATOM     19  O   UNL     1       7.889   4.309  16.625  0.00  0.00    +0.000 OA
BRANCH  18  20
ATOM     20  O   UNL     1       7.583   6.591  16.822  0.00  0.00    +0.000 OA
BRANCH  20  22
ATOM     21  C   UNL     1       7.991   8.760  17.730  0.00  0.00    +0.000 C 
ATOM     22  C   UNL     1       7.799   7.287  18.054  0.00  0.00    +0.000 C 
ENDBRANCH  20  22
ENDBRANCH  18  20
ENDBRANCH  13  18
ENDBRANCH   1  16
TORSDOF 5
ENDMDL
MODEL 6
REMARK VINA RESULT:      -8.0      0.924      2.320
REMARK  Name = 
REMARK  6 active torsions:
REMARK  status: ('A' for Active; 'I' for Inactive)
REMARK    1  A    between atoms: C_1  and  C_2
REMARK    2  A    between atoms: C_2  and  O_3
REMARK    3  A    between atoms: O_3  and  C_4
REMARK    4  A    between atoms: C_4  and  C_6
REMARK    5  A    between atoms: C_9  and  C_10
REMARK    6  A    between atoms: C_13  and  C_14
REMARK                            x       y       z     vdW  Elec       q    Type
REMARK                         _______ _______ _______ _____ _____    ______ ____
ROOT
ATOM      1  C   UNL     1       2.734   7.019  18.617  0.00  0.00    +0.000 A 
ATOM      2  C   UNL     1       2.289   8.254  18.135  0.00  0.00    +0.000 A 
ATOM      3  C   UNL     1       1.536   9.106  18.946  0.00  0.00    +0.000 A 
ATOM      4  C   UNL     1       1.172   8.748  20.254  0.00  0.00    +0.000 A 
ATOM      5  C   UNL     1       1.631   7.505  20.729  0.00  0.00    +0.000 A 
ATOM      6  C   UNL     1       2.401   6.654  19.926  0.00  0.00    +0.000 A 
ENDROOT
BRANCH   4   7
ATOM      7  C   UNL     1       0.328   9.641  21.081  0.00  0.00    +0.000 A 
ATOM      8  C   UNL     1      -0.005   9.303  22.406  0.00  0.00    +0.000 A 
ATOM      9  C   UNL     1      -0.808  10.129  23.197  0.00  0.00    +0.000 A 
ATOM     10  C   UNL     1      -1.287  11.329  22.682  0.00  0.00    +0.000 A 
ATOM     11  C   UNL     1      -0.969  11.696  21.378  0.00  0.00    +0.000 A 
ATOM     12  C   UNL     1      -0.175  10.859  20.585  0.00  0.00    +0.000 A 
ENDBRANCH   4   7
BRANCH   1  16
ATOM     13  C   UNL     1       5.732   5.784  17.337  0.00  0.00    +0.000 C 
ATOM     14  N   UNL     1       5.429   4.817  18.142  0.00  0.00    +0.000 NA
ATOM     15  O   UNL     1       4.087   5.014  18.526  0.00  0.00    +0.000 OA
ATOM     16  C   UNL     1       3.523   6.079  17.738  0.00  0.00    +0.000 C 
ATOM     17  C   UNL     1       4.680   6.772  17.045  0.00  0.00    +0.000 C 
BRANCH  13  18
ATOM     18  C   UNL     1       7.075   5.895  16.670  0.00  0.00    +0.000 C 
ATOM     19  O   UNL     1       7.713   6.931  16.698  0.00  0.00    +0.000 OA
BRANCH  18  20
ATOM     20  O   UNL     1       7.345   4.760  15.999  0.00  0.00    +0.000 OA
BRANCH  20  22
ATOM     21  C   UNL     1       5.846   4.070  14.276  0.00  0.00    +0.000 C 
ATOM     22  C   UNL     1       7.129   4.823  14.586  0.00  0.00    +0.000 C 
ENDBRANCH  20  22
ENDBRANCH  18  20
ENDBRANCH  13  18
ENDBRANCH   1  16
TORSDOF 5
ENDMDL
MODEL 7
REMARK VINA RESULT:      -7.9      2.946      4.508
REMARK  Name = 
REMARK  6 active torsions:
REMARK  status: ('A' for Active; 'I' for Inactive)
REMARK    1  A    between atoms: C_1  and  C_2
REMARK    2  A    between atoms: C_2  and  O_3
REMARK    3  A    between atoms: O_3  and  C_4
REMARK    4  A    between atoms: C_4  and  C_6
REMARK    5  A    between atoms: C_9  and  C_10
REMARK    6  A    between atoms: C_13  and  C_14
REMARK                            x       y       z     vdW  Elec       q    Type
REMARK                         _______ _______ _______ _____ _____    ______ ____
ROOT
ATOM      1  C   UNL     1       5.139   5.699  17.076  0.00  0.00    +0.000 A 
ATOM      2  C   UNL     1       4.673   6.900  16.532  0.00  0.00    +0.000 A 
ATOM      3  C   UNL     1       3.717   7.664  17.204  0.00  0.00    +0.000 A 
ATOM      4  C   UNL     1       3.169   7.247  18.428  0.00  0.00    +0.000 A 
ATOM      5  C   UNL     1       3.650   6.040  18.968  0.00  0.00    +0.000 A 
ATOM      6  C   UNL     1       4.622   5.279  18.305  0.00  0.00    +0.000 A 
ENDROOT
BRANCH   4   7
ATOM      7  C   UNL     1       2.117   8.044  19.101  0.00  0.00    +0.000 A 
ATOM      8  C   UNL     1       1.707   7.742  20.414  0.00  0.00    +0.000 A 
ATOM      9  C   UNL     1       0.710   8.477  21.061  0.00  0.00    +0.000 A 
ATOM     10  C   UNL     1       0.107   9.549  20.411  0.00  0.00    +0.000 A 
ATOM     11  C   UNL     1       0.496   9.877  19.116  0.00  0.00    +0.000 A 
ATOM     12  C   UNL     1       1.485   9.130  18.467  0.00  0.00    +0.000 A 
ENDBRANCH   4   7
BRANCH   1  16
ATOM     13  C   UNL     1       6.638   4.533  14.153  0.00  0.00    +0.000 C 
ATOM     14  N   UNL     1       7.570   5.331  14.567  0.00  0.00    +0.000 NA
ATOM     15  O   UNL     1       7.255   5.664  15.900  0.00  0.00    +0.000 OA
ATOM     16  C   UNL     1       6.150   4.852  16.341  0.00  0.00    +0.000 C 
ATOM     17  C   UNL     1       5.565   4.200  15.103  0.00  0.00    +0.000 C 
BRANCH  13  18
ATOM     18  C   UNL     1       6.649   3.915  12.782  0.00  0.00    +0.000 C 
ATOM     19  O   UNL     1       7.281   4.412  11.867  0.00  0.00    +0.000 OA
BRANCH  18  20
ATOM     20  O   UNL     1       5.803   2.869  12.748  0.00  0.00    +0.000 OA
BRANCH  20  22
ATOM     21  C   UNL     1       3.993   3.285  11.249  0.00  0.00    +0.000 C 
ATOM     22  C   UNL     1       5.301   2.537  11.449  0.00  0.00    +0.000 C 
ENDBRANCH  20  22
ENDBRANCH  18  20
ENDBRANCH  13  18
ENDBRANCH   1  16
TORSDOF 5
ENDMDL
MODEL 8
REMARK VINA RESULT:      -7.9      2.298      3.549
REMARK  Name = 
REMARK  6 active torsions:
REMARK  status: ('A' for Active; 'I' for Inactive)
REMARK    1  A    between atoms: C_1  and  C_2
REMARK    2  A    between atoms: C_2  and  O_3
REMARK    3  A    between atoms: O_3  and  C_4
REMARK    4  A    between atoms: C_4  and  C_6
REMARK    5  A    between atoms: C_9  and  C_10
REMARK    6  A    between atoms: C_13  and  C_14
REMARK                            x       y       z     vdW  Elec       q    Type
REMARK                         _______ _______ _______ _____ _____    ______ ____
ROOT
ATOM      1  C   UNL     1       4.194   5.708  18.030  0.00  0.00    +0.000 A 
ATOM      2  C   UNL     1       3.949   6.954  17.444  0.00  0.00    +0.000 A 
ATOM      3  C   UNL     1       3.065   7.858  18.035  0.00  0.00    +0.000 A 
ATOM      4  C   UNL     1       2.370   7.545  19.215  0.00  0.00    +0.000 A 
ATOM      5  C   UNL     1       2.629   6.291  19.798  0.00  0.00    +0.000 A 
ATOM      6  C   UNL     1       3.529   5.386  19.217  0.00  0.00    +0.000 A 
ENDROOT
BRANCH   4   7
ATOM      7  C   UNL     1       1.395   8.496  19.799  0.00  0.00    +0.000 A 
ATOM      8  C   UNL     1       0.952   8.355  21.128  0.00  0.00    +0.000 A 
ATOM      9  C   UNL     1       0.027   9.237  21.692  0.00  0.00    +0.000 A 
ATOM     10  C   UNL     1      -0.469  10.297  20.940  0.00  0.00    +0.000 A 
ATOM     11  C   UNL     1      -0.044  10.468  19.626  0.00  0.00    +0.000 A 
ATOM     12  C   UNL     1       0.873   9.574  19.060  0.00  0.00    +0.000 A 
ENDBRANCH   4   7
BRANCH   1  16
ATOM     13  C   UNL     1       6.430   4.756  15.531  0.00  0.00    +0.000 C 
ATOM     14  N   UNL     1       7.264   4.939  16.505  0.00  0.00    +0.000 NA
ATOM     15  O   UNL     1       6.495   5.041  17.682  0.00  0.00    +0.000 OA
ATOM     16  C   UNL     1       5.126   4.712  17.381  0.00  0.00    +0.000 C 
ATOM     17  C   UNL     1       4.998   4.704  15.870  0.00  0.00    +0.000 C 
BRANCH  13  18
ATOM     18  C   UNL     1       6.875   4.550  14.109  0.00  0.00    +0.000 C 
ATOM     19  O   UNL     1       7.575   5.367  13.539  0.00  0.00    +0.000 OA
BRANCH  18  20
ATOM     20  O   UNL     1       6.299   3.442  13.608  0.00  0.00    +0.000 OA
BRANCH  20  22
ATOM     21  C   UNL     1       4.735   3.359  11.807  0.00  0.00    +0.000 C 
ATOM     22  C   UNL     1       6.208   3.398  12.180  0.00  0.00    +0.000 C 
ENDBRANCH  20  22
ENDBRANCH  18  20
ENDBRANCH  13  18
ENDBRANCH   1  16
TORSDOF 5
ENDMDL
MODEL 9
REMARK VINA RESULT:      -7.9      2.256      3.201
REMARK  Name = 
REMARK  6 active torsions:
REMARK  status: ('A' for Active; 'I' for Inactive)
REMARK    1  A    between atoms: C_1  and  C_2
REMARK    2  A    between atoms: C_2  and  O_3
REMARK    3  A    between atoms: O_3  and  C_4
REMARK    4  A    between atoms: C_4  and  C_6
REMARK    5  A    between atoms: C_9  and  C_10
REMARK    6  A    between atoms: C_13  and  C_14
REMARK                            x       y       z     vdW  Elec       q    Type
REMARK                         _______ _______ _______ _____ _____    ______ ____
ROOT
ATOM      1  C   UNL     1       4.176   5.722  18.090  0.00  0.00    +0.000 A 
ATOM      2  C   UNL     1       3.545   5.409  19.298  0.00  0.00    +0.000 A 
ATOM      3  C   UNL     1       2.624   6.290  19.871  0.00  0.00    +0.000 A 
ATOM      4  C   UNL     1       2.320   7.526  19.277  0.00  0.00    +0.000 A 
ATOM      5  C   UNL     1       2.958   7.826  18.059  0.00  0.00    +0.000 A 
ATOM      6  C   UNL     1       3.869   6.939  17.473  0.00  0.00    +0.000 A 
ENDROOT
BRANCH   4   7
ATOM      7  C   UNL     1       1.381   8.470  19.926  0.00  0.00    +0.000 A 
ATOM      8  C   UNL     1       0.912   9.609  19.244  0.00  0.00    +0.000 A 
ATOM      9  C   UNL     1       0.032  10.515  19.844  0.00  0.00    +0.000 A 
ATOM     10  C   UNL     1      -0.412  10.293  21.142  0.00  0.00    +0.000 A 
ATOM     11  C   UNL     1       0.027   9.172  21.840  0.00  0.00    +0.000 A 
ATOM     12  C   UNL     1       0.918   8.274  21.240  0.00  0.00    +0.000 A 
ENDBRANCH   4   7
BRANCH   1  16
ATOM     13  C   UNL     1       6.539   4.903  15.661  0.00  0.00    +0.000 C 
ATOM     14  N   UNL     1       7.332   5.164  16.651  0.00  0.00    +0.000 NA
ATOM     15  O   UNL     1       6.528   5.226  17.807  0.00  0.00    +0.000 OA
ATOM     16  C   UNL     1       5.196   4.790  17.480  0.00  0.00    +0.000 C 
ATOM     17  C   UNL     1       5.107   4.749  15.967  0.00  0.00    +0.000 C 
BRANCH  13  18
ATOM     18  C   UNL     1       7.033   4.709  14.254  0.00  0.00    +0.000 C 
ATOM     19  O   UNL     1       7.907   5.416  13.786  0.00  0.00    +0.000 OA
BRANCH  18  20
ATOM     20  O   UNL     1       6.299   3.764  13.640  0.00  0.00    +0.000 OA
BRANCH  20  22
ATOM     21  C   UNL     1       5.682   2.489  11.719  0.00  0.00    +0.000 C 
ATOM     22  C   UNL     1       6.481   3.679  12.223  0.00  0.00    +0.000 C 
ENDBRANCH  20  22
ENDBRANCH  18  20
ENDBRANCH  13  18
ENDBRANCH   1  16
TORSDOF 5
ENDMDL
