MODEL 1
REMARK VINA RESULT:      -6.9      0.000      0.000
REMARK  Name = 
REMARK  6 active torsions:
REMARK  status: ('A' for Active; 'I' for Inactive)
REMARK    1  A    between atoms: C_1  and  C_2
REMARK    2  A    between atoms: C_2  and  N_3
REMARK    3  A    between atoms: C_2  and  C_28
REMARK    4  A    between atoms: C_8  and  N_9
REMARK    5  A    between atoms: C_13  and  C_14
REMARK    6  A    between atoms: C_20  and  C_21
REMARK                            x       y       z     vdW  Elec       q    Type
REMARK                         _______ _______ _______ _____ _____    ______ ____
ROOT
ATOM      1  N   UNL     1      -5.574  11.728  19.021  0.00  0.00    +0.000 N 
ATOM      2  C   UNL     1      -6.558  10.842  19.381  0.00  0.00    +0.000 C 
ATOM      3  O   UNL     1      -6.660   9.666  19.069  0.00  0.00    +0.000 OA
ATOM      4  O   UNL     1      -7.496  11.470  20.142  0.00  0.00    +0.000 OA
ATOM      5  C   UNL     1      -7.214  12.884  20.198  0.00  0.00    +0.000 C 
ATOM      6  C   UNL     1      -5.803  13.027  19.579  0.00  0.00    +0.000 C 
ENDROOT
BRANCH   1  12
ATOM      7  N   UNL     1      -1.012  11.373  17.912  0.00  0.00    +0.000 N 
ATOM      8  C   UNL     1      -2.345  11.301  17.579  0.00  0.00    +0.000 A 
ATOM      9  N   UNL     1      -2.585  11.215  16.263  0.00  0.00    +0.000 NA
ATOM     10  C   UNL     1      -3.869  11.173  15.878  0.00  0.00    +0.000 A 
ATOM     11  C   UNL     1      -4.912  11.339  16.746  0.00  0.00    +0.000 A 
ATOM     12  C   UNL     1      -4.575  11.460  18.074  0.00  0.00    +0.000 A 
ATOM     13  N   UNL     1      -3.305  11.346  18.514  0.00  0.00    +0.000 NA
ATOM     14  H   UNL     1      -0.534  11.964  17.245  0.00  0.00    +0.000 HD
BRANCH   7  16
ATOM     15  C   UNL     1       0.518  10.324  19.436  0.00  0.00    +0.000 C 
ATOM     16  C   UNL     1      -0.572  11.389  19.286  0.00  0.00    +0.000 C 
BRANCH  16  17
ATOM     17  C   UNL     1      -0.076  12.752  19.743  0.00  0.00    +0.000 A 
ATOM     18  C   UNL     1       0.716  12.839  20.904  0.00  0.00    +0.000 A 
ATOM     19  C   UNL     1       1.217  14.063  21.343  0.00  0.00    +0.000 A 
ATOM     20  C   UNL     1       0.938  15.223  20.630  0.00  0.00    +0.000 A 
ATOM     21  C   UNL     1       0.159  15.159  19.476  0.00  0.00    +0.000 A 
ATOM     22  C   UNL     1      -0.346  13.932  19.033  0.00  0.00    +0.000 A 
ENDBRANCH  16  17
ENDBRANCH   7  16
ENDBRANCH   1  12
BRANCH   5  23
ATOM     23  C   UNL     1      -7.481  13.408  21.601  0.00  0.00    +0.000 A 
ATOM     24  C   UNL     1      -7.473  12.549  22.715  0.00  0.00    +0.000 A 
ATOM     25  C   UNL     1      -7.661  13.039  24.008  0.00  0.00    +0.000 A 
ATOM     26  C   UNL     1      -7.872  14.398  24.211  0.00  0.00    +0.000 A 
ATOM     27  C   UNL     1      -7.917  15.262  23.119  0.00  0.00    +0.000 A 
ATOM     28  C   UNL     1      -7.740  14.770  21.823  0.00  0.00    +0.000 A 
ENDBRANCH   5  23
BRANCH   6  29
ATOM     29  C   UNL     1      -4.679  13.414  20.535  0.00  0.00    +0.000 A 
ATOM     30  C   UNL     1      -4.134  14.710  20.551  0.00  0.00    +0.000 A 
ATOM     31  C   UNL     1      -3.029  15.007  21.349  0.00  0.00    +0.000 A 
ATOM     32  C   UNL     1      -2.466  14.023  22.158  0.00  0.00    +0.000 A 
ATOM     33  C   UNL     1      -3.029  12.750  22.196  0.00  0.00    +0.000 A 
ATOM     34  C   UNL     1      -4.130  12.446  21.392  0.00  0.00    +0.000 A 
ENDBRANCH   6  29
TORSDOF 5
ENDMDL
MODEL 2
REMARK VINA RESULT:      -6.5      0.525      1.192
REMARK  Name = 
REMARK  6 active torsions:
REMARK  status: ('A' for Active; 'I' for Inactive)
REMARK    1  A    between atoms: C_1  and  C_2
REMARK    2  A    between atoms: C_2  and  N_3
REMARK    3  A    between atoms: C_2  and  C_28
REMARK    4  A    between atoms: C_8  and  N_9
REMARK    5  A    between atoms: C_13  and  C_14
REMARK    6  A    between atoms: C_20  and  C_21
REMARK                            x       y       z     vdW  Elec       q    Type
REMARK                         _______ _______ _______ _____ _____    ______ ____
ROOT
ATOM      1  N   UNL     1      -5.539  11.782  19.034  0.00  0.00    +0.000 N 
ATOM      2  C   UNL     1      -6.530  10.898  19.380  0.00  0.00    +0.000 C 
ATOM      3  O   UNL     1      -6.631   9.723  19.064  0.00  0.00    +0.000 OA
ATOM      4  O   UNL     1      -7.476  11.527  20.129  0.00  0.00    +0.000 OA
ATOM      5  C   UNL     1      -7.191  12.941  20.192  0.00  0.00    +0.000 C 
ATOM      6  C   UNL     1      -5.772  13.081  19.592  0.00  0.00    +0.000 C 
ENDROOT
BRANCH   1  12
ATOM      7  N   UNL     1      -0.964  11.527  17.954  0.00  0.00    +0.000 N 
ATOM      8  C   UNL     1      -2.292  11.404  17.619  0.00  0.00    +0.000 A 
ATOM      9  N   UNL     1      -2.524  11.269  16.306  0.00  0.00    +0.000 NA
ATOM     10  C   UNL     1      -3.805  11.176  15.917  0.00  0.00    +0.000 A 
ATOM     11  C   UNL     1      -4.856  11.340  16.775  0.00  0.00    +0.000 A 
ATOM     12  C   UNL     1      -4.528  11.513  18.101  0.00  0.00    +0.000 A 
ATOM     13  N   UNL     1      -3.257  11.451  18.548  0.00  0.00    +0.000 NA
ATOM     14  H   UNL     1      -0.500  12.109  17.269  0.00  0.00    +0.000 HD
BRANCH   7  16
ATOM     15  C   UNL     1       0.181  10.285  19.661  0.00  0.00    +0.000 C 
ATOM     16  C   UNL     1      -0.530  11.599  19.329  0.00  0.00    +0.000 C 
BRANCH  16  17
ATOM     17  C   UNL     1       0.364  12.797  19.614  0.00  0.00    +0.000 A 
ATOM     18  C   UNL     1      -0.222  14.067  19.765  0.00  0.00    +0.000 A 
ATOM     19  C   UNL     1       0.555  15.187  20.058  0.00  0.00    +0.000 A 
ATOM     20  C   UNL     1       1.931  15.058  20.206  0.00  0.00    +0.000 A 
ATOM     21  C   UNL     1       2.530  13.807  20.065  0.00  0.00    +0.000 A 
ATOM     22  C   UNL     1       1.754  12.682  19.771  0.00  0.00    +0.000 A 
ENDBRANCH  16  17
ENDBRANCH   7  16
ENDBRANCH   1  12
BRANCH   5  23
ATOM     23  C   UNL     1      -7.476  13.462  21.592  0.00  0.00    +0.000 A 
ATOM     24  C   UNL     1      -7.496  12.600  22.703  0.00  0.00    +0.000 A 
ATOM     25  C   UNL     1      -7.700  13.087  23.995  0.00  0.00    +0.000 A 
ATOM     26  C   UNL     1      -7.898  14.448  24.199  0.00  0.00    +0.000 A 
ATOM     27  C   UNL     1      -7.915  15.316  23.109  0.00  0.00    +0.000 A 
ATOM     28  C   UNL     1      -7.722  14.827  21.814  0.00  0.00    +0.000 A 
ENDBRANCH   5  23
BRANCH   6  29
ATOM     29  C   UNL     1      -4.660  13.464  20.563  0.00  0.00    +0.000 A 
ATOM     30  C   UNL     1      -4.128  12.541  21.480  0.00  0.00    +0.000 A 
ATOM     31  C   UNL     1      -3.197  12.945  22.437  0.00  0.00    +0.000 A 
ATOM     32  C   UNL     1      -2.765  14.269  22.476  0.00  0.00    +0.000 A 
ATOM     33  C   UNL     1      -3.239  15.182  21.538  0.00  0.00    +0.000 A 
ATOM     34  C   UNL     1      -4.178  14.783  20.585  0.00  0.00    +0.000 A 
ENDBRANCH   6  29
TORSDOF 5
ENDMDL
MODEL 3
REMARK VINA RESULT:      -6.4      3.267      5.537
REMARK  Name = 
REMARK  6 active torsions:
REMARK  status: ('A' for Active; 'I' for Inactive)
REMARK    1  A    between atoms: C_1  and  C_2
REMARK    2  A    between atoms: C_2  and  N_3
REMARK    3  A    between atoms: C_2  and  C_28
REMARK    4  A    between atoms: C_8  and  N_9
REMARK    5  A    between atoms: C_13  and  C_14
REMARK    6  A    between atoms: C_20  and  C_21
REMARK                            x       y       z     vdW  Elec       q    Type
REMARK                         _______ _______ _______ _____ _____    ______ ____
ROOT
ATOM      1  N   UNL     1      -0.963  12.787  22.767  0.00  0.00    +0.000 N 
ATOM      2  C   UNL     1      -0.132  13.830  22.442  0.00  0.00    +0.000 C 
ATOM      3  O   UNL     1       0.877  13.800  21.756  0.00  0.00    +0.000 OA
ATOM      4  O   UNL     1      -0.561  14.973  23.044  0.00  0.00    +0.000 OA
ATOM      5  C   UNL     1      -1.661  14.677  23.931  0.00  0.00    +0.000 C 
ATOM      6  C   UNL     1      -2.045  13.214  23.603  0.00  0.00    +0.000 C 
ENDROOT
BRANCH   1  12
ATOM      7  N   UNL     1      -0.372   9.331  19.625  0.00  0.00    +0.000 N 
ATOM      8  C   UNL     1      -0.414   9.791  20.920  0.00  0.00    +0.000 A 
ATOM      9  N   UNL     1      -0.434   8.827  21.852  0.00  0.00    +0.000 NA
ATOM     10  C   UNL     1      -0.507   9.216  23.134  0.00  0.00    +0.000 A 
ATOM     11  C   UNL     1      -0.685  10.519  23.506  0.00  0.00    +0.000 A 
ATOM     12  C   UNL     1      -0.692  11.441  22.484  0.00  0.00    +0.000 A 
ATOM     13  N   UNL     1      -0.462  11.101  21.199  0.00  0.00    +0.000 NA
ATOM     14  H   UNL     1      -0.973   8.522  19.540  0.00  0.00    +0.000 HD
BRANCH   7  16
ATOM     15  C   UNL     1       0.823   9.686  17.573  0.00  0.00    +0.000 C 
ATOM     16  C   UNL     1      -0.264  10.232  18.502  0.00  0.00    +0.000 C 
BRANCH  16  17
ATOM     17  C   UNL     1      -1.577  10.426  17.759  0.00  0.00    +0.000 A 
ATOM     18  C   UNL     1      -2.520  11.340  18.264  0.00  0.00    +0.000 A 
ATOM     19  C   UNL     1      -3.723  11.573  17.599  0.00  0.00    +0.000 A 
ATOM     20  C   UNL     1      -4.006  10.898  16.418  0.00  0.00    +0.000 A 
ATOM     21  C   UNL     1      -3.083   9.991  15.899  0.00  0.00    +0.000 A 
ATOM     22  C   UNL     1      -1.875   9.754  16.564  0.00  0.00    +0.000 A 
ENDBRANCH  16  17
ENDBRANCH   7  16
ENDBRANCH   1  12
BRANCH   5  23
ATOM     23  C   UNL     1      -2.709  15.774  23.836  0.00  0.00    +0.000 A 
ATOM     24  C   UNL     1      -2.874  16.527  22.659  0.00  0.00    +0.000 A 
ATOM     25  C   UNL     1      -3.874  17.495  22.553  0.00  0.00    +0.000 A 
ATOM     26  C   UNL     1      -4.723  17.736  23.626  0.00  0.00    +0.000 A 
ATOM     27  C   UNL     1      -4.557  17.024  24.813  0.00  0.00    +0.000 A 
ATOM     28  C   UNL     1      -3.548  16.064  24.924  0.00  0.00    +0.000 A 
ENDBRANCH   5  23
BRANCH   6  29
ATOM     29  C   UNL     1      -3.386  13.005  22.906  0.00  0.00    +0.000 A 
ATOM     30  C   UNL     1      -3.505  13.036  21.506  0.00  0.00    +0.000 A 
ATOM     31  C   UNL     1      -4.758  12.961  20.897  0.00  0.00    +0.000 A 
ATOM     32  C   UNL     1      -5.906  12.831  21.674  0.00  0.00    +0.000 A 
ATOM     33  C   UNL     1      -5.800  12.741  23.059  0.00  0.00    +0.000 A 
ATOM     34  C   UNL     1      -4.549  12.825  23.674  0.00  0.00    +0.000 A 
ENDBRANCH   6  29
TORSDOF 5
ENDMDL
MODEL 4
REMARK VINA RESULT:      -6.2      8.024     13.058
REMARK  Name = 
REMARK  6 active torsions:
REMARK  status: ('A' for Active; 'I' for Inactive)
REMARK    1  A    between atoms: C_1  and  C_2
REMARK    2  A    between atoms: C_2  and  N_3
REMARK    3  A    between atoms: C_2  and  C_28
REMARK    4  A    between atoms: C_8  and  N_9
REMARK    5  A    between atoms: C_13  and  C_14
REMARK    6  A    between atoms: C_20  and  C_21
REMARK                            x       y       z     vdW  Elec       q    Type
REMARK                         _______ _______ _______ _____ _____    ______ ____
ROOT
ATOM      1  N   UNL     1       7.630  13.659  22.549  0.00  0.00    +0.000 N 
ATOM      2  C   UNL     1       7.525  12.301  22.712  0.00  0.00    +0.000 C 
ATOM      3  O   UNL     1       6.626  11.676  23.251  0.00  0.00    +0.000 OA
ATOM      4  O   UNL     1       8.631  11.685  22.210  0.00  0.00    +0.000 OA
ATOM      5  C   UNL     1       9.600  12.674  21.802  0.00  0.00    +0.000 C 
ATOM      6  C   UNL     1       8.839  14.019  21.872  0.00  0.00    +0.000 C 
ENDROOT
BRANCH   1  12
ATOM      7  N   UNL     1       3.459  15.841  22.648  0.00  0.00    +0.000 N 
ATOM      8  C   UNL     1       4.724  15.632  23.145  0.00  0.00    +0.000 A 
ATOM      9  N   UNL     1       5.131  16.550  24.033  0.00  0.00    +0.000 NA
ATOM     10  C   UNL     1       6.370  16.414  24.528  0.00  0.00    +0.000 A 
ATOM     11  C   UNL     1       7.254  15.474  24.076  0.00  0.00    +0.000 A 
ATOM     12  C   UNL     1       6.766  14.595  23.136  0.00  0.00    +0.000 A 
ATOM     13  N   UNL     1       5.479  14.603  22.734  0.00  0.00    +0.000 NA
ATOM     14  H   UNL     1       3.323  16.831  22.489  0.00  0.00    +0.000 HD
BRANCH   7  16
ATOM     15  C   UNL     1       1.323  14.969  21.984  0.00  0.00    +0.000 C 
ATOM     16  C   UNL     1       2.833  14.906  21.744  0.00  0.00    +0.000 C 
BRANCH  16  17
ATOM     17  C   UNL     1       3.170  15.164  20.283  0.00  0.00    +0.000 A 
ATOM     18  C   UNL     1       3.071  14.105  19.361  0.00  0.00    +0.000 A 
ATOM     19  C   UNL     1       3.340  14.303  18.008  0.00  0.00    +0.000 A 
ATOM     20  C   UNL     1       3.711  15.562  17.550  0.00  0.00    +0.000 A 
ATOM     21  C   UNL     1       3.811  16.624  18.447  0.00  0.00    +0.000 A 
ATOM     22  C   UNL     1       3.543  16.429  19.806  0.00  0.00    +0.000 A 
ENDBRANCH  16  17
ENDBRANCH   7  16
ENDBRANCH   1  12
BRANCH   5  23
ATOM     23  C   UNL     1      10.259  12.243  20.501  0.00  0.00    +0.000 A 
ATOM     24  C   UNL     1       9.594  11.405  19.588  0.00  0.00    +0.000 A 
ATOM     25  C   UNL     1      10.177  11.056  18.368  0.00  0.00    +0.000 A 
ATOM     26  C   UNL     1      11.440  11.534  18.041  0.00  0.00    +0.000 A 
ATOM     27  C   UNL     1      12.131  12.339  18.945  0.00  0.00    +0.000 A 
ATOM     28  C   UNL     1      11.553  12.678  20.172  0.00  0.00    +0.000 A 
ENDBRANCH   5  23
BRANCH   6  29
ATOM     29  C   UNL     1       8.535  14.696  20.539  0.00  0.00    +0.000 A 
ATOM     30  C   UNL     1       9.302  15.775  20.065  0.00  0.00    +0.000 A 
ATOM     31  C   UNL     1       8.933  16.453  18.903  0.00  0.00    +0.000 A 
ATOM     32  C   UNL     1       7.809  16.051  18.186  0.00  0.00    +0.000 A 
ATOM     33  C   UNL     1       7.072  14.949  18.611  0.00  0.00    +0.000 A 
ATOM     34  C   UNL     1       7.432  14.273  19.779  0.00  0.00    +0.000 A 
ENDBRANCH   6  29
TORSDOF 5
ENDMDL
MODEL 5
REMARK VINA RESULT:      -6.2      7.989     13.045
REMARK  Name = 
REMARK  6 active torsions:
REMARK  status: ('A' for Active; 'I' for Inactive)
REMARK    1  A    between atoms: C_1  and  C_2
REMARK    2  A    between atoms: C_2  and  N_3
REMARK    3  A    between atoms: C_2  and  C_28
REMARK    4  A    between atoms: C_8  and  N_9
REMARK    5  A    between atoms: C_13  and  C_14
REMARK    6  A    between atoms: C_20  and  C_21
REMARK                            x       y       z     vdW  Elec       q    Type
REMARK                         _______ _______ _______ _____ _____    ______ ____
ROOT
ATOM      1  N   UNL     1       7.566  13.746  22.513  0.00  0.00    +0.000 N 
ATOM      2  C   UNL     1       7.532  12.384  22.682  0.00  0.00    +0.000 C 
ATOM      3  O   UNL     1       6.674  11.717  23.237  0.00  0.00    +0.000 OA
ATOM      4  O   UNL     1       8.660  11.823  22.164  0.00  0.00    +0.000 OA
ATOM      5  C   UNL     1       9.571  12.857  21.738  0.00  0.00    +0.000 C 
ATOM      6  C   UNL     1       8.745  14.164  21.816  0.00  0.00    +0.000 C 
ENDROOT
BRANCH   1  12
ATOM      7  N   UNL     1       3.322  15.781  22.618  0.00  0.00    +0.000 N 
ATOM      8  C   UNL     1       4.589  15.606  23.122  0.00  0.00    +0.000 A 
ATOM      9  N   UNL     1       4.957  16.519  24.032  0.00  0.00    +0.000 NA
ATOM     10  C   UNL     1       6.196  16.415  24.536  0.00  0.00    +0.000 A 
ATOM     11  C   UNL     1       7.115  15.515  24.073  0.00  0.00    +0.000 A 
ATOM     12  C   UNL     1       6.666  14.639  23.111  0.00  0.00    +0.000 A 
ATOM     13  N   UNL     1       5.382  14.612  22.697  0.00  0.00    +0.000 NA
ATOM     14  H   UNL     1       3.153  16.769  22.478  0.00  0.00    +0.000 HD
BRANCH   7  16
ATOM     15  C   UNL     1       1.222  14.858  21.910  0.00  0.00    +0.000 C 
ATOM     16  C   UNL     1       2.736  14.844  21.690  0.00  0.00    +0.000 C 
BRANCH  16  17
ATOM     17  C   UNL     1       3.084  15.137  20.238  0.00  0.00    +0.000 A 
ATOM     18  C   UNL     1       3.053  14.087  19.301  0.00  0.00    +0.000 A 
ATOM     19  C   UNL     1       3.335  14.316  17.956  0.00  0.00    +0.000 A 
ATOM     20  C   UNL     1       3.652  15.597  17.520  0.00  0.00    +0.000 A 
ATOM     21  C   UNL     1       3.684  16.651  18.431  0.00  0.00    +0.000 A 
ATOM     22  C   UNL     1       3.403  16.426  19.783  0.00  0.00    +0.000 A 
ENDBRANCH  16  17
ENDBRANCH   7  16
ENDBRANCH   1  12
BRANCH   5  23
ATOM     23  C   UNL     1      10.231  12.456  20.428  0.00  0.00    +0.000 A 
ATOM     24  C   UNL     1      11.505  12.936  20.075  0.00  0.00    +0.000 A 
ATOM     25  C   UNL     1      12.135  12.522  18.900  0.00  0.00    +0.000 A 
ATOM     26  C   UNL     1      11.497  11.627  18.050  0.00  0.00    +0.000 A 
ATOM     27  C   UNL     1      10.221  11.163  18.364  0.00  0.00    +0.000 A 
ATOM     28  C   UNL     1       9.585  11.587  19.534  0.00  0.00    +0.000 A 
ENDBRANCH   5  23
BRANCH   6  29
ATOM     29  C   UNL     1       8.387  14.820  20.486  0.00  0.00    +0.000 A 
ATOM     30  C   UNL     1       7.295  14.384  19.717  0.00  0.00    +0.000 A 
ATOM     31  C   UNL     1       7.058  14.920  18.451  0.00  0.00    +0.000 A 
ATOM     32  C   UNL     1       7.894  15.913  17.945  0.00  0.00    +0.000 A 
ATOM     33  C   UNL     1       8.946  16.395  18.718  0.00  0.00    +0.000 A 
ATOM     34  C   UNL     1       9.191  15.855  19.982  0.00  0.00    +0.000 A 
ENDBRANCH   6  29
TORSDOF 5
ENDMDL
MODEL 6
REMARK VINA RESULT:      -6.2      2.984      7.846
REMARK  Name = 
REMARK  6 active torsions:
REMARK  status: ('A' for Active; 'I' for Inactive)
REMARK    1  A    between atoms: C_1  and  C_2
REMARK    2  A    between atoms: C_2  and  N_3
REMARK    3  A    between atoms: C_2  and  C_28
REMARK    4  A    between atoms: C_8  and  N_9
REMARK    5  A    between atoms: C_13  and  C_14
REMARK    6  A    between atoms: C_20  and  C_21
REMARK                            x       y       z     vdW  Elec       q    Type
REMARK                         _______ _______ _______ _____ _____    ______ ____
ROOT
ATOM      1  N   UNL     1      -0.770  11.708  21.873  0.00  0.00    +0.000 N 
ATOM      2  C   UNL     1      -0.399  10.688  22.712  0.00  0.00    +0.000 C 
ATOM      3  O   UNL     1      -0.873  10.399  23.799  0.00  0.00    +0.000 OA
ATOM      4  O   UNL     1       0.658  10.011  22.184  0.00  0.00    +0.000 OA
ATOM      5  C   UNL     1       1.119  10.677  20.990  0.00  0.00    +0.000 C 
ATOM      6  C   UNL     1       0.030  11.734  20.685  0.00  0.00    +0.000 C 
ENDROOT
BRANCH   1  12
ATOM      7  N   UNL     1      -5.082  13.569  21.545  0.00  0.00    +0.000 N 
ATOM      8  C   UNL     1      -3.792  13.588  22.022  0.00  0.00    +0.000 A 
ATOM      9  N   UNL     1      -3.428  14.744  22.594  0.00  0.00    +0.000 NA
ATOM     10  C   UNL     1      -2.169  14.831  23.049  0.00  0.00    +0.000 A 
ATOM     11  C   UNL     1      -1.234  13.856  22.841  0.00  0.00    +0.000 A 
ATOM     12  C   UNL     1      -1.682  12.718  22.211  0.00  0.00    +0.000 A 
ATOM     13  N   UNL     1      -2.977  12.532  21.883  0.00  0.00    +0.000 NA
ATOM     14  H   UNL     1      -5.293  14.462  21.120  0.00  0.00    +0.000 HD
BRANCH   7  16
ATOM     15  C   UNL     1      -6.859  11.981  21.843  0.00  0.00    +0.000 C 
ATOM     16  C   UNL     1      -5.664  12.379  20.973  0.00  0.00    +0.000 C 
BRANCH  16  17
ATOM     17  C   UNL     1      -6.075  12.550  19.518  0.00  0.00    +0.000 A 
ATOM     18  C   UNL     1      -7.267  13.237  19.221  0.00  0.00    +0.000 A 
ATOM     19  C   UNL     1      -7.667  13.444  17.902  0.00  0.00    +0.000 A 
ATOM     20  C   UNL     1      -6.885  12.970  16.856  0.00  0.00    +0.000 A 
ATOM     21  C   UNL     1      -5.699  12.290  17.129  0.00  0.00    +0.000 A 
ATOM     22  C   UNL     1      -5.294  12.080  18.452  0.00  0.00    +0.000 A 
ENDBRANCH  16  17
ENDBRANCH   7  16
ENDBRANCH   1  12
BRANCH   5  23
ATOM     23  C   UNL     1       1.490   9.647  19.934  0.00  0.00    +0.000 A 
ATOM     24  C   UNL     1       1.614   8.283  20.257  0.00  0.00    +0.000 A 
ATOM     25  C   UNL     1       1.899   7.330  19.278  0.00  0.00    +0.000 A 
ATOM     26  C   UNL     1       2.073   7.724  17.957  0.00  0.00    +0.000 A 
ATOM     27  C   UNL     1       1.987   9.074  17.620  0.00  0.00    +0.000 A 
ATOM     28  C   UNL     1       1.714  10.030  18.602  0.00  0.00    +0.000 A 
ENDBRANCH   5  23
BRANCH   6  29
ATOM     29  C   UNL     1      -0.827  11.487  19.448  0.00  0.00    +0.000 A 
ATOM     30  C   UNL     1      -1.549  10.294  19.273  0.00  0.00    +0.000 A 
ATOM     31  C   UNL     1      -2.229  10.042  18.081  0.00  0.00    +0.000 A 
ATOM     32  C   UNL     1      -2.217  10.986  17.057  0.00  0.00    +0.000 A 
ATOM     33  C   UNL     1      -1.554  12.197  17.236  0.00  0.00    +0.000 A 
ATOM     34  C   UNL     1      -0.865  12.449  18.425  0.00  0.00    +0.000 A 
ENDBRANCH   6  29
TORSDOF 5
ENDMDL
MODEL 7
REMARK VINA RESULT:      -6.1      2.750      5.537
REMARK  Name = 
REMARK  6 active torsions:
REMARK  status: ('A' for Active; 'I' for Inactive)
REMARK    1  A    between atoms: C_1  and  C_2
REMARK    2  A    between atoms: C_2  and  N_3
REMARK    3  A    between atoms: C_2  and  C_28
REMARK    4  A    between atoms: C_8  and  N_9
REMARK    5  A    between atoms: C_13  and  C_14
REMARK    6  A    between atoms: C_20  and  C_21
REMARK                            x       y       z     vdW  Elec       q    Type
REMARK                         _______ _______ _______ _____ _____    ______ ____
ROOT
ATOM      1  N   UNL     1      -0.851  13.556  20.511  0.00  0.00    +0.000 N 
ATOM      2  C   UNL     1      -0.344  14.739  20.036  0.00  0.00    +0.000 C 
ATOM      3  O   UNL     1       0.201  14.947  18.964  0.00  0.00    +0.000 OA
ATOM      4  O   UNL     1      -0.486  15.716  20.974  0.00  0.00    +0.000 OA
ATOM      5  C   UNL     1      -0.995  15.149  22.200  0.00  0.00    +0.000 C 
ATOM      6  C   UNL     1      -1.409  13.706  21.821  0.00  0.00    +0.000 C 
ENDROOT
BRANCH   1  12
ATOM      7  N   UNL     1      -2.261  10.365  17.349  0.00  0.00    +0.000 N 
ATOM      8  C   UNL     1      -1.401  10.789  18.335  0.00  0.00    +0.000 A 
ATOM      9  N   UNL     1      -0.581   9.839  18.804  0.00  0.00    +0.000 NA
ATOM     10  C   UNL     1       0.259  10.188  19.790  0.00  0.00    +0.000 A 
ATOM     11  C   UNL     1       0.220  11.409  20.403  0.00  0.00    +0.000 A 
ATOM     12  C   UNL     1      -0.678  12.313  19.884  0.00  0.00    +0.000 A 
ATOM     13  N   UNL     1      -1.425  12.049  18.792  0.00  0.00    +0.000 NA
ATOM     14  H   UNL     1      -2.596   9.438  17.576  0.00  0.00    +0.000 HD
BRANCH   7  16
ATOM     15  C   UNL     1      -3.224  10.858  15.205  0.00  0.00    +0.000 C 
ATOM     16  C   UNL     1      -3.155  11.276  16.676  0.00  0.00    +0.000 C 
BRANCH  16  17
ATOM     17  C   UNL     1      -4.542  11.327  17.299  0.00  0.00    +0.000 A 
ATOM     18  C   UNL     1      -4.899  10.358  18.255  0.00  0.00    +0.000 A 
ATOM     19  C   UNL     1      -6.148  10.384  18.874  0.00  0.00    +0.000 A 
ATOM     20  C   UNL     1      -7.063  11.379  18.550  0.00  0.00    +0.000 A 
ATOM     21  C   UNL     1      -6.727  12.351  17.609  0.00  0.00    +0.000 A 
ATOM     22  C   UNL     1      -5.475  12.327  16.985  0.00  0.00    +0.000 A 
ENDBRANCH  16  17
ENDBRANCH   7  16
ENDBRANCH   1  12
BRANCH   5  23
ATOM     23  C   UNL     1      -2.015  16.091  22.820  0.00  0.00    +0.000 A 
ATOM     24  C   UNL     1      -2.186  16.166  24.215  0.00  0.00    +0.000 A 
ATOM     25  C   UNL     1      -3.081  17.071  24.786  0.00  0.00    +0.000 A 
ATOM     26  C   UNL     1      -3.830  17.914  23.973  0.00  0.00    +0.000 A 
ATOM     27  C   UNL     1      -3.700  17.834  22.588  0.00  0.00    +0.000 A 
ATOM     28  C   UNL     1      -2.812  16.919  22.015  0.00  0.00    +0.000 A 
ENDBRANCH   5  23
BRANCH   6  29
ATOM     29  C   UNL     1      -2.905  13.410  21.813  0.00  0.00    +0.000 A 
ATOM     30  C   UNL     1      -3.706  13.678  20.690  0.00  0.00    +0.000 A 
ATOM     31  C   UNL     1      -5.090  13.510  20.748  0.00  0.00    +0.000 A 
ATOM     32  C   UNL     1      -5.690  13.051  21.917  0.00  0.00    +0.000 A 
ATOM     33  C   UNL     1      -4.905  12.726  23.020  0.00  0.00    +0.000 A 
ATOM     34  C   UNL     1      -3.520  12.902  22.969  0.00  0.00    +0.000 A 
ENDBRANCH   6  29
TORSDOF 5
ENDMDL
MODEL 8
REMARK VINA RESULT:      -6.1      3.004      6.056
REMARK  Name = 
REMARK  6 active torsions:
REMARK  status: ('A' for Active; 'I' for Inactive)
REMARK    1  A    between atoms: C_1  and  C_2
REMARK    2  A    between atoms: C_2  and  N_3
REMARK    3  A    between atoms: C_2  and  C_28
REMARK    4  A    between atoms: C_8  and  N_9
REMARK    5  A    between atoms: C_13  and  C_14
REMARK    6  A    between atoms: C_20  and  C_21
REMARK                            x       y       z     vdW  Elec       q    Type
REMARK                         _______ _______ _______ _____ _____    ______ ____
ROOT
ATOM      1  N   UNL     1      -0.222  13.689  20.658  0.00  0.00    +0.000 N 
ATOM      2  C   UNL     1       0.155  14.879  20.088  0.00  0.00    +0.000 C 
ATOM      3  O   UNL     1       0.385  15.109  18.912  0.00  0.00    +0.000 OA
ATOM      4  O   UNL     1       0.297  15.832  21.050  0.00  0.00    +0.000 OA
ATOM      5  C   UNL     1       0.139  15.238  22.355  0.00  0.00    +0.000 C 
ATOM      6  C   UNL     1      -0.391  13.811  22.075  0.00  0.00    +0.000 C 
ENDROOT
BRANCH   1  12
ATOM      7  N   UNL     1      -2.526  10.588  17.967  0.00  0.00    +0.000 N 
ATOM      8  C   UNL     1      -1.413  10.982  18.672  0.00  0.00    +0.000 A 
ATOM      9  N   UNL     1      -0.504  10.015  18.863  0.00  0.00    +0.000 NA
ATOM     10  C   UNL     1       0.589  10.334  19.572  0.00  0.00    +0.000 A 
ATOM     11  C   UNL     1       0.744  11.540  20.197  0.00  0.00    +0.000 A 
ATOM     12  C   UNL     1      -0.254  12.462  19.980  0.00  0.00    +0.000 A 
ATOM     13  N   UNL     1      -1.287  12.230  19.144  0.00  0.00    +0.000 NA
ATOM     14  H   UNL     1      -2.793   9.657  18.261  0.00  0.00    +0.000 HD
BRANCH   7  16
ATOM     15  C   UNL     1      -3.908  11.281  16.129  0.00  0.00    +0.000 C 
ATOM     16  C   UNL     1      -3.564  11.521  17.602  0.00  0.00    +0.000 C 
BRANCH  16  17
ATOM     17  C   UNL     1      -4.803  11.417  18.480  0.00  0.00    +0.000 A 
ATOM     18  C   UNL     1      -5.743  10.402  18.218  0.00  0.00    +0.000 A 
ATOM     19  C   UNL     1      -6.876  10.250  19.015  0.00  0.00    +0.000 A 
ATOM     20  C   UNL     1      -7.091  11.107  20.088  0.00  0.00    +0.000 A 
ATOM     21  C   UNL     1      -6.170  12.116  20.366  0.00  0.00    +0.000 A 
ATOM     22  C   UNL     1      -5.031  12.272  19.568  0.00  0.00    +0.000 A 
ENDBRANCH  16  17
ENDBRANCH   7  16
ENDBRANCH   1  12
BRANCH   5  23
ATOM     23  C   UNL     1      -0.651  16.175  23.256  0.00  0.00    +0.000 A 
ATOM     24  C   UNL     1      -1.236  17.351  22.753  0.00  0.00    +0.000 A 
ATOM     25  C   UNL     1      -2.009  18.182  23.566  0.00  0.00    +0.000 A 
ATOM     26  C   UNL     1      -2.204  17.856  24.903  0.00  0.00    +0.000 A 
ATOM     27  C   UNL     1      -1.607  16.712  25.431  0.00  0.00    +0.000 A 
ATOM     28  C   UNL     1      -0.823  15.887  24.620  0.00  0.00    +0.000 A 
ENDBRANCH   5  23
BRANCH   6  29
ATOM     29  C   UNL     1      -1.836  13.533  22.476  0.00  0.00    +0.000 A 
ATOM     30  C   UNL     1      -2.897  14.337  22.026  0.00  0.00    +0.000 A 
ATOM     31  C   UNL     1      -4.194  14.136  22.500  0.00  0.00    +0.000 A 
ATOM     32  C   UNL     1      -4.453  13.116  23.413  0.00  0.00    +0.000 A 
ATOM     33  C   UNL     1      -3.423  12.275  23.825  0.00  0.00    +0.000 A 
ATOM     34  C   UNL     1      -2.123  12.479  23.359  0.00  0.00    +0.000 A 
ENDBRANCH   6  29
TORSDOF 5
ENDMDL
MODEL 9
REMARK VINA RESULT:      -6.1      2.831      5.542
REMARK  Name = 
REMARK  6 active torsions:
REMARK  status: ('A' for Active; 'I' for Inactive)
REMARK    1  A    between atoms: C_1  and  C_2
REMARK    2  A    between atoms: C_2  and  N_3
REMARK    3  A    between atoms: C_2  and  C_28
REMARK    4  A    between atoms: C_8  and  N_9
REMARK    5  A    between atoms: C_13  and  C_14
REMARK    6  A    between atoms: C_20  and  C_21
REMARK                            x       y       z     vdW  Elec       q    Type
REMARK                         _______ _______ _______ _____ _____    ______ ____
ROOT
ATOM      1  N   UNL     1      -1.321  13.861  20.880  0.00  0.00    +0.000 N 
ATOM      2  C   UNL     1      -0.813  15.031  20.375  0.00  0.00    +0.000 C 
ATOM      3  O   UNL     1      -0.207  15.197  19.329  0.00  0.00    +0.000 OA
ATOM      4  O   UNL     1      -1.035  16.051  21.249  0.00  0.00    +0.000 OA
ATOM      5  C   UNL     1      -1.606  15.534  22.470  0.00  0.00    +0.000 C 
ATOM      6  C   UNL     1      -1.962  14.064  22.144  0.00  0.00    +0.000 C 
ENDROOT
BRANCH   1  12
ATOM      7  N   UNL     1      -2.396  10.516  17.746  0.00  0.00    +0.000 N 
ATOM      8  C   UNL     1      -1.640  10.993  18.791  0.00  0.00    +0.000 A 
ATOM      9  N   UNL     1      -0.866  10.072  19.383  0.00  0.00    +0.000 NA
ATOM     10  C   UNL     1      -0.130  10.473  20.430  0.00  0.00    +0.000 A 
ATOM     11  C   UNL     1      -0.235  11.721  20.979  0.00  0.00    +0.000 A 
ATOM     12  C   UNL     1      -1.081  12.592  20.332  0.00  0.00    +0.000 A 
ATOM     13  N   UNL     1      -1.714  12.272  19.184  0.00  0.00    +0.000 NA
ATOM     14  H   UNL     1      -2.748   9.598  17.981  0.00  0.00    +0.000 HD
BRANCH   7  16
ATOM     15  C   UNL     1      -3.145  10.900  15.497  0.00  0.00    +0.000 C 
ATOM     16  C   UNL     1      -3.223  11.387  16.946  0.00  0.00    +0.000 C 
BRANCH  16  17
ATOM     17  C   UNL     1      -4.665  11.456  17.427  0.00  0.00    +0.000 A 
ATOM     18  C   UNL     1      -5.120  10.508  18.362  0.00  0.00    +0.000 A 
ATOM     19  C   UNL     1      -6.423  10.552  18.853  0.00  0.00    +0.000 A 
ATOM     20  C   UNL     1      -7.296  11.543  18.419  0.00  0.00    +0.000 A 
ATOM     21  C   UNL     1      -6.864  12.493  17.496  0.00  0.00    +0.000 A 
ATOM     22  C   UNL     1      -5.556  12.452  17.001  0.00  0.00    +0.000 A 
ENDBRANCH  16  17
ENDBRANCH   7  16
ENDBRANCH   1  12
BRANCH   5  23
ATOM     23  C   UNL     1      -2.684  16.480  22.976  0.00  0.00    +0.000 A 
ATOM     24  C   UNL     1      -3.343  17.369  22.107  0.00  0.00    +0.000 A 
ATOM     25  C   UNL     1      -4.372  18.196  22.561  0.00  0.00    +0.000 A 
ATOM     26  C   UNL     1      -4.755  18.157  23.896  0.00  0.00    +0.000 A 
ATOM     27  C   UNL     1      -4.093  17.308  24.782  0.00  0.00    +0.000 A 
ATOM     28  C   UNL     1      -3.055  16.488  24.330  0.00  0.00    +0.000 A 
ENDBRANCH   5  23
BRANCH   6  29
ATOM     29  C   UNL     1      -3.448  13.729  22.061  0.00  0.00    +0.000 A 
ATOM     30  C   UNL     1      -4.124  13.093  23.116  0.00  0.00    +0.000 A 
ATOM     31  C   UNL     1      -5.451  12.690  22.971  0.00  0.00    +0.000 A 
ATOM     32  C   UNL     1      -6.130  12.937  21.780  0.00  0.00    +0.000 A 
ATOM     33  C   UNL     1      -5.493  13.618  20.746  0.00  0.00    +0.000 A 
ATOM     34  C   UNL     1      -4.161  14.014  20.885  0.00  0.00    +0.000 A 
ENDBRANCH   6  29
TORSDOF 5
ENDMDL
