MODEL 1
REMARK VINA RESULT:      -7.5      0.000      0.000
REMARK  Name = 
REMARK  6 active torsions:
REMARK  status: ('A' for Active; 'I' for Inactive)
REMARK    1  A    between atoms: C_1  and  N_2
REMARK    2  A    between atoms: N_2  and  C_17
REMARK    3  A    between atoms: C_3  and  C_5
REMARK    4  A    between atoms: C_5  and  O_6
REMARK    5  A    between atoms: O_6  and  C_7
REMARK    6  A    between atoms: C_7  and  C_9
REMARK                            x       y       z     vdW  Elec       q    Type
REMARK                         _______ _______ _______ _____ _____    ______ ____
ROOT
ATOM      1  C   UNL     1       6.528   5.925  18.782  0.00  0.00    +0.000 C 
ENDROOT
BRANCH   1   4
ATOM      2  C   UNL     1       3.716   6.689  18.343  0.00  0.00    +0.000 C 
ATOM      3  N   UNL     1       4.049   5.384  18.925  0.00  0.00    +0.000 N 
ATOM      4  C   UNL     1       5.377   4.980  19.170  0.00  0.00    +0.000 C 
ATOM      5  O   UNL     1       5.696   3.874  19.629  0.00  0.00    +0.000 OA
BRANCH   3   6
ATOM      6  C   UNL     1       2.923   4.500  19.187  0.00  0.00    +0.000 A 
ATOM      7  C   UNL     1       2.254   3.807  18.167  0.00  0.00    +0.000 A 
ATOM      8  C   UNL     1       1.117   3.028  18.424  0.00  0.00    +0.000 A 
ATOM      9  C   UNL     1       0.629   2.906  19.718  0.00  0.00    +0.000 A 
ATOM     10  C   UNL     1       1.301   3.534  20.758  0.00  0.00    +0.000 A 
ATOM     11  C   UNL     1       2.438   4.311  20.496  0.00  0.00    +0.000 A 
ENDBRANCH   3   6
ENDBRANCH   1   4
BRANCH   1  12
ATOM     12  O   UNL     1       6.700   5.971  17.361  0.00  0.00    +0.000 OA
BRANCH  12  13
ATOM     13  C   UNL     1       7.394   4.906  16.873  0.00  0.00    +0.000 C 
ATOM     14  O   UNL     1       8.189   4.238  17.516  0.00  0.00    +0.000 OA
BRANCH  13  15
ATOM     15  C   UNL     1       7.032   4.681  15.444  0.00  0.00    +0.000 A 
ATOM     16  N   UNL     1       7.790   5.365  14.533  0.00  0.00    +0.000 NA
ATOM     17  C   UNL     1       7.495   5.176  13.237  0.00  0.00    +0.000 A 
ATOM     18 CL   UNL     1       8.472   6.059  12.141  0.00  0.00    +0.000 Cl
ATOM     19  C   UNL     1       6.492   4.341  12.778  0.00  0.00    +0.000 A 
ATOM     20  C   UNL     1       5.735   3.649  13.721  0.00  0.00    +0.000 A 
ATOM     21  C   UNL     1       5.999   3.815  15.082  0.00  0.00    +0.000 A 
ATOM     22 CL   UNL     1       4.996   2.961  16.192  0.00  0.00    +0.000 Cl
ENDBRANCH  13  15
ENDBRANCH  12  13
ENDBRANCH   1  12
TORSDOF 5
ENDMDL
MODEL 2
REMARK VINA RESULT:      -7.4      0.338      1.061
REMARK  Name = 
REMARK  6 active torsions:
REMARK  status: ('A' for Active; 'I' for Inactive)
REMARK    1  A    between atoms: C_1  and  N_2
REMARK    2  A    between atoms: N_2  and  C_17
REMARK    3  A    between atoms: C_3  and  C_5
REMARK    4  A    between atoms: C_5  and  O_6
REMARK    5  A    between atoms: O_6  and  C_7
REMARK    6  A    between atoms: C_7  and  C_9
REMARK                            x       y       z     vdW  Elec       q    Type
REMARK                         _______ _______ _______ _____ _____    ______ ____
ROOT
ATOM      1  C   UNL     1       6.434   6.185  18.465  0.00  0.00    +0.000 C 
ENDROOT
BRANCH   1   4
ATOM      2  C   UNL     1       3.614   6.912  18.018  0.00  0.00    +0.000 C 
ATOM      3  N   UNL     1       3.958   5.651  18.682  0.00  0.00    +0.000 N 
ATOM      4  C   UNL     1       5.292   5.266  18.934  0.00  0.00    +0.000 C 
ATOM      5  O   UNL     1       5.620   4.195  19.461  0.00  0.00    +0.000 OA
BRANCH   3   6
ATOM      6  C   UNL     1       2.839   4.785  19.021  0.00  0.00    +0.000 A 
ATOM      7  C   UNL     1       2.213   4.816  20.277  0.00  0.00    +0.000 A 
ATOM      8  C   UNL     1       1.195   3.916  20.618  0.00  0.00    +0.000 A 
ATOM      9  C   UNL     1       0.758   2.970  19.701  0.00  0.00    +0.000 A 
ATOM     10  C   UNL     1       1.318   2.950  18.430  0.00  0.00    +0.000 A 
ATOM     11  C   UNL     1       2.336   3.852  18.093  0.00  0.00    +0.000 A 
ENDBRANCH   3   6
ENDBRANCH   1   4
BRANCH   1  12
ATOM     12  O   UNL     1       6.579   6.141  17.041  0.00  0.00    +0.000 OA
BRANCH  12  13
ATOM     13  C   UNL     1       7.332   5.090  16.614  0.00  0.00    +0.000 C 
ATOM     14  O   UNL     1       8.129   4.478  17.306  0.00  0.00    +0.000 OA
BRANCH  13  15
ATOM     15  C   UNL     1       7.032   4.806  15.181  0.00  0.00    +0.000 A 
ATOM     16  N   UNL     1       7.785   5.500  14.275  0.00  0.00    +0.000 NA
ATOM     17  C   UNL     1       7.546   5.259  12.976  0.00  0.00    +0.000 A 
ATOM     18 CL   UNL     1       8.515   6.158  11.886  0.00  0.00    +0.000 Cl
ATOM     19  C   UNL     1       6.603   4.360  12.511  0.00  0.00    +0.000 A 
ATOM     20  C   UNL     1       5.849   3.658  13.449  0.00  0.00    +0.000 A 
ATOM     21  C   UNL     1       6.057   3.877  14.812  0.00  0.00    +0.000 A 
ATOM     22 CL   UNL     1       5.060   3.006  15.914  0.00  0.00    +0.000 Cl
ENDBRANCH  13  15
ENDBRANCH  12  13
ENDBRANCH   1  12
TORSDOF 5
ENDMDL
MODEL 3
REMARK VINA RESULT:      -7.4      2.054      6.723
REMARK  Name = 
REMARK  6 active torsions:
REMARK  status: ('A' for Active; 'I' for Inactive)
REMARK    1  A    between atoms: C_1  and  N_2
REMARK    2  A    between atoms: N_2  and  C_17
REMARK    3  A    between atoms: C_3  and  C_5
REMARK    4  A    between atoms: C_5  and  O_6
REMARK    5  A    between atoms: O_6  and  C_7
REMARK    6  A    between atoms: C_7  and  C_9
REMARK                            x       y       z     vdW  Elec       q    Type
REMARK                         _______ _______ _______ _____ _____    ______ ____
ROOT
ATOM      1  C   UNL     1       5.646   6.489  17.856  0.00  0.00    +0.000 C 
ENDROOT
BRANCH   1   4
ATOM      2  C   UNL     1       7.511   4.457  16.818  0.00  0.00    +0.000 C 
ATOM      3  N   UNL     1       6.653   5.214  15.901  0.00  0.00    +0.000 N 
ATOM      4  C   UNL     1       5.757   6.208  16.346  0.00  0.00    +0.000 C 
ATOM      5  O   UNL     1       4.995   6.842  15.605  0.00  0.00    +0.000 OA
BRANCH   3   6
ATOM      6  C   UNL     1       6.739   4.841  14.497  0.00  0.00    +0.000 A 
ATOM      7  C   UNL     1       5.933   3.840  13.931  0.00  0.00    +0.000 A 
ATOM      8  C   UNL     1       6.088   3.431  12.599  0.00  0.00    +0.000 A 
ATOM      9  C   UNL     1       7.043   4.029  11.789  0.00  0.00    +0.000 A 
ATOM     10  C   UNL     1       7.818   5.060  12.302  0.00  0.00    +0.000 A 
ATOM     11  C   UNL     1       7.660   5.467  13.634  0.00  0.00    +0.000 A 
ENDBRANCH   3   6
ENDBRANCH   1   4
BRANCH   1  12
ATOM     12  O   UNL     1       4.474   5.879  18.409  0.00  0.00    +0.000 OA
BRANCH  12  13
ATOM     13  C   UNL     1       4.745   4.745  19.112  0.00  0.00    +0.000 C 
ATOM     14  O   UNL     1       5.820   4.487  19.631  0.00  0.00    +0.000 OA
BRANCH  13  15
ATOM     15  C   UNL     1       3.534   3.877  19.153  0.00  0.00    +0.000 A 
ATOM     16  N   UNL     1       2.995   3.679  20.395  0.00  0.00    +0.000 NA
ATOM     17  C   UNL     1       1.897   2.910  20.464  0.00  0.00    +0.000 A 
ATOM     18 CL   UNL     1       1.268   2.693  22.042  0.00  0.00    +0.000 Cl
ATOM     19  C   UNL     1       1.286   2.323  19.370  0.00  0.00    +0.000 A 
ATOM     20  C   UNL     1       1.846   2.541  18.113  0.00  0.00    +0.000 A 
ATOM     21  C   UNL     1       2.991   3.329  17.990  0.00  0.00    +0.000 A 
ATOM     22 CL   UNL     1       3.653   3.520  16.410  0.00  0.00    +0.000 Cl
ENDBRANCH  13  15
ENDBRANCH  12  13
ENDBRANCH   1  12
TORSDOF 5
ENDMDL
MODEL 4
REMARK VINA RESULT:      -7.3      2.016      6.687
REMARK  Name = 
REMARK  6 active torsions:
REMARK  status: ('A' for Active; 'I' for Inactive)
REMARK    1  A    between atoms: C_1  and  N_2
REMARK    2  A    between atoms: N_2  and  C_17
REMARK    3  A    between atoms: C_3  and  C_5
REMARK    4  A    between atoms: C_5  and  O_6
REMARK    5  A    between atoms: O_6  and  C_7
REMARK    6  A    between atoms: C_7  and  C_9
REMARK                            x       y       z     vdW  Elec       q    Type
REMARK                         _______ _______ _______ _____ _____    ______ ____
ROOT
ATOM      1  C   UNL     1       6.623   5.478  18.433  0.00  0.00    +0.000 C 
ENDROOT
BRANCH   1   4
ATOM      2  C   UNL     1       5.229   6.382  16.000  0.00  0.00    +0.000 C 
ATOM      3  N   UNL     1       6.310   5.395  15.912  0.00  0.00    +0.000 N 
ATOM      4  C   UNL     1       6.996   4.918  17.048  0.00  0.00    +0.000 C 
ATOM      5  O   UNL     1       7.934   4.111  17.008  0.00  0.00    +0.000 OA
BRANCH   3   6
ATOM      6  C   UNL     1       6.676   4.971  14.568  0.00  0.00    +0.000 A 
ATOM      7  C   UNL     1       7.688   5.601  13.828  0.00  0.00    +0.000 A 
ATOM      8  C   UNL     1       7.970   5.239  12.503  0.00  0.00    +0.000 A 
ATOM      9  C   UNL     1       7.257   4.219  11.889  0.00  0.00    +0.000 A 
ATOM     10  C   UNL     1       6.287   3.539  12.613  0.00  0.00    +0.000 A 
ATOM     11  C   UNL     1       6.009   3.904  13.937  0.00  0.00    +0.000 A 
ENDBRANCH   3   6
ENDBRANCH   1   4
BRANCH   1  12
ATOM     12  O   UNL     1       5.710   4.607  19.111  0.00  0.00    +0.000 OA
BRANCH  12  13
ATOM     13  C   UNL     1       4.443   5.103  19.168  0.00  0.00    +0.000 C 
ATOM     14  O   UNL     1       4.159   6.291  19.159  0.00  0.00    +0.000 OA
BRANCH  13  15
ATOM     15  C   UNL     1       3.466   3.980  19.241  0.00  0.00    +0.000 A 
ATOM     16  N   UNL     1       2.946   3.734  20.482  0.00  0.00    +0.000 NA
ATOM     17  C   UNL     1       2.055   2.734  20.579  0.00  0.00    +0.000 A 
ATOM     18 CL   UNL     1       1.441   2.468  22.157  0.00  0.00    +0.000 Cl
ATOM     19  C   UNL     1       1.634   1.959  19.514  0.00  0.00    +0.000 A 
ATOM     20  C   UNL     1       2.170   2.228  18.257  0.00  0.00    +0.000 A 
ATOM     21  C   UNL     1       3.105   3.254  18.105  0.00  0.00    +0.000 A 
ATOM     22 CL   UNL     1       3.756   3.503  16.530  0.00  0.00    +0.000 Cl
ENDBRANCH  13  15
ENDBRANCH  12  13
ENDBRANCH   1  12
TORSDOF 5
ENDMDL
MODEL 5
REMARK VINA RESULT:      -7.2      2.694      6.496
REMARK  Name = 
REMARK  6 active torsions:
REMARK  status: ('A' for Active; 'I' for Inactive)
REMARK    1  A    between atoms: C_1  and  N_2
REMARK    2  A    between atoms: N_2  and  C_17
REMARK    3  A    between atoms: C_3  and  C_5
REMARK    4  A    between atoms: C_5  and  O_6
REMARK    5  A    between atoms: O_6  and  C_7
REMARK    6  A    between atoms: C_7  and  C_9
REMARK                            x       y       z     vdW  Elec       q    Type
REMARK                         _______ _______ _______ _____ _____    ______ ____
ROOT
ATOM      1  C   UNL     1       6.618   5.727  18.363  0.00  0.00    +0.000 C 
ENDROOT
BRANCH   1   4
ATOM      2  C   UNL     1       5.068   6.358  15.938  0.00  0.00    +0.000 C 
ATOM      3  N   UNL     1       6.212   5.444  15.870  0.00  0.00    +0.000 N 
ATOM      4  C   UNL     1       6.975   5.097  17.005  0.00  0.00    +0.000 C 
ATOM      5  O   UNL     1       7.967   4.356  16.978  0.00  0.00    +0.000 OA
BRANCH   3   6
ATOM      6  C   UNL     1       6.555   4.952  14.544  0.00  0.00    +0.000 A 
ATOM      7  C   UNL     1       7.570   5.527  13.763  0.00  0.00    +0.000 A 
ATOM      8  C   UNL     1       7.829   5.099  12.454  0.00  0.00    +0.000 A 
ATOM      9  C   UNL     1       7.091   4.066  11.895  0.00  0.00    +0.000 A 
ATOM     10  C   UNL     1       6.117   3.438  12.661  0.00  0.00    +0.000 A 
ATOM     11  C   UNL     1       5.861   3.868  13.970  0.00  0.00    +0.000 A 
ENDBRANCH   3   6
ENDBRANCH   1   4
BRANCH   1  12
ATOM     12  O   UNL     1       6.093   4.744  19.264  0.00  0.00    +0.000 OA
BRANCH  12  13
ATOM     13  C   UNL     1       4.948   4.164  18.811  0.00  0.00    +0.000 C 
ATOM     14  O   UNL     1       4.903   3.235  18.020  0.00  0.00    +0.000 OA
BRANCH  13  15
ATOM     15  C   UNL     1       3.767   4.832  19.429  0.00  0.00    +0.000 A 
ATOM     16  N   UNL     1       3.513   6.101  18.986  0.00  0.00    +0.000 NA
ATOM     17  C   UNL     1       2.450   6.727  19.516  0.00  0.00    +0.000 A 
ATOM     18 CL   UNL     1       2.182   8.314  18.929  0.00  0.00    +0.000 Cl
ATOM     19  C   UNL     1       1.608   6.169  20.461  0.00  0.00    +0.000 A 
ATOM     20  C   UNL     1       1.879   4.873  20.896  0.00  0.00    +0.000 A 
ATOM     21  C   UNL     1       2.977   4.182  20.378  0.00  0.00    +0.000 A 
ATOM     22 CL   UNL     1       3.276   2.601  20.993  0.00  0.00    +0.000 Cl
ENDBRANCH  13  15
ENDBRANCH  12  13
ENDBRANCH   1  12
TORSDOF 5
ENDMDL
MODEL 6
REMARK VINA RESULT:      -7.2      3.033      6.289
REMARK  Name = 
REMARK  6 active torsions:
REMARK  status: ('A' for Active; 'I' for Inactive)
REMARK    1  A    between atoms: C_1  and  N_2
REMARK    2  A    between atoms: N_2  and  C_17
REMARK    3  A    between atoms: C_3  and  C_5
REMARK    4  A    between atoms: C_5  and  O_6
REMARK    5  A    between atoms: O_6  and  C_7
REMARK    6  A    between atoms: C_7  and  C_9
REMARK                            x       y       z     vdW  Elec       q    Type
REMARK                         _______ _______ _______ _____ _____    ______ ____
ROOT
ATOM      1  C   UNL     1       3.800   2.412  17.954  0.00  0.00    +0.000 C 
ENDROOT
BRANCH   1   4
ATOM      2  C   UNL     1       5.122   4.136  15.963  0.00  0.00    +0.000 C 
ATOM      3  N   UNL     1       5.399   4.308  17.393  0.00  0.00    +0.000 N 
ATOM      4  C   UNL     1       4.805   3.497  18.383  0.00  0.00    +0.000 C 
ATOM      5  O   UNL     1       4.989   3.635  19.599  0.00  0.00    +0.000 OA
BRANCH   3   6
ATOM      6  C   UNL     1       6.287   5.407  17.741  0.00  0.00    +0.000 A 
ATOM      7  C   UNL     1       6.263   6.639  17.069  0.00  0.00    +0.000 A 
ATOM      8  C   UNL     1       7.183   7.656  17.357  0.00  0.00    +0.000 A 
ATOM      9  C   UNL     1       8.142   7.476  18.344  0.00  0.00    +0.000 A 
ATOM     10  C   UNL     1       8.157   6.290  19.066  0.00  0.00    +0.000 A 
ATOM     11  C   UNL     1       7.234   5.275  18.775  0.00  0.00    +0.000 A 
ENDBRANCH   3   6
ENDBRANCH   1   4
BRANCH   1  12
ATOM     12  O   UNL     1       2.665   2.991  17.299  0.00  0.00    +0.000 OA
BRANCH  12  13
ATOM     13  C   UNL     1       1.625   3.226  18.145  0.00  0.00    +0.000 C 
ATOM     14  O   UNL     1       0.672   2.478  18.303  0.00  0.00    +0.000 OA
BRANCH  13  15
ATOM     15  C   UNL     1       1.830   4.526  18.846  0.00  0.00    +0.000 A 
ATOM     16  N   UNL     1       2.143   5.584  18.037  0.00  0.00    +0.000 NA
ATOM     17  C   UNL     1       2.325   6.772  18.637  0.00  0.00    +0.000 A 
ATOM     18 CL   UNL     1       2.719   8.060  17.578  0.00  0.00    +0.000 Cl
ATOM     19  C   UNL     1       2.207   6.984  19.998  0.00  0.00    +0.000 A 
ATOM     20  C   UNL     1       1.881   5.896  20.805  0.00  0.00    +0.000 A 
ATOM     21  C   UNL     1       1.687   4.638  20.229  0.00  0.00    +0.000 A 
ATOM     22 CL   UNL     1       1.328   3.330  21.291  0.00  0.00    +0.000 Cl
ENDBRANCH  13  15
ENDBRANCH  12  13
ENDBRANCH   1  12
TORSDOF 5
ENDMDL
MODEL 7
REMARK VINA RESULT:      -7.1      2.718      6.529
REMARK  Name = 
REMARK  6 active torsions:
REMARK  status: ('A' for Active; 'I' for Inactive)
REMARK    1  A    between atoms: C_1  and  N_2
REMARK    2  A    between atoms: N_2  and  C_17
REMARK    3  A    between atoms: C_3  and  C_5
REMARK    4  A    between atoms: C_5  and  O_6
REMARK    5  A    between atoms: O_6  and  C_7
REMARK    6  A    between atoms: C_7  and  C_9
REMARK                            x       y       z     vdW  Elec       q    Type
REMARK                         _______ _______ _______ _____ _____    ______ ____
ROOT
ATOM      1  C   UNL     1       6.553   5.435  18.393  0.00  0.00    +0.000 C 
ENDROOT
BRANCH   1   4
ATOM      2  C   UNL     1       5.042   6.296  16.014  0.00  0.00    +0.000 C 
ATOM      3  N   UNL     1       6.150   5.343  15.885  0.00  0.00    +0.000 N 
ATOM      4  C   UNL     1       6.892   4.888  16.995  0.00  0.00    +0.000 C 
ATOM      5  O   UNL     1       7.853   4.112  16.919  0.00  0.00    +0.000 OA
BRANCH   3   6
ATOM      6  C   UNL     1       6.479   4.932  14.528  0.00  0.00    +0.000 A 
ATOM      7  C   UNL     1       5.782   3.914  13.858  0.00  0.00    +0.000 A 
ATOM      8  C   UNL     1       6.166   3.469  12.586  0.00  0.00    +0.000 A 
ATOM      9  C   UNL     1       7.249   4.047  11.938  0.00  0.00    +0.000 A 
ATOM     10  C   UNL     1       7.925   5.094  12.551  0.00  0.00    +0.000 A 
ATOM     11  C   UNL     1       7.537   5.537  13.823  0.00  0.00    +0.000 A 
ENDBRANCH   3   6
ENDBRANCH   1   4
BRANCH   1  12
ATOM     12  O   UNL     1       5.981   4.415  19.221  0.00  0.00    +0.000 OA
BRANCH  12  13
ATOM     13  C   UNL     1       4.781   3.966  18.760  0.00  0.00    +0.000 C 
ATOM     14  O   UNL     1       4.641   3.098  17.913  0.00  0.00    +0.000 OA
BRANCH  13  15
ATOM     15  C   UNL     1       3.675   4.692  19.447  0.00  0.00    +0.000 A 
ATOM     16  N   UNL     1       3.436   5.961  18.994  0.00  0.00    +0.000 NA
ATOM     17  C   UNL     1       2.439   6.637  19.587  0.00  0.00    +0.000 A 
ATOM     18 CL   UNL     1       2.187   8.221  18.984  0.00  0.00    +0.000 Cl
ATOM     19  C   UNL     1       1.650   6.132  20.604  0.00  0.00    +0.000 A 
ATOM     20  C   UNL     1       1.904   4.836  21.047  0.00  0.00    +0.000 A 
ATOM     21  C   UNL     1       2.934   4.093  20.467  0.00  0.00    +0.000 A 
ATOM     22 CL   UNL     1       3.220   2.514  21.094  0.00  0.00    +0.000 Cl
ENDBRANCH  13  15
ENDBRANCH  12  13
ENDBRANCH   1  12
TORSDOF 5
ENDMDL
MODEL 8
REMARK VINA RESULT:      -7.1      2.664      6.815
REMARK  Name = 
REMARK  6 active torsions:
REMARK  status: ('A' for Active; 'I' for Inactive)
REMARK    1  A    between atoms: C_1  and  N_2
REMARK    2  A    between atoms: N_2  and  C_17
REMARK    3  A    between atoms: C_3  and  C_5
REMARK    4  A    between atoms: C_5  and  O_6
REMARK    5  A    between atoms: O_6  and  C_7
REMARK    6  A    between atoms: C_7  and  C_9
REMARK                            x       y       z     vdW  Elec       q    Type
REMARK                         _______ _______ _______ _____ _____    ______ ____
ROOT
ATOM      1  C   UNL     1       5.589   6.935  17.566  0.00  0.00    +0.000 C 
ENDROOT
BRANCH   1   4
ATOM      2  C   UNL     1       7.408   4.728  16.856  0.00  0.00    +0.000 C 
ATOM      3  N   UNL     1       6.589   5.375  15.826  0.00  0.00    +0.000 N 
ATOM      4  C   UNL     1       5.716   6.446  16.112  0.00  0.00    +0.000 C 
ATOM      5  O   UNL     1       4.986   6.993  15.274  0.00  0.00    +0.000 OA
BRANCH   3   6
ATOM      6  C   UNL     1       6.688   4.810  14.488  0.00  0.00    +0.000 A 
ATOM      7  C   UNL     1       7.613   5.272  13.539  0.00  0.00    +0.000 A 
ATOM      8  C   UNL     1       7.637   4.778  12.228  0.00  0.00    +0.000 A 
ATOM      9  C   UNL     1       6.746   3.789  11.835  0.00  0.00    +0.000 A 
ATOM     10  C   UNL     1       5.855   3.271  12.766  0.00  0.00    +0.000 A 
ATOM     11  C   UNL     1       5.835   3.768  14.076  0.00  0.00    +0.000 A 
ENDBRANCH   3   6
ENDBRANCH   1   4
BRANCH   1  12
ATOM     12  O   UNL     1       4.876   5.986  18.368  0.00  0.00    +0.000 OA
BRANCH  12  13
ATOM     13  C   UNL     1       3.568   6.318  18.550  0.00  0.00    +0.000 C 
ATOM     14  O   UNL     1       3.079   7.402  18.274  0.00  0.00    +0.000 OA
BRANCH  13  15
ATOM     15  C   UNL     1       2.832   5.158  19.130  0.00  0.00    +0.000 A 
ATOM     16  N   UNL     1       3.172   3.934  18.624  0.00  0.00    +0.000 NA
ATOM     17  C   UNL     1       2.534   2.869  19.134  0.00  0.00    +0.000 A 
ATOM     18 CL   UNL     1       2.997   1.362  18.461  0.00  0.00    +0.000 Cl
ATOM     19  C   UNL     1       1.575   2.936  20.128  0.00  0.00    +0.000 A 
ATOM     20  C   UNL     1       1.245   4.191  20.636  0.00  0.00    +0.000 A 
ATOM     21  C   UNL     1       1.878   5.331  20.134  0.00  0.00    +0.000 A 
ATOM     22 CL   UNL     1       1.390   6.853  20.778  0.00  0.00    +0.000 Cl
ENDBRANCH  13  15
ENDBRANCH  12  13
ENDBRANCH   1  12
TORSDOF 5
ENDMDL
MODEL 9
REMARK VINA RESULT:      -7.0      2.856      6.869
REMARK  Name = 
REMARK  6 active torsions:
REMARK  status: ('A' for Active; 'I' for Inactive)
REMARK    1  A    between atoms: C_1  and  N_2
REMARK    2  A    between atoms: N_2  and  C_17
REMARK    3  A    between atoms: C_3  and  C_5
REMARK    4  A    between atoms: C_5  and  O_6
REMARK    5  A    between atoms: O_6  and  C_7
REMARK    6  A    between atoms: C_7  and  C_9
REMARK                            x       y       z     vdW  Elec       q    Type
REMARK                         _______ _______ _______ _____ _____    ______ ____
ROOT
ATOM      1  C   UNL     1       5.522   6.843  17.457  0.00  0.00    +0.000 C 
ENDROOT
BRANCH   1   4
ATOM      2  C   UNL     1       7.192   4.540  16.688  0.00  0.00    +0.000 C 
ATOM      3  N   UNL     1       6.441   5.284  15.671  0.00  0.00    +0.000 N 
ATOM      4  C   UNL     1       5.642   6.402  15.987  0.00  0.00    +0.000 C 
ATOM      5  O   UNL     1       4.969   7.033  15.160  0.00  0.00    +0.000 OA
BRANCH   3   6
ATOM      6  C   UNL     1       6.524   4.765  14.314  0.00  0.00    +0.000 A 
ATOM      7  C   UNL     1       5.619   3.818  13.811  0.00  0.00    +0.000 A 
ATOM      8  C   UNL     1       5.763   3.263  12.532  0.00  0.00    +0.000 A 
ATOM      9  C   UNL     1       6.810   3.658  11.711  0.00  0.00    +0.000 A 
ATOM     10  C   UNL     1       7.691   4.634  12.158  0.00  0.00    +0.000 A 
ATOM     11  C   UNL     1       7.542   5.187  13.437  0.00  0.00    +0.000 A 
ENDBRANCH   3   6
ENDBRANCH   1   4
BRANCH   1  12
ATOM     12  O   UNL     1       4.299   6.375  18.036  0.00  0.00    +0.000 OA
BRANCH  12  13
ATOM     13  C   UNL     1       4.496   5.553  19.104  0.00  0.00    +0.000 C 
ATOM     14  O   UNL     1       5.561   5.402  19.680  0.00  0.00    +0.000 OA
BRANCH  13  15
ATOM     15  C   UNL     1       3.216   4.874  19.459  0.00  0.00    +0.000 A 
ATOM     16  N   UNL     1       3.151   3.544  19.145  0.00  0.00    +0.000 NA
ATOM     17  C   UNL     1       2.015   2.902  19.460  0.00  0.00    +0.000 A 
ATOM     18 CL   UNL     1       1.988   1.241  19.040  0.00  0.00    +0.000 Cl
ATOM     19  C   UNL     1       0.930   3.494  20.080  0.00  0.00    +0.000 A 
ATOM     20  C   UNL     1       1.017   4.848  20.398  0.00  0.00    +0.000 A 
ATOM     21  C   UNL     1       2.176   5.562  20.085  0.00  0.00    +0.000 A 
ATOM     22 CL   UNL     1       2.197   7.242  20.468  0.00  0.00    +0.000 Cl
ENDBRANCH  13  15
ENDBRANCH  12  13
ENDBRANCH   1  12
TORSDOF 5
ENDMDL
