MODEL 1
REMARK VINA RESULT:      -7.7      0.000      0.000
REMARK  Name = 
REMARK  6 active torsions:
REMARK  status: ('A' for Active; 'I' for Inactive)
REMARK    1  A    between atoms: C_5  and  C_6
REMARK    2  A    between atoms: C_6  and  S_7
REMARK    3  A    between atoms: S_7  and  C_8
REMARK    4  A    between atoms: C_11  and  C_12
REMARK    5  A    between atoms: N_18  and  C_19
REMARK    6  A    between atoms: C_19  and  C_20
REMARK                            x       y       z     vdW  Elec       q    Type
REMARK                         _______ _______ _______ _____ _____    ______ ____
ROOT
ATOM      1  C   UNL     1       7.536   6.937  18.441  0.00  0.00    +0.000 A 
ATOM      2  N   UNL     1       7.989   6.216  19.436  0.00  0.00    +0.000 NA
ATOM      3  N   UNL     1       7.075   5.204  19.661  0.00  0.00    +0.000 NA
ATOM      4  C   UNL     1       6.051   5.339  18.828  0.00  0.00    +0.000 A 
ATOM      5  N   UNL     1       6.374   6.377  17.965  0.00  0.00    +0.000 N 
ENDROOT
BRANCH   4   6
ATOM      6  C   UNL     1       4.814   4.528  18.866  0.00  0.00    +0.000 A 
ATOM      7  C   UNL     1       4.610   3.363  18.121  0.00  0.00    +0.000 A 
ATOM      8  C   UNL     1       3.401   2.667  18.155  0.00  0.00    +0.000 A 
ATOM      9  C   UNL     1       2.386   3.169  18.940  0.00  0.00    +0.000 A 
ATOM     10  N   UNL     1       2.517   4.289  19.677  0.00  0.00    +0.000 NA
ATOM     11  C   UNL     1       3.714   4.942  19.617  0.00  0.00    +0.000 A 
ENDBRANCH   4   6
BRANCH   1  12
ATOM     12  S   UNL     1       8.166   8.439  17.843  0.00  0.00    +0.000 S 
BRANCH  12  13
ATOM     13  C   UNL     1       8.967   9.193  19.289  0.00  0.00    +0.000 C 
BRANCH  13  18
ATOM     14 CL   UNL     1      10.672  14.870  18.005  0.00  0.00    +0.000 Cl
ATOM     15  C   UNL     1      10.189  13.264  18.385  0.00  0.00    +0.000 A 
ATOM     16  C   UNL     1      10.241  12.274  17.404  0.00  0.00    +0.000 A 
ATOM     17  C   UNL     1       9.843  10.965  17.715  0.00  0.00    +0.000 A 
ATOM     18  C   UNL     1       9.383  10.630  19.003  0.00  0.00    +0.000 A 
ATOM     19  C   UNL     1       9.353  11.648  19.977  0.00  0.00    +0.000 A 
ATOM     20 CL   UNL     1       8.825  11.344  21.595  0.00  0.00    +0.000 Cl
ATOM     21  C   UNL     1       9.746  12.957  19.669  0.00  0.00    +0.000 A 
ENDBRANCH  13  18
ENDBRANCH  12  13
ENDBRANCH   1  12
BRANCH   5  22
ATOM     22  C   UNL     1       5.680   6.775  16.756  0.00  0.00    +0.000 C 
BRANCH  22  23
ATOM     23  C   UNL     1       5.932   5.825  15.641  0.00  0.00    +0.000 A 
ATOM     24  C   UNL     1       5.166   4.891  14.966  0.00  0.00    +0.000 A 
ATOM     25  C   UNL     1       6.050   4.188  14.115  0.00  0.00    +0.000 A 
ATOM     26  C   UNL     1       7.290   4.748  14.303  0.00  0.00    +0.000 A 
ATOM     27  O   UNL     1       7.230   5.739  15.227  0.00  0.00    +0.000 OA
ENDBRANCH  22  23
ENDBRANCH   5  22
TORSDOF 6
ENDMDL
MODEL 2
REMARK VINA RESULT:      -7.6      1.081      1.312
REMARK  Name = 
REMARK  6 active torsions:
REMARK  status: ('A' for Active; 'I' for Inactive)
REMARK    1  A    between atoms: C_5  and  C_6
REMARK    2  A    between atoms: C_6  and  S_7
REMARK    3  A    between atoms: S_7  and  C_8
REMARK    4  A    between atoms: C_11  and  C_12
REMARK    5  A    between atoms: N_18  and  C_19
REMARK    6  A    between atoms: C_19  and  C_20
REMARK                            x       y       z     vdW  Elec       q    Type
REMARK                         _______ _______ _______ _____ _____    ______ ____
ROOT
ATOM      1  C   UNL     1       7.543   6.998  18.359  0.00  0.00    +0.000 A 
ATOM      2  N   UNL     1       8.072   6.381  19.386  0.00  0.00    +0.000 NA
ATOM      3  N   UNL     1       7.179   5.404  19.785  0.00  0.00    +0.000 NA
ATOM      4  C   UNL     1       6.095   5.457  19.023  0.00  0.00    +0.000 A 
ATOM      5  N   UNL     1       6.349   6.397  18.034  0.00  0.00    +0.000 N 
ENDROOT
BRANCH   4   6
ATOM      6  C   UNL     1       4.866   4.662  19.239  0.00  0.00    +0.000 A 
ATOM      7  C   UNL     1       3.644   5.196  19.660  0.00  0.00    +0.000 A 
ATOM      8  C   UNL     1       2.531   4.391  19.900  0.00  0.00    +0.000 A 
ATOM      9  C   UNL     1       2.664   3.031  19.726  0.00  0.00    +0.000 A 
ATOM     10  N   UNL     1       3.814   2.454  19.328  0.00  0.00    +0.000 NA
ATOM     11  C   UNL     1       4.882   3.275  19.103  0.00  0.00    +0.000 A 
ENDBRANCH   4   6
BRANCH   1  12
ATOM     12  S   UNL     1       8.123   8.425  17.561  0.00  0.00    +0.000 S 
BRANCH  12  13
ATOM     13  C   UNL     1       8.930   9.376  18.881  0.00  0.00    +0.000 C 
BRANCH  13  18
ATOM     14 CL   UNL     1       8.360  15.312  17.774  0.00  0.00    +0.000 Cl
ATOM     15  C   UNL     1       8.533  13.632  18.099  0.00  0.00    +0.000 A 
ATOM     16  C   UNL     1       7.928  12.698  17.259  0.00  0.00    +0.000 A 
ATOM     17  C   UNL     1       8.068  11.328  17.528  0.00  0.00    +0.000 A 
ATOM     18  C   UNL     1       8.806  10.875  18.638  0.00  0.00    +0.000 A 
ATOM     19  C   UNL     1       9.417  11.841  19.461  0.00  0.00    +0.000 A 
ATOM     20 CL   UNL     1      10.363  11.396  20.838  0.00  0.00    +0.000 Cl
ATOM     21  C   UNL     1       9.277  13.210  19.199  0.00  0.00    +0.000 A 
ENDBRANCH  13  18
ENDBRANCH  12  13
ENDBRANCH   1  12
BRANCH   5  22
ATOM     22  C   UNL     1       5.564   6.671  16.846  0.00  0.00    +0.000 C 
BRANCH  22  23
ATOM     23  C   UNL     1       5.833   5.680  15.771  0.00  0.00    +0.000 A 
ATOM     24  C   UNL     1       5.153   4.588  15.262  0.00  0.00    +0.000 A 
ATOM     25  C   UNL     1       6.032   3.958  14.351  0.00  0.00    +0.000 A 
ATOM     26  C   UNL     1       7.180   4.713  14.340  0.00  0.00    +0.000 A 
ATOM     27  O   UNL     1       7.070   5.758  15.199  0.00  0.00    +0.000 OA
ENDBRANCH  22  23
ENDBRANCH   5  22
TORSDOF 6
ENDMDL
MODEL 3
REMARK VINA RESULT:      -7.6      5.177      7.754
REMARK  Name = 
REMARK  6 active torsions:
REMARK  status: ('A' for Active; 'I' for Inactive)
REMARK    1  A    between atoms: C_5  and  C_6
REMARK    2  A    between atoms: C_6  and  S_7
REMARK    3  A    between atoms: S_7  and  C_8
REMARK    4  A    between atoms: C_11  and  C_12
REMARK    5  A    between atoms: N_18  and  C_19
REMARK    6  A    between atoms: C_19  and  C_20
REMARK                            x       y       z     vdW  Elec       q    Type
REMARK                         _______ _______ _______ _____ _____    ______ ____
ROOT
ATOM      1  C   UNL     1       2.544   7.238  19.314  0.00  0.00    +0.000 A 
ATOM      2  N   UNL     1       2.388   8.066  18.310  0.00  0.00    +0.000 NA
ATOM      3  N   UNL     1       3.200   7.625  17.282  0.00  0.00    +0.000 NA
ATOM      4  C   UNL     1       3.876   6.555  17.678  0.00  0.00    +0.000 A 
ATOM      5  N   UNL     1       3.393   6.224  18.937  0.00  0.00    +0.000 N 
ENDROOT
BRANCH   4   6
ATOM      6  C   UNL     1       4.945   5.891  16.902  0.00  0.00    +0.000 A 
ATOM      7  C   UNL     1       4.802   4.660  16.253  0.00  0.00    +0.000 A 
ATOM      8  C   UNL     1       5.862   4.054  15.579  0.00  0.00    +0.000 A 
ATOM      9  C   UNL     1       7.081   4.695  15.577  0.00  0.00    +0.000 A 
ATOM     10  N   UNL     1       7.286   5.879  16.187  0.00  0.00    +0.000 NA
ATOM     11  C   UNL     1       6.225   6.440  16.836  0.00  0.00    +0.000 A 
ENDBRANCH   4   6
BRANCH   1  12
ATOM     12  S   UNL     1       1.923   7.391  20.926  0.00  0.00    +0.000 S 
BRANCH  12  13
ATOM     13  C   UNL     1       0.159   7.758  20.690  0.00  0.00    +0.000 C 
BRANCH  13  18
ATOM     14 CL   UNL     1      -1.318  13.079  23.197  0.00  0.00    +0.000 Cl
ATOM     15  C   UNL     1      -0.903  11.576  22.472  0.00  0.00    +0.000 A 
ATOM     16  C   UNL     1      -0.739  10.444  23.268  0.00  0.00    +0.000 A 
ATOM     17  C   UNL     1      -0.397   9.220  22.675  0.00  0.00    +0.000 A 
ATOM     18  C   UNL     1      -0.208   9.112  21.284  0.00  0.00    +0.000 A 
ATOM     19  C   UNL     1      -0.393  10.270  20.503  0.00  0.00    +0.000 A 
ATOM     20 CL   UNL     1      -0.206  10.247  18.784  0.00  0.00    +0.000 Cl
ATOM     21  C   UNL     1      -0.731  11.495  21.092  0.00  0.00    +0.000 A 
ENDBRANCH  13  18
ENDBRANCH  12  13
ENDBRANCH   1  12
BRANCH   5  22
ATOM     22  C   UNL     1       3.661   5.022  19.703  0.00  0.00    +0.000 C 
BRANCH  22  23
ATOM     23  C   UNL     1       2.595   4.003  19.515  0.00  0.00    +0.000 A 
ATOM     24  C   UNL     1       2.045   3.360  18.420  0.00  0.00    +0.000 A 
ATOM     25  C   UNL     1       0.939   2.622  18.902  0.00  0.00    +0.000 A 
ATOM     26  C   UNL     1       0.896   2.838  20.258  0.00  0.00    +0.000 A 
ATOM     27  O   UNL     1       1.894   3.675  20.639  0.00  0.00    +0.000 OA
ENDBRANCH  22  23
ENDBRANCH   5  22
TORSDOF 6
ENDMDL
MODEL 4
REMARK VINA RESULT:      -7.5      5.377      7.703
REMARK  Name = 
REMARK  6 active torsions:
REMARK  status: ('A' for Active; 'I' for Inactive)
REMARK    1  A    between atoms: C_5  and  C_6
REMARK    2  A    between atoms: C_6  and  S_7
REMARK    3  A    between atoms: S_7  and  C_8
REMARK    4  A    between atoms: C_11  and  C_12
REMARK    5  A    between atoms: N_18  and  C_19
REMARK    6  A    between atoms: C_19  and  C_20
REMARK                            x       y       z     vdW  Elec       q    Type
REMARK                         _______ _______ _______ _____ _____    ______ ____
ROOT
ATOM      1  C   UNL     1       2.157   7.326  19.458  0.00  0.00    +0.000 A 
ATOM      2  N   UNL     1       2.326   8.141  18.446  0.00  0.00    +0.000 NA
ATOM      3  N   UNL     1       3.363   7.640  17.682  0.00  0.00    +0.000 NA
ATOM      4  C   UNL     1       3.846   6.545  18.254  0.00  0.00    +0.000 A 
ATOM      5  N   UNL     1       3.020   6.263  19.333  0.00  0.00    +0.000 N 
ENDROOT
BRANCH   4   6
ATOM      6  C   UNL     1       5.049   5.812  17.803  0.00  0.00    +0.000 A 
ATOM      7  C   UNL     1       6.273   5.810  18.481  0.00  0.00    +0.000 A 
ATOM      8  C   UNL     1       7.392   5.145  17.980  0.00  0.00    +0.000 A 
ATOM      9  C   UNL     1       7.272   4.489  16.775  0.00  0.00    +0.000 A 
ATOM     10  N   UNL     1       6.124   4.457  16.071  0.00  0.00    +0.000 NA
ATOM     11  C   UNL     1       5.051   5.121  16.592  0.00  0.00    +0.000 A 
ENDBRANCH   4   6
BRANCH   1  12
ATOM     12  S   UNL     1       1.127   7.542  20.837  0.00  0.00    +0.000 S 
BRANCH  12  13
ATOM     13  C   UNL     1       1.671   9.119  21.556  0.00  0.00    +0.000 C 
BRANCH  13  18
ATOM     14 CL   UNL     1      -3.041  12.816  22.513  0.00  0.00    +0.000 Cl
ATOM     15  C   UNL     1      -1.705  11.772  22.226  0.00  0.00    +0.000 A 
ATOM     16  C   UNL     1      -1.332  10.842  23.195  0.00  0.00    +0.000 A 
ATOM     17  C   UNL     1      -0.240   9.993  22.960  0.00  0.00    +0.000 A 
ATOM     18  C   UNL     1       0.496  10.067  21.762  0.00  0.00    +0.000 A 
ATOM     19  C   UNL     1       0.088  11.008  20.796  0.00  0.00    +0.000 A 
ATOM     20 CL   UNL     1       0.907  11.170  19.282  0.00  0.00    +0.000 Cl
ATOM     21  C   UNL     1      -1.000  11.860  21.028  0.00  0.00    +0.000 A 
ENDBRANCH  13  18
ENDBRANCH  12  13
ENDBRANCH   1  12
BRANCH   5  22
ATOM     22  C   UNL     1       3.003   5.064  20.149  0.00  0.00    +0.000 C 
BRANCH  22  23
ATOM     23  C   UNL     1       2.153   4.003  19.547  0.00  0.00    +0.000 A 
ATOM     24  C   UNL     1       0.886   3.509  19.804  0.00  0.00    +0.000 A 
ATOM     25  C   UNL     1       0.724   2.375  18.975  0.00  0.00    +0.000 A 
ATOM     26  C   UNL     1       1.884   2.261  18.249  0.00  0.00    +0.000 A 
ATOM     27  O   UNL     1       2.757   3.241  18.590  0.00  0.00    +0.000 OA
ENDBRANCH  22  23
ENDBRANCH   5  22
TORSDOF 6
ENDMDL
MODEL 5
REMARK VINA RESULT:      -7.4      5.865      7.963
REMARK  Name = 
REMARK  6 active torsions:
REMARK  status: ('A' for Active; 'I' for Inactive)
REMARK    1  A    between atoms: C_5  and  C_6
REMARK    2  A    between atoms: C_6  and  S_7
REMARK    3  A    between atoms: S_7  and  C_8
REMARK    4  A    between atoms: C_11  and  C_12
REMARK    5  A    between atoms: N_18  and  C_19
REMARK    6  A    between atoms: C_19  and  C_20
REMARK                            x       y       z     vdW  Elec       q    Type
REMARK                         _______ _______ _______ _____ _____    ______ ____
ROOT
ATOM      1  C   UNL     1       2.183   8.086  18.601  0.00  0.00    +0.000 A 
ATOM      2  N   UNL     1       2.458   8.681  17.466  0.00  0.00    +0.000 NA
ATOM      3  N   UNL     1       3.478   7.969  16.863  0.00  0.00    +0.000 NA
ATOM      4  C   UNL     1       3.846   6.968  17.652  0.00  0.00    +0.000 A 
ATOM      5  N   UNL     1       2.959   6.957  18.720  0.00  0.00    +0.000 N 
ENDROOT
BRANCH   4   6
ATOM      6  C   UNL     1       5.000   6.076  17.408  0.00  0.00    +0.000 A 
ATOM      7  C   UNL     1       6.222   6.165  18.081  0.00  0.00    +0.000 A 
ATOM      8  C   UNL     1       7.297   5.330  17.772  0.00  0.00    +0.000 A 
ATOM      9  C   UNL     1       7.133   4.410  16.760  0.00  0.00    +0.000 A 
ATOM     10  N   UNL     1       5.984   4.278  16.070  0.00  0.00    +0.000 NA
ATOM     11  C   UNL     1       4.955   5.112  16.401  0.00  0.00    +0.000 A 
ENDBRANCH   4   6
BRANCH   1  12
ATOM     12  S   UNL     1       1.124   8.634  19.860  0.00  0.00    +0.000 S 
BRANCH  12  13
ATOM     13  C   UNL     1       0.859  10.391  19.486  0.00  0.00    +0.000 C 
BRANCH  13  18
ATOM     14 CL   UNL     1      -4.613  11.234  17.010  0.00  0.00    +0.000 Cl
ATOM     15  C   UNL     1      -3.063  11.008  17.720  0.00  0.00    +0.000 A 
ATOM     16  C   UNL     1      -2.180  10.076  17.177  0.00  0.00    +0.000 A 
ATOM     17  C   UNL     1      -0.918   9.891  17.761  0.00  0.00    +0.000 A 
ATOM     18  C   UNL     1      -0.525  10.628  18.894  0.00  0.00    +0.000 A 
ATOM     19  C   UNL     1      -1.432  11.572  19.413  0.00  0.00    +0.000 A 
ATOM     20 CL   UNL     1      -1.045  12.545  20.789  0.00  0.00    +0.000 Cl
ATOM     21  C   UNL     1      -2.695  11.757  18.836  0.00  0.00    +0.000 A 
ENDBRANCH  13  18
ENDBRANCH  12  13
ENDBRANCH   1  12
BRANCH   5  22
ATOM     22  C   UNL     1       2.812   5.937  19.741  0.00  0.00    +0.000 C 
BRANCH  22  23
ATOM     23  C   UNL     1       2.523   4.605  19.147  0.00  0.00    +0.000 A 
ATOM     24  C   UNL     1       1.496   4.083  18.382  0.00  0.00    +0.000 A 
ATOM     25  C   UNL     1       1.735   2.692  18.286  0.00  0.00    +0.000 A 
ATOM     26  C   UNL     1       2.901   2.455  18.975  0.00  0.00    +0.000 A 
ATOM     27  O   UNL     1       3.384   3.608  19.502  0.00  0.00    +0.000 OA
ENDBRANCH  22  23
ENDBRANCH   5  22
TORSDOF 6
ENDMDL
MODEL 6
REMARK VINA RESULT:      -7.4      5.648      7.378
REMARK  Name = 
REMARK  6 active torsions:
REMARK  status: ('A' for Active; 'I' for Inactive)
REMARK    1  A    between atoms: C_5  and  C_6
REMARK    2  A    between atoms: C_6  and  S_7
REMARK    3  A    between atoms: S_7  and  C_8
REMARK    4  A    between atoms: C_11  and  C_12
REMARK    5  A    between atoms: N_18  and  C_19
REMARK    6  A    between atoms: C_19  and  C_20
REMARK                            x       y       z     vdW  Elec       q    Type
REMARK                         _______ _______ _______ _____ _____    ______ ____
ROOT
ATOM      1  C   UNL     1       2.197   7.864  19.006  0.00  0.00    +0.000 A 
ATOM      2  N   UNL     1       1.800   7.480  20.194  0.00  0.00    +0.000 NA
ATOM      3  N   UNL     1       2.076   6.130  20.304  0.00  0.00    +0.000 NA
ATOM      4  C   UNL     1       2.602   5.691  19.168  0.00  0.00    +0.000 A 
ATOM      5  N   UNL     1       2.790   6.805  18.361  0.00  0.00    +0.000 N 
ENDROOT
BRANCH   4   6
ATOM      6  C   UNL     1       2.895   4.274  18.859  0.00  0.00    +0.000 A 
ATOM      7  C   UNL     1       2.225   3.523  17.889  0.00  0.00    +0.000 A 
ATOM      8  C   UNL     1       2.506   2.173  17.677  0.00  0.00    +0.000 A 
ATOM      9  C   UNL     1       3.463   1.578  18.468  0.00  0.00    +0.000 A 
ATOM     10  N   UNL     1       4.140   2.244  19.424  0.00  0.00    +0.000 NA
ATOM     11  C   UNL     1       3.837   3.563  19.602  0.00  0.00    +0.000 A 
ENDBRANCH   4   6
BRANCH   1  12
ATOM     12  S   UNL     1       1.941   9.402  18.245  0.00  0.00    +0.000 S 
BRANCH  12  13
ATOM     13  C   UNL     1       0.870  10.300  19.406  0.00  0.00    +0.000 C 
BRANCH  13  18
ATOM     14 CL   UNL     1      -4.548  11.281  16.862  0.00  0.00    +0.000 Cl
ATOM     15  C   UNL     1      -3.013  11.016  17.592  0.00  0.00    +0.000 A 
ATOM     16  C   UNL     1      -2.136  10.082  17.043  0.00  0.00    +0.000 A 
ATOM     17  C   UNL     1      -0.886   9.865  17.642  0.00  0.00    +0.000 A 
ATOM     18  C   UNL     1      -0.500  10.571  18.797  0.00  0.00    +0.000 A 
ATOM     19  C   UNL     1      -1.402  11.517  19.323  0.00  0.00    +0.000 A 
ATOM     20 CL   UNL     1      -1.022  12.454  20.726  0.00  0.00    +0.000 Cl
ATOM     21  C   UNL     1      -2.652  11.734  18.730  0.00  0.00    +0.000 A 
ENDBRANCH  13  18
ENDBRANCH  12  13
ENDBRANCH   1  12
BRANCH   5  22
ATOM     22  C   UNL     1       3.519   6.882  17.109  0.00  0.00    +0.000 C 
BRANCH  22  23
ATOM     23  C   UNL     1       4.800   6.130  17.174  0.00  0.00    +0.000 A 
ATOM     24  C   UNL     1       5.339   5.064  16.476  0.00  0.00    +0.000 A 
ATOM     25  C   UNL     1       6.536   4.713  17.142  0.00  0.00    +0.000 A 
ATOM     26  C   UNL     1       6.667   5.597  18.186  0.00  0.00    +0.000 A 
ATOM     27  O   UNL     1       5.619   6.458  18.215  0.00  0.00    +0.000 OA
ENDBRANCH  22  23
ENDBRANCH   5  22
TORSDOF 6
ENDMDL
MODEL 7
REMARK VINA RESULT:      -7.4      5.907      8.038
REMARK  Name = 
REMARK  6 active torsions:
REMARK  status: ('A' for Active; 'I' for Inactive)
REMARK    1  A    between atoms: C_5  and  C_6
REMARK    2  A    between atoms: C_6  and  S_7
REMARK    3  A    between atoms: S_7  and  C_8
REMARK    4  A    between atoms: C_11  and  C_12
REMARK    5  A    between atoms: N_18  and  C_19
REMARK    6  A    between atoms: C_19  and  C_20
REMARK                            x       y       z     vdW  Elec       q    Type
REMARK                         _______ _______ _______ _____ _____    ______ ____
ROOT
ATOM      1  C   UNL     1       2.196   8.072  18.626  0.00  0.00    +0.000 A 
ATOM      2  N   UNL     1       2.419   8.633  17.463  0.00  0.00    +0.000 NA
ATOM      3  N   UNL     1       3.454   7.940  16.863  0.00  0.00    +0.000 NA
ATOM      4  C   UNL     1       3.881   6.986  17.680  0.00  0.00    +0.000 A 
ATOM      5  N   UNL     1       3.021   6.981  18.769  0.00  0.00    +0.000 N 
ENDROOT
BRANCH   4   6
ATOM      6  C   UNL     1       5.066   6.133  17.442  0.00  0.00    +0.000 A 
ATOM      7  C   UNL     1       5.431   5.619  16.194  0.00  0.00    +0.000 A 
ATOM      8  C   UNL     1       6.529   4.774  16.037  0.00  0.00    +0.000 A 
ATOM      9  C   UNL     1       7.253   4.435  17.159  0.00  0.00    +0.000 A 
ATOM     10  N   UNL     1       6.950   4.891  18.390  0.00  0.00    +0.000 NA
ATOM     11  C   UNL     1       5.868   5.716  18.503  0.00  0.00    +0.000 A 
ENDBRANCH   4   6
BRANCH   1  12
ATOM     12  S   UNL     1       1.144   8.625  19.889  0.00  0.00    +0.000 S 
BRANCH  12  13
ATOM     13  C   UNL     1       0.896  10.387  19.522  0.00  0.00    +0.000 C 
BRANCH  13  18
ATOM     14 CL   UNL     1      -4.575  11.297  17.069  0.00  0.00    +0.000 Cl
ATOM     15  C   UNL     1      -3.025  11.052  17.773  0.00  0.00    +0.000 A 
ATOM     16  C   UNL     1      -2.144  10.133  17.207  0.00  0.00    +0.000 A 
ATOM     17  C   UNL     1      -0.882   9.932  17.785  0.00  0.00    +0.000 A 
ATOM     18  C   UNL     1      -0.487  10.640  18.937  0.00  0.00    +0.000 A 
ATOM     19  C   UNL     1      -1.394  11.572  19.479  0.00  0.00    +0.000 A 
ATOM     20 CL   UNL     1      -1.005  12.510  20.879  0.00  0.00    +0.000 Cl
ATOM     21  C   UNL     1      -2.657  11.772  18.907  0.00  0.00    +0.000 A 
ENDBRANCH  13  18
ENDBRANCH  12  13
ENDBRANCH   1  12
BRANCH   5  22
ATOM     22  C   UNL     1       2.939   5.997  19.831  0.00  0.00    +0.000 C 
BRANCH  22  23
ATOM     23  C   UNL     1       2.219   4.773  19.391  0.00  0.00    +0.000 A 
ATOM     24  C   UNL     1       1.944   4.194  18.165  0.00  0.00    +0.000 A 
ATOM     25  C   UNL     1       1.064   3.117  18.420  0.00  0.00    +0.000 A 
ATOM     26  C   UNL     1       0.876   3.088  19.780  0.00  0.00    +0.000 A 
ATOM     27  O   UNL     1       1.569   4.090  20.378  0.00  0.00    +0.000 OA
ENDBRANCH  22  23
ENDBRANCH   5  22
TORSDOF 6
ENDMDL
MODEL 8
REMARK VINA RESULT:      -7.4      5.327      7.490
REMARK  Name = 
REMARK  6 active torsions:
REMARK  status: ('A' for Active; 'I' for Inactive)
REMARK    1  A    between atoms: C_5  and  C_6
REMARK    2  A    between atoms: C_6  and  S_7
REMARK    3  A    between atoms: S_7  and  C_8
REMARK    4  A    between atoms: C_11  and  C_12
REMARK    5  A    between atoms: N_18  and  C_19
REMARK    6  A    between atoms: C_19  and  C_20
REMARK                            x       y       z     vdW  Elec       q    Type
REMARK                         _______ _______ _______ _____ _____    ______ ____
ROOT
ATOM      1  C   UNL     1       2.151   7.424  19.444  0.00  0.00    +0.000 A 
ATOM      2  N   UNL     1       2.283   8.291  18.471  0.00  0.00    +0.000 NA
ATOM      3  N   UNL     1       3.251   7.803  17.613  0.00  0.00    +0.000 NA
ATOM      4  C   UNL     1       3.731   6.662  18.089  0.00  0.00    +0.000 A 
ATOM      5  N   UNL     1       2.967   6.344  19.204  0.00  0.00    +0.000 N 
ENDROOT
BRANCH   4   6
ATOM      6  C   UNL     1       4.877   5.919  17.520  0.00  0.00    +0.000 A 
ATOM      7  C   UNL     1       4.828   5.181  16.333  0.00  0.00    +0.000 A 
ATOM      8  C   UNL     1       5.926   4.455  15.871  0.00  0.00    +0.000 A 
ATOM      9  C   UNL     1       7.076   4.467  16.627  0.00  0.00    +0.000 A 
ATOM     10  N   UNL     1       7.186   5.153  17.781  0.00  0.00    +0.000 NA
ATOM     11  C   UNL     1       6.091   5.851  18.201  0.00  0.00    +0.000 A 
ENDBRANCH   4   6
BRANCH   1  12
ATOM     12  S   UNL     1       1.220   7.591  20.898  0.00  0.00    +0.000 S 
BRANCH  12  13
ATOM     13  C   UNL     1       1.743   9.192  21.579  0.00  0.00    +0.000 C 
BRANCH  13  18
ATOM     14 CL   UNL     1      -3.036  12.804  22.530  0.00  0.00    +0.000 Cl
ATOM     15  C   UNL     1      -1.681  11.785  22.245  0.00  0.00    +0.000 A 
ATOM     16  C   UNL     1      -1.337  10.811  23.182  0.00  0.00    +0.000 A 
ATOM     17  C   UNL     1      -0.229   9.983  22.949  0.00  0.00    +0.000 A 
ATOM     18  C   UNL     1       0.552  10.120  21.785  0.00  0.00    +0.000 A 
ATOM     19  C   UNL     1       0.173  11.104  20.850  0.00  0.00    +0.000 A 
ATOM     20 CL   UNL     1       1.047  11.345  19.378  0.00  0.00    +0.000 Cl
ATOM     21  C   UNL     1      -0.931  11.935  21.081  0.00  0.00    +0.000 A 
ENDBRANCH  13  18
ENDBRANCH  12  13
ENDBRANCH   1  12
BRANCH   5  22
ATOM     22  C   UNL     1       2.960   5.100  19.950  0.00  0.00    +0.000 C 
BRANCH  22  23
ATOM     23  C   UNL     1       2.854   3.921  19.051  0.00  0.00    +0.000 A 
ATOM     24  C   UNL     1       1.891   3.448  18.177  0.00  0.00    +0.000 A 
ATOM     25  C   UNL     1       2.331   2.174  17.749  0.00  0.00    +0.000 A 
ATOM     26  C   UNL     1       3.540   1.958  18.365  0.00  0.00    +0.000 A 
ATOM     27  O   UNL     1       3.864   3.010  19.157  0.00  0.00    +0.000 OA
ENDBRANCH  22  23
ENDBRANCH   5  22
TORSDOF 6
ENDMDL
MODEL 9
REMARK VINA RESULT:      -7.3      7.224      9.373
REMARK  Name = 
REMARK  6 active torsions:
REMARK  status: ('A' for Active; 'I' for Inactive)
REMARK    1  A    between atoms: C_5  and  C_6
REMARK    2  A    between atoms: C_6  and  S_7
REMARK    3  A    between atoms: S_7  and  C_8
REMARK    4  A    between atoms: C_11  and  C_12
REMARK    5  A    between atoms: N_18  and  C_19
REMARK    6  A    between atoms: C_19  and  C_20
REMARK                            x       y       z     vdW  Elec       q    Type
REMARK                         _______ _______ _______ _____ _____    ______ ____
ROOT
ATOM      1  C   UNL     1       1.341   8.784  19.819  0.00  0.00    +0.000 A 
ATOM      2  N   UNL     1       1.283   8.214  20.997  0.00  0.00    +0.000 NA
ATOM      3  N   UNL     1       0.658   9.101  21.854  0.00  0.00    +0.000 NA
ATOM      4  C   UNL     1       0.375  10.221  21.202  0.00  0.00    +0.000 A 
ATOM      5  N   UNL     1       0.705  10.002  19.872  0.00  0.00    +0.000 N 
ENDROOT
BRANCH   4   6
ATOM      6  C   UNL     1      -0.165  11.450  21.823  0.00  0.00    +0.000 A 
ATOM      7  C   UNL     1      -1.265  11.481  22.686  0.00  0.00    +0.000 A 
ATOM      8  C   UNL     1      -1.766  12.677  23.200  0.00  0.00    +0.000 A 
ATOM      9  C   UNL     1      -1.155  13.852  22.823  0.00  0.00    +0.000 A 
ATOM     10  N   UNL     1      -0.095  13.891  21.991  0.00  0.00    +0.000 NA
ATOM     11  C   UNL     1       0.366  12.701  21.508  0.00  0.00    +0.000 A 
ENDBRANCH   4   6
BRANCH   1  12
ATOM     12  S   UNL     1       2.176   8.222  18.406  0.00  0.00    +0.000 S 
BRANCH  12  13
ATOM     13  C   UNL     1       2.652   6.518  18.818  0.00  0.00    +0.000 C 
BRANCH  13  18
ATOM     14 CL   UNL     1       6.467   4.370  14.621  0.00  0.00    +0.000 Cl
ATOM     15  C   UNL     1       5.377   4.965  15.811  0.00  0.00    +0.000 A 
ATOM     16  C   UNL     1       5.334   6.330  16.090  0.00  0.00    +0.000 A 
ATOM     17  C   UNL     1       4.447   6.813  17.063  0.00  0.00    +0.000 A 
ATOM     18  C   UNL     1       3.599   5.941  17.773  0.00  0.00    +0.000 A 
ATOM     19  C   UNL     1       3.656   4.568  17.461  0.00  0.00    +0.000 A 
ATOM     20 CL   UNL     1       2.646   3.412  18.257  0.00  0.00    +0.000 Cl
ATOM     21  C   UNL     1       4.543   4.082  16.492  0.00  0.00    +0.000 A 
ENDBRANCH  13  18
ENDBRANCH  12  13
ENDBRANCH   1  12
BRANCH   5  22
ATOM     22  C   UNL     1       0.396  10.842  18.731  0.00  0.00    +0.000 C 
BRANCH  22  23
ATOM     23  C   UNL     1      -1.004  10.647  18.270  0.00  0.00    +0.000 A 
ATOM     24  C   UNL     1      -1.620   9.811  17.356  0.00  0.00    +0.000 A 
ATOM     25  C   UNL     1      -2.963  10.245  17.259  0.00  0.00    +0.000 A 
ATOM     26  C   UNL     1      -3.090  11.298  18.132  0.00  0.00    +0.000 A 
ATOM     27  O   UNL     1      -1.908  11.551  18.748  0.00  0.00    +0.000 OA
ENDBRANCH  22  23
ENDBRANCH   5  22
TORSDOF 6
ENDMDL
