MODEL 1
REMARK VINA RESULT:      -6.9      0.000      0.000
REMARK  Name = 
REMARK  11 active torsions:
REMARK  status: ('A' for Active; 'I' for Inactive)
REMARK    1  A    between atoms: C_1  and  C_2
REMARK    2  A    between atoms: C_2  and  C_3
REMARK    3  A    between atoms: C_2  and  C_4
REMARK    4  A    between atoms: C_4  and  C_5
REMARK    5  A    between atoms: C_5  and  N_6
REMARK    6  A    between atoms: N_9  and  C_10
REMARK    7  A    between atoms: C_10  and  C_11
REMARK    8  A    between atoms: C_13  and  C_14
REMARK    9  A    between atoms: C_23  and  C_24
REMARK   10  A    between atoms: C_24  and  C_25
REMARK   11  A    between atoms: C_25  and  O_26
REMARK                            x       y       z     vdW  Elec       q    Type
REMARK                         _______ _______ _______ _____ _____    ______ ____
ROOT
ATOM      1  N   UNL     1       6.080   4.418  17.995  0.00  0.00    +0.000 NA
ATOM      2  C   UNL     1       6.040   5.807  18.509  0.00  0.00    +0.000 C 
ATOM      3  C   UNL     1       5.060   6.743  17.762  0.00  0.00    +0.000 C 
ATOM      4  N   UNL     1       3.664   6.272  17.767  0.00  0.00    +0.000 NA
ATOM      5  C   UNL     1       3.627   4.857  17.338  0.00  0.00    +0.000 C 
ATOM      6  C   UNL     1       4.685   3.868  17.937  0.00  0.00    +0.000 C 
ENDROOT
BRANCH   1   7
ATOM      7  C   UNL     1       6.749   4.347  16.676  0.00  0.00    +0.000 C 
BRANCH   7   8
ATOM      8  C   UNL     1       5.903   3.691  15.559  0.00  0.00    +0.000 C 
BRANCH   8  10
ATOM      9  C   UNL     1       5.342   3.847  13.081  0.00  0.00    +0.000 C 
ATOM     10  C   UNL     1       6.456   3.855  14.128  0.00  0.00    +0.000 C 
ATOM     11  C   UNL     1       7.255   5.159  14.009  0.00  0.00    +0.000 C 
ENDBRANCH   8  10
ENDBRANCH   7   8
ENDBRANCH   1   7
BRANCH   4  12
ATOM     12  C   UNL     1       3.041   6.566  19.075  0.00  0.00    +0.000 C 
BRANCH  12  13
ATOM     13  C   UNL     1       2.162   7.788  19.129  0.00  0.00    +0.000 A 
ATOM     14  N   UNL     1       1.657   8.283  20.241  0.00  0.00    +0.000 NA
ATOM     15  C   UNL     1       0.900   9.409  19.961  0.00  0.00    +0.000 A 
ATOM     16  C   UNL     1       0.884   9.779  18.631  0.00  0.00    +0.000 A 
ATOM     17  S   UNL     1       1.804   8.674  17.698  0.00  0.00    +0.000 S 
BRANCH  15  18
ATOM     18  C   UNL     1       0.183  10.119  21.013  0.00  0.00    +0.000 A 
ATOM     19  C   UNL     1       0.005  11.508  20.930  0.00  0.00    +0.000 A 
ATOM     20  C   UNL     1      -0.645  12.203  21.956  0.00  0.00    +0.000 A 
ATOM     21  C   UNL     1      -1.115  11.519  23.076  0.00  0.00    +0.000 A 
ATOM     22  C   UNL     1      -0.945  10.139  23.170  0.00  0.00    +0.000 A 
ATOM     23  C   UNL     1      -0.304   9.443  22.139  0.00  0.00    +0.000 A 
ENDBRANCH  15  18
ENDBRANCH  12  13
ENDBRANCH   4  12
BRANCH   6  24
ATOM     24  C   UNL     1       4.209   3.349  19.320  0.00  0.00    +0.000 C 
BRANCH  24  25
ATOM     25  C   UNL     1       4.486   1.873  19.589  0.00  0.00    +0.000 C 
BRANCH  25  26
ATOM     26  O   UNL     1       4.068   1.053  18.508  0.00  0.00    +0.000 OA
ATOM     27  H   UNL     1       4.328   1.535  17.693  0.00  0.00    +0.000 HD
ENDBRANCH  25  26
ENDBRANCH  24  25
ENDBRANCH   6  24
TORSDOF 9
ENDMDL
MODEL 2
REMARK VINA RESULT:      -6.9      2.762      4.059
REMARK  Name = 
REMARK  11 active torsions:
REMARK  status: ('A' for Active; 'I' for Inactive)
REMARK    1  A    between atoms: C_1  and  C_2
REMARK    2  A    between atoms: C_2  and  C_3
REMARK    3  A    between atoms: C_2  and  C_4
REMARK    4  A    between atoms: C_4  and  C_5
REMARK    5  A    between atoms: C_5  and  N_6
REMARK    6  A    between atoms: N_9  and  C_10
REMARK    7  A    between atoms: C_10  and  C_11
REMARK    8  A    between atoms: C_13  and  C_14
REMARK    9  A    between atoms: C_23  and  C_24
REMARK   10  A    between atoms: C_24  and  C_25
REMARK   11  A    between atoms: C_25  and  O_26
REMARK                            x       y       z     vdW  Elec       q    Type
REMARK                         _______ _______ _______ _____ _____    ______ ____
ROOT
ATOM      1  N   UNL     1       6.214   5.844  15.674  0.00  0.00    +0.000 NA
ATOM      2  C   UNL     1       5.040   5.305  16.398  0.00  0.00    +0.000 C 
ATOM      3  C   UNL     1       5.298   3.976  17.147  0.00  0.00    +0.000 C 
ATOM      4  N   UNL     1       6.384   4.052  18.141  0.00  0.00    +0.000 NA
ATOM      5  C   UNL     1       7.577   4.659  17.512  0.00  0.00    +0.000 C 
ATOM      6  C   UNL     1       7.383   5.927  16.612  0.00  0.00    +0.000 C 
ENDROOT
BRANCH   1   7
ATOM      7  C   UNL     1       6.532   5.033  14.477  0.00  0.00    +0.000 C 
BRANCH   7   8
ATOM      8  C   UNL     1       5.372   4.139  13.978  0.00  0.00    +0.000 C 
BRANCH   8  10
ATOM      9  C   UNL     1       4.496   3.407  11.703  0.00  0.00    +0.000 C 
ATOM     10  C   UNL     1       5.660   3.339  12.691  0.00  0.00    +0.000 C 
ATOM     11  C   UNL     1       6.933   3.859  12.011  0.00  0.00    +0.000 C 
ENDBRANCH   8  10
ENDBRANCH   7   8
ENDBRANCH   1   7
BRANCH   4  12
ATOM     12  C   UNL     1       5.893   4.716  19.367  0.00  0.00    +0.000 C 
BRANCH  12  13
ATOM     13  C   UNL     1       4.450   5.148  19.353  0.00  0.00    +0.000 A 
ATOM     14  N   UNL     1       4.058   6.400  19.227  0.00  0.00    +0.000 NA
ATOM     15  C   UNL     1       2.674   6.470  19.244  0.00  0.00    +0.000 A 
ATOM     16  C   UNL     1       2.034   5.250  19.336  0.00  0.00    +0.000 A 
ATOM     17  S   UNL     1       3.186   3.984  19.444  0.00  0.00    +0.000 S 
BRANCH  15  18
ATOM     18  C   UNL     1       1.981   7.751  19.176  0.00  0.00    +0.000 A 
ATOM     19  C   UNL     1       1.920   8.454  17.964  0.00  0.00    +0.000 A 
ATOM     20  C   UNL     1       1.293   9.704  17.899  0.00  0.00    +0.000 A 
ATOM     21  C   UNL     1       0.733  10.265  19.045  0.00  0.00    +0.000 A 
ATOM     22  C   UNL     1       0.788   9.576  20.255  0.00  0.00    +0.000 A 
ATOM     23  C   UNL     1       1.404   8.322  20.317  0.00  0.00    +0.000 A 
ENDBRANCH  15  18
ENDBRANCH  12  13
ENDBRANCH   4  12
BRANCH   6  24
ATOM     24  C   UNL     1       7.331   7.204  17.492  0.00  0.00    +0.000 C 
BRANCH  24  25
ATOM     25  C   UNL     1       8.258   7.194  18.704  0.00  0.00    +0.000 C 
BRANCH  25  26
ATOM     26  O   UNL     1       8.775   8.486  18.982  0.00  0.00    +0.000 OA
ATOM     27  H   UNL     1       8.893   8.919  18.108  0.00  0.00    +0.000 HD
ENDBRANCH  25  26
ENDBRANCH  24  25
ENDBRANCH   6  24
TORSDOF 9
ENDMDL
MODEL 3
REMARK VINA RESULT:      -6.8      3.184      9.755
REMARK  Name = 
REMARK  11 active torsions:
REMARK  status: ('A' for Active; 'I' for Inactive)
REMARK    1  A    between atoms: C_1  and  C_2
REMARK    2  A    between atoms: C_2  and  C_3
REMARK    3  A    between atoms: C_2  and  C_4
REMARK    4  A    between atoms: C_4  and  C_5
REMARK    5  A    between atoms: C_5  and  N_6
REMARK    6  A    between atoms: N_9  and  C_10
REMARK    7  A    between atoms: C_10  and  C_11
REMARK    8  A    between atoms: C_13  and  C_14
REMARK    9  A    between atoms: C_23  and  C_24
REMARK   10  A    between atoms: C_24  and  C_25
REMARK   11  A    between atoms: C_25  and  O_26
REMARK                            x       y       z     vdW  Elec       q    Type
REMARK                         _______ _______ _______ _____ _____    ______ ____
ROOT
ATOM      1  N   UNL     1      -0.700  12.253  19.199  0.00  0.00    +0.000 NA
ATOM      2  C   UNL     1       0.706  12.181  18.736  0.00  0.00    +0.000 C 
ATOM      3  C   UNL     1       1.612  11.244  19.570  0.00  0.00    +0.000 C 
ATOM      4  N   UNL     1       1.135   9.850  19.629  0.00  0.00    +0.000 NA
ATOM      5  C   UNL     1      -0.294   9.841  20.009  0.00  0.00    +0.000 C 
ATOM      6  C   UNL     1      -1.257  10.865  19.316  0.00  0.00    +0.000 C 
ENDROOT
BRANCH   1   7
ATOM      7  C   UNL     1      -0.814  12.996  20.474  0.00  0.00    +0.000 C 
BRANCH   7   8
ATOM      8  C   UNL     1      -2.187  12.865  21.175  0.00  0.00    +0.000 C 
BRANCH   8  10
ATOM      9  C   UNL     1      -1.369  11.373  23.069  0.00  0.00    +0.000 C 
ATOM     10  C   UNL     1      -2.131  12.647  22.702  0.00  0.00    +0.000 C 
ATOM     11  C   UNL     1      -1.473  13.848  23.390  0.00  0.00    +0.000 C 
ENDBRANCH   8  10
ENDBRANCH   7   8
ENDBRANCH   1   7
BRANCH   4  12
ATOM     12  C   UNL     1       1.472   9.153  18.369  0.00  0.00    +0.000 C 
BRANCH  12  13
ATOM     13  C   UNL     1       2.348   7.935  18.503  0.00  0.00    +0.000 A 
ATOM     14  N   UNL     1       3.341   7.649  17.683  0.00  0.00    +0.000 NA
ATOM     15  C   UNL     1       3.956   6.470  18.074  0.00  0.00    +0.000 A 
ATOM     16  C   UNL     1       3.443   5.903  19.224  0.00  0.00    +0.000 A 
ATOM     17  S   UNL     1       2.134   6.840  19.813  0.00  0.00    +0.000 S 
BRANCH  15  18
ATOM     18  C   UNL     1       5.052   5.898  17.301  0.00  0.00    +0.000 A 
ATOM     19  C   UNL     1       5.030   5.958  15.900  0.00  0.00    +0.000 A 
ATOM     20  C   UNL     1       6.057   5.375  15.148  0.00  0.00    +0.000 A 
ATOM     21  C   UNL     1       7.107   4.720  15.789  0.00  0.00    +0.000 A 
ATOM     22  C   UNL     1       7.139   4.654  17.181  0.00  0.00    +0.000 A 
ATOM     23  C   UNL     1       6.119   5.246  17.932  0.00  0.00    +0.000 A 
ENDBRANCH  15  18
ENDBRANCH  12  13
ENDBRANCH   4  12
BRANCH   6  24
ATOM     24  C   UNL     1      -1.730  10.311  17.946  0.00  0.00    +0.000 C 
BRANCH  24  25
ATOM     25  C   UNL     1      -2.796  11.144  17.242  0.00  0.00    +0.000 C 
BRANCH  25  26
ATOM     26  O   UNL     1      -2.306  11.720  16.040  0.00  0.00    +0.000 OA
ATOM     27  H   UNL     1      -2.934  11.441  15.337  0.00  0.00    +0.000 HD
ENDBRANCH  25  26
ENDBRANCH  24  25
ENDBRANCH   6  24
TORSDOF 9
ENDMDL
MODEL 4
REMARK VINA RESULT:      -6.8      1.743      2.221
REMARK  Name = 
REMARK  11 active torsions:
REMARK  status: ('A' for Active; 'I' for Inactive)
REMARK    1  A    between atoms: C_1  and  C_2
REMARK    2  A    between atoms: C_2  and  C_3
REMARK    3  A    between atoms: C_2  and  C_4
REMARK    4  A    between atoms: C_4  and  C_5
REMARK    5  A    between atoms: C_5  and  N_6
REMARK    6  A    between atoms: N_9  and  C_10
REMARK    7  A    between atoms: C_10  and  C_11
REMARK    8  A    between atoms: C_13  and  C_14
REMARK    9  A    between atoms: C_23  and  C_24
REMARK   10  A    between atoms: C_24  and  C_25
REMARK   11  A    between atoms: C_25  and  O_26
REMARK                            x       y       z     vdW  Elec       q    Type
REMARK                         _______ _______ _______ _____ _____    ______ ____
ROOT
ATOM      1  N   UNL     1       3.813   3.917  19.023  0.00  0.00    +0.000 NA
ATOM      2  C   UNL     1       4.459   5.215  19.330  0.00  0.00    +0.000 C 
ATOM      3  C   UNL     1       3.974   6.398  18.459  0.00  0.00    +0.000 C 
ATOM      4  N   UNL     1       2.522   6.641  18.537  0.00  0.00    +0.000 NA
ATOM      5  C   UNL     1       1.804   5.367  18.319  0.00  0.00    +0.000 C 
ATOM      6  C   UNL     1       2.322   4.083  19.052  0.00  0.00    +0.000 C 
ENDROOT
BRANCH   1   7
ATOM      7  C   UNL     1       4.277   3.374  17.726  0.00  0.00    +0.000 C 
BRANCH   7   8
ATOM      8  C   UNL     1       5.445   4.158  17.081  0.00  0.00    +0.000 C 
BRANCH   8  10
ATOM      9  C   UNL     1       5.372   6.027  15.354  0.00  0.00    +0.000 C 
ATOM     10  C   UNL     1       5.255   4.521  15.593  0.00  0.00    +0.000 C 
ATOM     11  C   UNL     1       6.287   3.789  14.728  0.00  0.00    +0.000 C 
ENDBRANCH   8  10
ENDBRANCH   7   8
ENDBRANCH   1   7
BRANCH   4  12
ATOM     12  C   UNL     1       2.202   7.357  19.791  0.00  0.00    +0.000 C 
BRANCH  12  13
ATOM     13  C   UNL     1       1.433   8.643  19.640  0.00  0.00    +0.000 A 
ATOM     14  N   UNL     1       0.701   9.179  20.596  0.00  0.00    +0.000 NA
ATOM     15  C   UNL     1       0.127  10.359  20.151  0.00  0.00    +0.000 A 
ATOM     16  C   UNL     1       0.478  10.726  18.867  0.00  0.00    +0.000 A 
ATOM     17  S   UNL     1       1.519   9.550  18.180  0.00  0.00    +0.000 S 
BRANCH  15  18
ATOM     18  C   UNL     1      -0.780  11.125  20.999  0.00  0.00    +0.000 A 
ATOM     19  C   UNL     1      -0.805  10.901  22.383  0.00  0.00    +0.000 A 
ATOM     20  C   UNL     1      -1.702  11.601  23.199  0.00  0.00    +0.000 A 
ATOM     21  C   UNL     1      -2.585  12.521  22.638  0.00  0.00    +0.000 A 
ATOM     22  C   UNL     1      -2.569  12.752  21.264  0.00  0.00    +0.000 A 
ATOM     23  C   UNL     1      -1.666  12.060  20.450  0.00  0.00    +0.000 A 
ENDBRANCH  15  18
ENDBRANCH  12  13
ENDBRANCH   4  12
BRANCH   6  24
ATOM     24  C   UNL     1       1.760   4.028  20.497  0.00  0.00    +0.000 C 
BRANCH  24  25
ATOM     25  C   UNL     1       1.903   2.681  21.198  0.00  0.00    +0.000 C 
BRANCH  25  26
ATOM     26  O   UNL     1       3.245   2.431  21.589  0.00  0.00    +0.000 OA
ATOM     27  H   UNL     1       3.803   2.772  20.856  0.00  0.00    +0.000 HD
ENDBRANCH  25  26
ENDBRANCH  24  25
ENDBRANCH   6  24
TORSDOF 9
ENDMDL
MODEL 5
REMARK VINA RESULT:      -6.7      1.851      2.750
REMARK  Name = 
REMARK  11 active torsions:
REMARK  status: ('A' for Active; 'I' for Inactive)
REMARK    1  A    between atoms: C_1  and  C_2
REMARK    2  A    between atoms: C_2  and  C_3
REMARK    3  A    between atoms: C_2  and  C_4
REMARK    4  A    between atoms: C_4  and  C_5
REMARK    5  A    between atoms: C_5  and  N_6
REMARK    6  A    between atoms: N_9  and  C_10
REMARK    7  A    between atoms: C_10  and  C_11
REMARK    8  A    between atoms: C_13  and  C_14
REMARK    9  A    between atoms: C_23  and  C_24
REMARK   10  A    between atoms: C_24  and  C_25
REMARK   11  A    between atoms: C_25  and  O_26
REMARK                            x       y       z     vdW  Elec       q    Type
REMARK                         _______ _______ _______ _____ _____    ______ ____
ROOT
ATOM      1  N   UNL     1       6.220   3.884  15.810  0.00  0.00    +0.000 NA
ATOM      2  C   UNL     1       6.993   4.241  17.022  0.00  0.00    +0.000 C 
ATOM      3  C   UNL     1       6.743   5.675  17.548  0.00  0.00    +0.000 C 
ATOM      4  N   UNL     1       5.332   5.953  17.873  0.00  0.00    +0.000 NA
ATOM      5  C   UNL     1       4.482   5.546  16.734  0.00  0.00    +0.000 C 
ATOM      6  C   UNL     1       4.766   4.167  16.045  0.00  0.00    +0.000 C 
ENDROOT
BRANCH   1   7
ATOM      7  C   UNL     1       6.728   4.595  14.614  0.00  0.00    +0.000 C 
BRANCH   7   8
ATOM      8  C   UNL     1       5.769   4.579  13.400  0.00  0.00    +0.000 C 
BRANCH   8  10
ATOM      9  C   UNL     1       4.559   3.175  11.655  0.00  0.00    +0.000 C 
ATOM     10  C   UNL     1       5.785   3.283  12.562  0.00  0.00    +0.000 C 
ATOM     11  C   UNL     1       7.056   3.214  11.708  0.00  0.00    +0.000 C 
ENDBRANCH   8  10
ENDBRANCH   7   8
ENDBRANCH   1   7
BRANCH   4  12
ATOM     12  C   UNL     1       4.992   5.351  19.180  0.00  0.00    +0.000 C 
BRANCH  12  13
ATOM     13  C   UNL     1       3.654   5.733  19.756  0.00  0.00    +0.000 A 
ATOM     14  N   UNL     1       3.141   6.945  19.682  0.00  0.00    +0.000 NA
ATOM     15  C   UNL     1       1.901   6.976  20.299  0.00  0.00    +0.000 A 
ATOM     16  C   UNL     1       1.470   5.760  20.793  0.00  0.00    +0.000 A 
ATOM     17  S   UNL     1       2.658   4.555  20.517  0.00  0.00    +0.000 S 
BRANCH  15  18
ATOM     18  C   UNL     1       1.141   8.215  20.407  0.00  0.00    +0.000 A 
ATOM     19  C   UNL     1       0.373   8.471  21.553  0.00  0.00    +0.000 A 
ATOM     20  C   UNL     1      -0.393   9.639  21.647  0.00  0.00    +0.000 A 
ATOM     21  C   UNL     1      -0.406  10.554  20.596  0.00  0.00    +0.000 A 
ATOM     22  C   UNL     1       0.353  10.311  19.453  0.00  0.00    +0.000 A 
ATOM     23  C   UNL     1       1.126   9.149  19.363  0.00  0.00    +0.000 A 
ENDBRANCH  15  18
ENDBRANCH  12  13
ENDBRANCH   4  12
BRANCH   6  24
ATOM     24  C   UNL     1       4.071   3.024  16.832  0.00  0.00    +0.000 C 
BRANCH  24  25
ATOM     25  C   UNL     1       2.579   3.221  17.082  0.00  0.00    +0.000 C 
BRANCH  25  26
ATOM     26  O   UNL     1       2.005   2.104  17.743  0.00  0.00    +0.000 OA
ATOM     27  H   UNL     1       1.575   1.570  17.039  0.00  0.00    +0.000 HD
ENDBRANCH  25  26
ENDBRANCH  24  25
ENDBRANCH   6  24
TORSDOF 9
ENDMDL
MODEL 6
REMARK VINA RESULT:      -6.7      1.644      2.334
REMARK  Name = 
REMARK  11 active torsions:
REMARK  status: ('A' for Active; 'I' for Inactive)
REMARK    1  A    between atoms: C_1  and  C_2
REMARK    2  A    between atoms: C_2  and  C_3
REMARK    3  A    between atoms: C_2  and  C_4
REMARK    4  A    between atoms: C_4  and  C_5
REMARK    5  A    between atoms: C_5  and  N_6
REMARK    6  A    between atoms: N_9  and  C_10
REMARK    7  A    between atoms: C_10  and  C_11
REMARK    8  A    between atoms: C_13  and  C_14
REMARK    9  A    between atoms: C_23  and  C_24
REMARK   10  A    between atoms: C_24  and  C_25
REMARK   11  A    between atoms: C_25  and  O_26
REMARK                            x       y       z     vdW  Elec       q    Type
REMARK                         _______ _______ _______ _____ _____    ______ ____
ROOT
ATOM      1  N   UNL     1       5.288   4.213  17.211  0.00  0.00    +0.000 NA
ATOM      2  C   UNL     1       5.465   5.633  17.596  0.00  0.00    +0.000 C 
ATOM      3  C   UNL     1       4.242   6.536  17.307  0.00  0.00    +0.000 C 
ATOM      4  N   UNL     1       3.002   6.091  17.968  0.00  0.00    +0.000 NA
ATOM      5  C   UNL     1       2.796   4.652  17.694  0.00  0.00    +0.000 C 
ATOM      6  C   UNL     1       4.023   3.685  17.820  0.00  0.00    +0.000 C 
ENDROOT
BRANCH   1   7
ATOM      7  C   UNL     1       5.297   4.046  15.739  0.00  0.00    +0.000 C 
BRANCH   7   8
ATOM      8  C   UNL     1       6.635   4.417  15.057  0.00  0.00    +0.000 C 
BRANCH   8  10
ATOM      9  C   UNL     1       7.893   5.161  12.973  0.00  0.00    +0.000 C 
ATOM     10  C   UNL     1       6.540   4.751  13.553  0.00  0.00    +0.000 C 
ATOM     11  C   UNL     1       5.996   3.549  12.772  0.00  0.00    +0.000 C 
ENDBRANCH   8  10
ENDBRANCH   7   8
ENDBRANCH   1   7
BRANCH   4  12
ATOM     12  C   UNL     1       3.027   6.480  19.394  0.00  0.00    +0.000 C 
BRANCH  12  13
ATOM     13  C   UNL     1       2.058   7.558  19.802  0.00  0.00    +0.000 A 
ATOM     14  N   UNL     1       1.813   8.637  19.085  0.00  0.00    +0.000 NA
ATOM     15  C   UNL     1       0.873   9.430  19.723  0.00  0.00    +0.000 A 
ATOM     16  C   UNL     1       0.382   8.908  20.904  0.00  0.00    +0.000 A 
ATOM     17  S   UNL     1       1.138   7.409  21.248  0.00  0.00    +0.000 S 
BRANCH  15  18
ATOM     18  C   UNL     1       0.465  10.714  19.167  0.00  0.00    +0.000 A 
ATOM     19  C   UNL     1       1.422  11.712  18.926  0.00  0.00    +0.000 A 
ATOM     20  C   UNL     1       1.033  12.963  18.432  0.00  0.00    +0.000 A 
ATOM     21  C   UNL     1      -0.312  13.229  18.184  0.00  0.00    +0.000 A 
ATOM     22  C   UNL     1      -1.271  12.247  18.419  0.00  0.00    +0.000 A 
ATOM     23  C   UNL     1      -0.882  10.993  18.903  0.00  0.00    +0.000 A 
ENDBRANCH  15  18
ENDBRANCH  12  13
ENDBRANCH   4  12
BRANCH   6  24
ATOM     24  C   UNL     1       4.223   3.265  19.300  0.00  0.00    +0.000 C 
BRANCH  24  25
ATOM     25  C   UNL     1       3.920   1.801  19.605  0.00  0.00    +0.000 C 
BRANCH  25  26
ATOM     26  O   UNL     1       4.167   0.967  18.483  0.00  0.00    +0.000 OA
ATOM     27  H   UNL     1       5.140   0.988  18.345  0.00  0.00    +0.000 HD
ENDBRANCH  25  26
ENDBRANCH  24  25
ENDBRANCH   6  24
TORSDOF 9
ENDMDL
MODEL 7
REMARK VINA RESULT:      -6.6      3.738     10.186
REMARK  Name = 
REMARK  11 active torsions:
REMARK  status: ('A' for Active; 'I' for Inactive)
REMARK    1  A    between atoms: C_1  and  C_2
REMARK    2  A    between atoms: C_2  and  C_3
REMARK    3  A    between atoms: C_2  and  C_4
REMARK    4  A    between atoms: C_4  and  C_5
REMARK    5  A    between atoms: C_5  and  N_6
REMARK    6  A    between atoms: N_9  and  C_10
REMARK    7  A    between atoms: C_10  and  C_11
REMARK    8  A    between atoms: C_13  and  C_14
REMARK    9  A    between atoms: C_23  and  C_24
REMARK   10  A    between atoms: C_24  and  C_25
REMARK   11  A    between atoms: C_25  and  O_26
REMARK                            x       y       z     vdW  Elec       q    Type
REMARK                         _______ _______ _______ _____ _____    ______ ____
ROOT
ATOM      1  N   UNL     1      -1.552  12.431  18.819  0.00  0.00    +0.000 NA
ATOM      2  C   UNL     1      -0.116  12.700  18.578  0.00  0.00    +0.000 C 
ATOM      3  C   UNL     1       0.848  11.972  19.545  0.00  0.00    +0.000 C 
ATOM      4  N   UNL     1       0.705  10.505  19.536  0.00  0.00    +0.000 NA
ATOM      5  C   UNL     1      -0.723  10.154  19.693  0.00  0.00    +0.000 C 
ATOM      6  C   UNL     1      -1.783  10.949  18.857  0.00  0.00    +0.000 C 
ENDROOT
BRANCH   1   7
ATOM      7  C   UNL     1      -2.026  13.089  20.059  0.00  0.00    +0.000 C 
BRANCH   7   8
ATOM      8  C   UNL     1      -3.518  12.843  20.388  0.00  0.00    +0.000 C 
BRANCH   8  10
ATOM      9  C   UNL     1      -5.363  14.481  21.016  0.00  0.00    +0.000 C 
ATOM     10  C   UNL     1      -4.109  13.747  21.491  0.00  0.00    +0.000 C 
ATOM     11  C   UNL     1      -4.447  12.919  22.736  0.00  0.00    +0.000 C 
ENDBRANCH   8  10
ENDBRANCH   7   8
ENDBRANCH   1   7
BRANCH   4  12
ATOM     12  C   UNL     1       1.381   9.944  18.347  0.00  0.00    +0.000 C 
BRANCH  12  13
ATOM     13  C   UNL     1       2.030   8.597  18.529  0.00  0.00    +0.000 A 
ATOM     14  N   UNL     1       2.789   8.017  17.621  0.00  0.00    +0.000 NA
ATOM     15  C   UNL     1       3.240   6.793  18.088  0.00  0.00    +0.000 A 
ATOM     16  C   UNL     1       2.848   6.485  19.375  0.00  0.00    +0.000 A 
ATOM     17  S   UNL     1       1.859   7.734  20.008  0.00  0.00    +0.000 S 
BRANCH  15  18
ATOM     18  C   UNL     1       4.056   5.920  17.253  0.00  0.00    +0.000 A 
ATOM     19  C   UNL     1       3.980   4.528  17.407  0.00  0.00    +0.000 A 
ATOM     20  C   UNL     1       4.790   3.683  16.639  0.00  0.00    +0.000 A 
ATOM     21  C   UNL     1       5.689   4.222  15.720  0.00  0.00    +0.000 A 
ATOM     22  C   UNL     1       5.775   5.604  15.559  0.00  0.00    +0.000 A 
ATOM     23  C   UNL     1       4.957   6.447  16.319  0.00  0.00    +0.000 A 
ENDBRANCH  15  18
ENDBRANCH  12  13
ENDBRANCH   4  12
BRANCH   6  24
ATOM     24  C   UNL     1      -1.903  10.345  17.433  0.00  0.00    +0.000 C 
BRANCH  24  25
ATOM     25  C   UNL     1      -3.242  10.576  16.740  0.00  0.00    +0.000 C 
BRANCH  25  26
ATOM     26  O   UNL     1      -3.702  11.908  16.915  0.00  0.00    +0.000 OA
ATOM     27  H   UNL     1      -2.970  12.485  16.607  0.00  0.00    +0.000 HD
ENDBRANCH  25  26
ENDBRANCH  24  25
ENDBRANCH   6  24
TORSDOF 9
ENDMDL
MODEL 8
REMARK VINA RESULT:      -6.6      1.387      1.820
REMARK  Name = 
REMARK  11 active torsions:
REMARK  status: ('A' for Active; 'I' for Inactive)
REMARK    1  A    between atoms: C_1  and  C_2
REMARK    2  A    between atoms: C_2  and  C_3
REMARK    3  A    between atoms: C_2  and  C_4
REMARK    4  A    between atoms: C_4  and  C_5
REMARK    5  A    between atoms: C_5  and  N_6
REMARK    6  A    between atoms: N_9  and  C_10
REMARK    7  A    between atoms: C_10  and  C_11
REMARK    8  A    between atoms: C_13  and  C_14
REMARK    9  A    between atoms: C_23  and  C_24
REMARK   10  A    between atoms: C_24  and  C_25
REMARK   11  A    between atoms: C_25  and  O_26
REMARK                            x       y       z     vdW  Elec       q    Type
REMARK                         _______ _______ _______ _____ _____    ______ ____
ROOT
ATOM      1  N   UNL     1       3.938   3.724  18.586  0.00  0.00    +0.000 NA
ATOM      2  C   UNL     1       4.262   4.617  19.723  0.00  0.00    +0.000 C 
ATOM      3  C   UNL     1       4.450   6.105  19.341  0.00  0.00    +0.000 C 
ATOM      4  N   UNL     1       3.277   6.703  18.679  0.00  0.00    +0.000 NA
ATOM      5  C   UNL     1       2.841   5.824  17.574  0.00  0.00    +0.000 C 
ATOM      6  C   UNL     1       2.766   4.280  17.833  0.00  0.00    +0.000 C 
ENDROOT
BRANCH   1   7
ATOM      7  C   UNL     1       5.110   3.526  17.702  0.00  0.00    +0.000 C 
BRANCH   7   8
ATOM      8  C   UNL     1       4.809   3.674  16.191  0.00  0.00    +0.000 C 
BRANCH   8  10
ATOM      9  C   UNL     1       7.113   4.754  16.124  0.00  0.00    +0.000 C 
ATOM     10  C   UNL     1       5.768   4.600  15.414  0.00  0.00    +0.000 C 
ATOM     11  C   UNL     1       6.001   4.061  13.997  0.00  0.00    +0.000 C 
ENDBRANCH   8  10
ENDBRANCH   7   8
ENDBRANCH   1   7
BRANCH   4  12
ATOM     12  C   UNL     1       2.247   7.032  19.688  0.00  0.00    +0.000 C 
BRANCH  12  13
ATOM     13  C   UNL     1       1.673   8.422  19.618  0.00  0.00    +0.000 A 
ATOM     14  N   UNL     1       1.146   9.053  20.648  0.00  0.00    +0.000 NA
ATOM     15  C   UNL     1       0.713  10.312  20.264  0.00  0.00    +0.000 A 
ATOM     16  C   UNL     1       0.966  10.635  18.946  0.00  0.00    +0.000 A 
ATOM     17  S   UNL     1       1.728   9.321  18.152  0.00  0.00    +0.000 S 
BRANCH  15  18
ATOM     18  C   UNL     1       0.038  11.198  21.205  0.00  0.00    +0.000 A 
ATOM     19  C   UNL     1       0.270  12.581  21.159  0.00  0.00    +0.000 A 
ATOM     20  C   UNL     1      -0.341  13.435  22.085  0.00  0.00    +0.000 A 
ATOM     21  C   UNL     1      -1.179  12.914  23.069  0.00  0.00    +0.000 A 
ATOM     22  C   UNL     1      -1.417  11.542  23.125  0.00  0.00    +0.000 A 
ATOM     23  C   UNL     1      -0.815  10.690  22.193  0.00  0.00    +0.000 A 
ENDBRANCH  15  18
ENDBRANCH  12  13
ENDBRANCH   4  12
BRANCH   6  24
ATOM     24  C   UNL     1       1.417   3.917  18.510  0.00  0.00    +0.000 C 
BRANCH  24  25
ATOM     25  C   UNL     1       1.290   2.468  18.969  0.00  0.00    +0.000 C 
BRANCH  25  26
ATOM     26  O   UNL     1       1.998   1.582  18.115  0.00  0.00    +0.000 OA
ATOM     27  H   UNL     1       1.313   1.029  17.679  0.00  0.00    +0.000 HD
ENDBRANCH  25  26
ENDBRANCH  24  25
ENDBRANCH   6  24
TORSDOF 9
ENDMDL
MODEL 9
REMARK VINA RESULT:      -6.6      3.420      9.966
REMARK  Name = 
REMARK  11 active torsions:
REMARK  status: ('A' for Active; 'I' for Inactive)
REMARK    1  A    between atoms: C_1  and  C_2
REMARK    2  A    between atoms: C_2  and  C_3
REMARK    3  A    between atoms: C_2  and  C_4
REMARK    4  A    between atoms: C_4  and  C_5
REMARK    5  A    between atoms: C_5  and  N_6
REMARK    6  A    between atoms: N_9  and  C_10
REMARK    7  A    between atoms: C_10  and  C_11
REMARK    8  A    between atoms: C_13  and  C_14
REMARK    9  A    between atoms: C_23  and  C_24
REMARK   10  A    between atoms: C_24  and  C_25
REMARK   11  A    between atoms: C_25  and  O_26
REMARK                            x       y       z     vdW  Elec       q    Type
REMARK                         _______ _______ _______ _____ _____    ______ ____
ROOT
ATOM      1  N   UNL     1      -1.087  13.022  19.225  0.00  0.00    +0.000 NA
ATOM      2  C   UNL     1       0.388  12.994  19.090  0.00  0.00    +0.000 C 
ATOM      3  C   UNL     1       1.100  11.968  20.004  0.00  0.00    +0.000 C 
ATOM      4  N   UNL     1       0.650  10.578  19.805  0.00  0.00    +0.000 NA
ATOM      5  C   UNL     1      -0.828  10.535  19.847  0.00  0.00    +0.000 C 
ATOM      6  C   UNL     1      -1.629  11.632  19.065  0.00  0.00    +0.000 C 
ENDROOT
BRANCH   1   7
ATOM      7  C   UNL     1      -1.502  13.625  20.512  0.00  0.00    +0.000 C 
BRANCH   7   8
ATOM      8  C   UNL     1      -2.897  13.179  21.012  0.00  0.00    +0.000 C 
BRANCH   8  10
ATOM      9  C   UNL     1      -1.516  12.353  22.985  0.00  0.00    +0.000 C 
ATOM     10  C   UNL     1      -2.923  12.540  22.416  0.00  0.00    +0.000 C 
ATOM     11  C   UNL     1      -3.750  13.399  23.380  0.00  0.00    +0.000 C 
ENDBRANCH   8  10
ENDBRANCH   7   8
ENDBRANCH   1   7
BRANCH   4  12
ATOM     12  C   UNL     1       1.278  10.019  18.589  0.00  0.00    +0.000 C 
BRANCH  12  13
ATOM     13  C   UNL     1       1.928   8.669  18.742  0.00  0.00    +0.000 A 
ATOM     14  N   UNL     1       2.686   8.109  17.821  0.00  0.00    +0.000 NA
ATOM     15  C   UNL     1       3.139   6.875  18.261  0.00  0.00    +0.000 A 
ATOM     16  C   UNL     1       2.749   6.540  19.543  0.00  0.00    +0.000 A 
ATOM     17  S   UNL     1       1.761   7.776  20.203  0.00  0.00    +0.000 S 
BRANCH  15  18
ATOM     18  C   UNL     1       3.954   6.020  17.407  0.00  0.00    +0.000 A 
ATOM     19  C   UNL     1       4.771   6.589  16.419  0.00  0.00    +0.000 A 
ATOM     20  C   UNL     1       5.525   5.773  15.566  0.00  0.00    +0.000 A 
ATOM     21  C   UNL     1       5.461   4.386  15.688  0.00  0.00    +0.000 A 
ATOM     22  C   UNL     1       4.653   3.810  16.666  0.00  0.00    +0.000 A 
ATOM     23  C   UNL     1       3.908   4.625  17.525  0.00  0.00    +0.000 A 
ENDBRANCH  15  18
ENDBRANCH  12  13
ENDBRANCH   4  12
BRANCH   6  24
ATOM     24  C   UNL     1      -1.768  11.231  17.573  0.00  0.00    +0.000 C 
BRANCH  24  25
ATOM     25  C   UNL     1      -3.145  11.470  16.962  0.00  0.00    +0.000 C 
BRANCH  25  26
ATOM     26  O   UNL     1      -3.129  11.316  15.551  0.00  0.00    +0.000 OA
ATOM     27  H   UNL     1      -3.982  10.888  15.320  0.00  0.00    +0.000 HD
ENDBRANCH  25  26
ENDBRANCH  24  25
ENDBRANCH   6  24
TORSDOF 9
ENDMDL
