MODEL 1
REMARK VINA RESULT:      -9.4      0.000      0.000
REMARK  Name = 
REMARK  8 active torsions:
REMARK  status: ('A' for Active; 'I' for Inactive)
REMARK    1  A    between atoms: C_2  and  C_3
REMARK    2  A    between atoms: C_3  and  N_4
REMARK    3  A    between atoms: C_5  and  C_7
REMARK    4  A    between atoms: C_11  and  C_12
REMARK    5  A    between atoms: N_17  and  C_18
REMARK    6  A    between atoms: N_20  and  C_21
REMARK    7  A    between atoms: C_24  and  C_25
REMARK    8  A    between atoms: C_34  and  O_35
REMARK                            x       y       z     vdW  Elec       q    Type
REMARK                         _______ _______ _______ _____ _____    ______ ____
ROOT
ATOM      1  O   UNL     1       7.227   5.943  20.021  0.00  0.00    +0.000 OA
ATOM      2  C   UNL     1       7.380   5.753  18.808  0.00  0.00    +0.000 C 
ATOM      3  N   UNL     1       7.086   4.506  18.327  0.00  0.00    +0.000 N 
ATOM      4  H   UNL     1       6.706   3.938  19.074  0.00  0.00    +0.000 HD
ENDROOT
BRANCH   3   5
ATOM      5  C   UNL     1       6.682   4.121  16.963  0.00  0.00    +0.000 C 
ATOM      6  C   UNL     1       5.178   3.881  16.761  0.00  0.00    +0.000 C 
ATOM      7  N   UNL     1       4.547   5.176  16.436  0.00  0.00    +0.000 NA
ATOM      8  C   UNL     1       5.583   5.887  15.652  0.00  0.00    +0.000 C 
ATOM      9  C   UNL     1       6.942   5.229  15.922  0.00  0.00    +0.000 C 
BRANCH   7  10
ATOM     10  C   UNL     1       4.072   5.977  17.587  0.00  0.00    +0.000 C 
ATOM     11  C   UNL     1       3.375   7.244  17.044  0.00  0.00    +0.000 C 
ATOM     12  C   UNL     1       2.980   8.169  18.171  0.00  0.00    +0.000 C 
ATOM     13  C   UNL     1       1.949   7.508  19.090  0.00  0.00    +0.000 C 
ATOM     14  C   UNL     1       2.533   6.196  19.648  0.00  0.00    +0.000 C 
ATOM     15  C   UNL     1       3.051   5.263  18.521  0.00  0.00    +0.000 C 
BRANCH  13  16
ATOM     16  C   UNL     1       1.518   8.593  20.065  0.00  0.00    +0.000 A 
ATOM     17  C   UNL     1       1.465   8.269  21.436  0.00  0.00    +0.000 A 
ATOM     18  C   UNL     1       0.815   9.100  22.349  0.00  0.00    +0.000 A 
ATOM     19  C   UNL     1       0.225  10.280  21.910  0.00  0.00    +0.000 A 
ATOM     20  C   UNL     1       0.307  10.639  20.565  0.00  0.00    +0.000 A 
ATOM     21  C   UNL     1       0.951   9.804  19.646  0.00  0.00    +0.000 A 
ENDBRANCH  13  16
ENDBRANCH   7  10
BRANCH   9  22
ATOM     22  O   UNL     1       7.467   4.682  14.707  0.00  0.00    +0.000 OA
ATOM     23  H   UNL     1       7.518   5.403  14.054  0.00  0.00    +0.000 HD
ENDBRANCH   9  22
ENDBRANCH   3   5
BRANCH   2  24
ATOM     24  C   UNL     1       7.890   6.890  17.909  0.00  0.00    +0.000 C 
BRANCH  24  25
ATOM     25  N   UNL     1       8.542   8.009  18.581  0.00  0.00    +0.000 N 
ATOM     26  C   UNL     1       8.293   9.296  18.152  0.00  0.00    +0.000 C 
ATOM     27  O   UNL     1       7.458   9.543  17.288  0.00  0.00    +0.000 OA
ATOM     28  H   UNL     1       9.395   7.812  19.082  0.00  0.00    +0.000 HD
BRANCH  26  29
ATOM     29  C   UNL     1       9.103  10.417  18.706  0.00  0.00    +0.000 A 
ATOM     30  C   UNL     1       9.296  10.408  20.094  0.00  0.00    +0.000 A 
ATOM     31  C   UNL     1      10.087  11.371  20.721  0.00  0.00    +0.000 A 
ATOM     32  C   UNL     1      10.691  12.361  19.952  0.00  0.00    +0.000 A 
ATOM     33  C   UNL     1      10.509  12.404  18.560  0.00  0.00    +0.000 A 
ATOM     34  C   UNL     1       9.706  11.424  17.935  0.00  0.00    +0.000 A 
BRANCH  33  35
ATOM     35  C   UNL     1      11.181  13.489  17.748  0.00  0.00    +0.000 C 
ATOM     36  F   UNL     1      12.333  13.954  18.308  0.00  0.00    +0.000 F 
ATOM     37  F   UNL     1      11.516  13.073  16.496  0.00  0.00    +0.000 F 
ATOM     38  F   UNL     1      10.383  14.579  17.582  0.00  0.00    +0.000 F 
ENDBRANCH  33  35
ENDBRANCH  26  29
ENDBRANCH  24  25
ENDBRANCH   2  24
TORSDOF 8
ENDMDL
MODEL 2
REMARK VINA RESULT:      -9.3      1.970      3.091
REMARK  Name = 
REMARK  8 active torsions:
REMARK  status: ('A' for Active; 'I' for Inactive)
REMARK    1  A    between atoms: C_2  and  C_3
REMARK    2  A    between atoms: C_3  and  N_4
REMARK    3  A    between atoms: C_5  and  C_7
REMARK    4  A    between atoms: C_11  and  C_12
REMARK    5  A    between atoms: N_17  and  C_18
REMARK    6  A    between atoms: N_20  and  C_21
REMARK    7  A    between atoms: C_24  and  C_25
REMARK    8  A    between atoms: C_34  and  O_35
REMARK                            x       y       z     vdW  Elec       q    Type
REMARK                         _______ _______ _______ _____ _____    ______ ____
ROOT
ATOM      1  O   UNL     1       5.141   6.915  15.389  0.00  0.00    +0.000 OA
ATOM      2  C   UNL     1       5.462   6.253  16.384  0.00  0.00    +0.000 C 
ATOM      3  N   UNL     1       4.547   5.353  16.860  0.00  0.00    +0.000 N 
ATOM      4  H   UNL     1       3.746   5.329  16.241  0.00  0.00    +0.000 HD
ENDROOT
BRANCH   3   5
ATOM      5  C   UNL     1       4.788   4.126  17.640  0.00  0.00    +0.000 C 
ATOM      6  C   UNL     1       4.696   4.283  19.166  0.00  0.00    +0.000 C 
ATOM      7  N   UNL     1       3.287   4.095  19.561  0.00  0.00    +0.000 NA
ATOM      8  C   UNL     1       2.783   3.081  18.605  0.00  0.00    +0.000 C 
ATOM      9  C   UNL     1       3.723   3.037  17.395  0.00  0.00    +0.000 C 
BRANCH   7  10
ATOM     10  C   UNL     1       2.445   5.313  19.575  0.00  0.00    +0.000 C 
ATOM     11  C   UNL     1       1.811   5.451  20.978  0.00  0.00    +0.000 C 
ATOM     12  C   UNL     1       0.837   6.606  21.020  0.00  0.00    +0.000 C 
ATOM     13  C   UNL     1       1.551   7.937  20.770  0.00  0.00    +0.000 C 
ATOM     14  C   UNL     1       2.266   7.883  19.406  0.00  0.00    +0.000 C 
ATOM     15  C   UNL     1       3.195   6.646  19.283  0.00  0.00    +0.000 C 
BRANCH  13  16
ATOM     16  C   UNL     1       0.501   9.012  21.007  0.00  0.00    +0.000 A 
ATOM     17  C   UNL     1       0.275   9.954  19.983  0.00  0.00    +0.000 A 
ATOM     18  C   UNL     1      -0.447  11.123  20.225  0.00  0.00    +0.000 A 
ATOM     19  C   UNL     1      -0.974  11.360  21.490  0.00  0.00    +0.000 A 
ATOM     20  C   UNL     1      -0.799  10.417  22.502  0.00  0.00    +0.000 A 
ATOM     21  C   UNL     1      -0.068   9.249  22.265  0.00  0.00    +0.000 A 
ENDBRANCH  13  16
ENDBRANCH   7  10
BRANCH   9  22
ATOM     22  O   UNL     1       4.326   1.742  17.294  0.00  0.00    +0.000 OA
ATOM     23  H   UNL     1       3.637   1.115  17.005  0.00  0.00    +0.000 HD
ENDBRANCH   9  22
ENDBRANCH   3   5
BRANCH   2  24
ATOM     24  C   UNL     1       6.835   6.466  17.042  0.00  0.00    +0.000 C 
BRANCH  24  25
ATOM     25  N   UNL     1       7.333   7.836  17.078  0.00  0.00    +0.000 N 
ATOM     26  C   UNL     1       8.197   8.217  18.084  0.00  0.00    +0.000 C 
ATOM     27  O   UNL     1       8.646   7.413  18.895  0.00  0.00    +0.000 OA
ATOM     28  H   UNL     1       6.785   8.539  16.606  0.00  0.00    +0.000 HD
BRANCH  26  29
ATOM     29  C   UNL     1       8.550   9.657  18.234  0.00  0.00    +0.000 A 
ATOM     30  C   UNL     1       7.853  10.550  17.408  0.00  0.00    +0.000 A 
ATOM     31  C   UNL     1       8.052  11.928  17.501  0.00  0.00    +0.000 A 
ATOM     32  C   UNL     1       8.964  12.422  18.429  0.00  0.00    +0.000 A 
ATOM     33  C   UNL     1       9.685  11.554  19.264  0.00  0.00    +0.000 A 
ATOM     34  C   UNL     1       9.475  10.160  19.163  0.00  0.00    +0.000 A 
BRANCH  33  35
ATOM     35  C   UNL     1      10.666  12.119  20.267  0.00  0.00    +0.000 C 
ATOM     36  F   UNL     1      11.034  13.405  20.004  0.00  0.00    +0.000 F 
ATOM     37  F   UNL     1      10.173  12.125  21.535  0.00  0.00    +0.000 F 
ATOM     38  F   UNL     1      11.824  11.405  20.316  0.00  0.00    +0.000 F 
ENDBRANCH  33  35
ENDBRANCH  26  29
ENDBRANCH  24  25
ENDBRANCH   2  24
TORSDOF 8
ENDMDL
MODEL 3
REMARK VINA RESULT:      -9.3      7.447     11.844
REMARK  Name = 
REMARK  8 active torsions:
REMARK  status: ('A' for Active; 'I' for Inactive)
REMARK    1  A    between atoms: C_2  and  C_3
REMARK    2  A    between atoms: C_3  and  N_4
REMARK    3  A    between atoms: C_5  and  C_7
REMARK    4  A    between atoms: C_11  and  C_12
REMARK    5  A    between atoms: N_17  and  C_18
REMARK    6  A    between atoms: N_20  and  C_21
REMARK    7  A    between atoms: C_24  and  C_25
REMARK    8  A    between atoms: C_34  and  O_35
REMARK                            x       y       z     vdW  Elec       q    Type
REMARK                         _______ _______ _______ _____ _____    ______ ____
ROOT
ATOM      1  O   UNL     1      -3.312  10.318  15.943  0.00  0.00    +0.000 OA
ATOM      2  C   UNL     1      -3.350  10.953  17.004  0.00  0.00    +0.000 C 
ATOM      3  N   UNL     1      -2.202  11.001  17.748  0.00  0.00    +0.000 N 
ATOM      4  H   UNL     1      -1.454  10.542  17.243  0.00  0.00    +0.000 HD
ENDROOT
BRANCH   3   5
ATOM      5  C   UNL     1      -1.781  12.026  18.720  0.00  0.00    +0.000 C 
ATOM      6  C   UNL     1      -1.257  11.491  20.062  0.00  0.00    +0.000 C 
ATOM      7  N   UNL     1       0.189  11.230  19.916  0.00  0.00    +0.000 NA
ATOM      8  C   UNL     1       0.649  12.288  18.987  0.00  0.00    +0.000 C 
ATOM      9  C   UNL     1      -0.567  12.848  18.240  0.00  0.00    +0.000 C 
BRANCH   7  10
ATOM     10  C   UNL     1       0.563   9.876  19.446  0.00  0.00    +0.000 C 
ATOM     11  C   UNL     1       1.629  10.023  18.337  0.00  0.00    +0.000 C 
ATOM     12  C   UNL     1       1.960   8.682  17.725  0.00  0.00    +0.000 C 
ATOM     13  C   UNL     1       2.587   7.744  18.760  0.00  0.00    +0.000 C 
ATOM     14  C   UNL     1       1.616   7.572  19.944  0.00  0.00    +0.000 C 
ATOM     15  C   UNL     1       1.166   8.936  20.531  0.00  0.00    +0.000 C 
BRANCH  13  16
ATOM     16  C   UNL     1       3.021   6.512  17.981  0.00  0.00    +0.000 A 
ATOM     17  C   UNL     1       2.264   5.332  18.132  0.00  0.00    +0.000 A 
ATOM     18  C   UNL     1       2.750   4.102  17.690  0.00  0.00    +0.000 A 
ATOM     19  C   UNL     1       3.994   4.032  17.072  0.00  0.00    +0.000 A 
ATOM     20  C   UNL     1       4.737   5.195  16.875  0.00  0.00    +0.000 A 
ATOM     21  C   UNL     1       4.256   6.429  17.323  0.00  0.00    +0.000 A 
ENDBRANCH  13  16
ENDBRANCH   7  10
BRANCH   9  22
ATOM     22  O   UNL     1      -0.732  14.237  18.550  0.00  0.00    +0.000 OA
ATOM     23  H   UNL     1      -0.523  14.357  19.495  0.00  0.00    +0.000 HD
ENDBRANCH   9  22
ENDBRANCH   3   5
BRANCH   2  24
ATOM     24  C   UNL     1      -4.653  11.640  17.445  0.00  0.00    +0.000 C 
BRANCH  24  25
ATOM     25  N   UNL     1      -4.800  11.902  18.872  0.00  0.00    +0.000 N 
ATOM     26  C   UNL     1      -5.649  12.903  19.294  0.00  0.00    +0.000 C 
ATOM     27  O   UNL     1      -6.370  13.517  18.513  0.00  0.00    +0.000 OA
ATOM     28  H   UNL     1      -4.046  11.607  19.475  0.00  0.00    +0.000 HD
BRANCH  26  29
ATOM     29  C   UNL     1      -5.652  13.300  20.730  0.00  0.00    +0.000 A 
ATOM     30  C   UNL     1      -6.631  14.228  21.109  0.00  0.00    +0.000 A 
ATOM     31  C   UNL     1      -6.773  14.630  22.438  0.00  0.00    +0.000 A 
ATOM     32  C   UNL     1      -5.920  14.100  23.403  0.00  0.00    +0.000 A 
ATOM     33  C   UNL     1      -4.923  13.176  23.053  0.00  0.00    +0.000 A 
ATOM     34  C   UNL     1      -4.789  12.776  21.705  0.00  0.00    +0.000 A 
BRANCH  33  35
ATOM     35  C   UNL     1      -4.012  12.614  24.123  0.00  0.00    +0.000 C 
ATOM     36  F   UNL     1      -3.278  13.564  24.768  0.00  0.00    +0.000 F 
ATOM     37  F   UNL     1      -4.696  11.949  25.094  0.00  0.00    +0.000 F 
ATOM     38  F   UNL     1      -3.111  11.726  23.621  0.00  0.00    +0.000 F 
ENDBRANCH  33  35
ENDBRANCH  26  29
ENDBRANCH  24  25
ENDBRANCH   2  24
TORSDOF 8
ENDMDL
MODEL 4
REMARK VINA RESULT:      -9.1      5.769      6.988
REMARK  Name = 
REMARK  8 active torsions:
REMARK  status: ('A' for Active; 'I' for Inactive)
REMARK    1  A    between atoms: C_2  and  C_3
REMARK    2  A    between atoms: C_3  and  N_4
REMARK    3  A    between atoms: C_5  and  C_7
REMARK    4  A    between atoms: C_11  and  C_12
REMARK    5  A    between atoms: N_17  and  C_18
REMARK    6  A    between atoms: N_20  and  C_21
REMARK    7  A    between atoms: C_24  and  C_25
REMARK    8  A    between atoms: C_34  and  O_35
REMARK                            x       y       z     vdW  Elec       q    Type
REMARK                         _______ _______ _______ _____ _____    ______ ____
ROOT
ATOM      1  O   UNL     1       5.896   6.385  18.293  0.00  0.00    +0.000 OA
ATOM      2  C   UNL     1       5.925   5.166  18.505  0.00  0.00    +0.000 C 
ATOM      3  N   UNL     1       4.927   4.640  19.280  0.00  0.00    +0.000 N 
ATOM      4  H   UNL     1       4.258   5.366  19.505  0.00  0.00    +0.000 HD
ENDROOT
BRANCH   3   5
ATOM      5  C   UNL     1       4.403   3.263  19.291  0.00  0.00    +0.000 C 
ATOM      6  C   UNL     1       3.148   3.038  20.149  0.00  0.00    +0.000 C 
ATOM      7  N   UNL     1       1.966   3.337  19.318  0.00  0.00    +0.000 NA
ATOM      8  C   UNL     1       2.367   2.901  17.960  0.00  0.00    +0.000 C 
ATOM      9  C   UNL     1       3.896   2.801  17.909  0.00  0.00    +0.000 C 
BRANCH   7  10
ATOM     10  C   UNL     1       1.494   4.741  19.335  0.00  0.00    +0.000 C 
ATOM     11  C   UNL     1       1.804   5.342  20.724  0.00  0.00    +0.000 C 
ATOM     12  C   UNL     1       1.231   6.735  20.850  0.00  0.00    +0.000 C 
ATOM     13  C   UNL     1       1.883   7.690  19.847  0.00  0.00    +0.000 C 
ATOM     14  C   UNL     1       1.675   7.148  18.420  0.00  0.00    +0.000 C 
ATOM     15  C   UNL     1       2.152   5.679  18.279  0.00  0.00    +0.000 C 
BRANCH  13  16
ATOM     16  C   UNL     1       1.347   9.071  20.194  0.00  0.00    +0.000 A 
ATOM     17  C   UNL     1       0.898   9.295  21.511  0.00  0.00    +0.000 A 
ATOM     18  C   UNL     1       0.137  10.420  21.832  0.00  0.00    +0.000 A 
ATOM     19  C   UNL     1      -0.170  11.351  20.845  0.00  0.00    +0.000 A 
ATOM     20  C   UNL     1       0.304  11.168  19.547  0.00  0.00    +0.000 A 
ATOM     21  C   UNL     1       1.060  10.037  19.220  0.00  0.00    +0.000 A 
ENDBRANCH  13  16
ENDBRANCH   7  10
BRANCH   9  22
ATOM     22  O   UNL     1       4.286   1.448  17.644  0.00  0.00    +0.000 OA
ATOM     23  H   UNL     1       4.203   0.946  18.475  0.00  0.00    +0.000 HD
ENDBRANCH   9  22
ENDBRANCH   3   5
BRANCH   2  24
ATOM     24  C   UNL     1       7.055   4.308  17.913  0.00  0.00    +0.000 C 
BRANCH  24  25
ATOM     25  N   UNL     1       6.982   4.033  16.483  0.00  0.00    +0.000 N 
ATOM     26  C   UNL     1       7.278   5.036  15.584  0.00  0.00    +0.000 C 
ATOM     27  O   UNL     1       7.703   6.129  15.945  0.00  0.00    +0.000 OA
ATOM     28  H   UNL     1       6.398   3.264  16.190  0.00  0.00    +0.000 HD
BRANCH  26  29
ATOM     29  C   UNL     1       7.017   4.815  14.133  0.00  0.00    +0.000 A 
ATOM     30  C   UNL     1       7.968   5.345  13.250  0.00  0.00    +0.000 A 
ATOM     31  C   UNL     1       7.864   5.150  11.872  0.00  0.00    +0.000 A 
ATOM     32  C   UNL     1       6.793   4.418  11.368  0.00  0.00    +0.000 A 
ATOM     33  C   UNL     1       5.818   3.883  12.225  0.00  0.00    +0.000 A 
ATOM     34  C   UNL     1       5.933   4.086  13.618  0.00  0.00    +0.000 A 
BRANCH  33  35
ATOM     35  C   UNL     1       4.666   3.089  11.650  0.00  0.00    +0.000 C 
ATOM     36  F   UNL     1       5.014   1.831  11.259  0.00  0.00    +0.000 F 
ATOM     37  F   UNL     1       3.644   2.935  12.535  0.00  0.00    +0.000 F 
ATOM     38  F   UNL     1       4.127   3.683  10.550  0.00  0.00    +0.000 F 
ENDBRANCH  33  35
ENDBRANCH  26  29
ENDBRANCH  24  25
ENDBRANCH   2  24
TORSDOF 8
ENDMDL
MODEL 5
REMARK VINA RESULT:      -8.9      5.224      8.608
REMARK  Name = 
REMARK  8 active torsions:
REMARK  status: ('A' for Active; 'I' for Inactive)
REMARK    1  A    between atoms: C_2  and  C_3
REMARK    2  A    between atoms: C_3  and  N_4
REMARK    3  A    between atoms: C_5  and  C_7
REMARK    4  A    between atoms: C_11  and  C_12
REMARK    5  A    between atoms: N_17  and  C_18
REMARK    6  A    between atoms: N_20  and  C_21
REMARK    7  A    between atoms: C_24  and  C_25
REMARK    8  A    between atoms: C_34  and  O_35
REMARK                            x       y       z     vdW  Elec       q    Type
REMARK                         _______ _______ _______ _____ _____    ______ ____
ROOT
ATOM      1  O   UNL     1       1.736   9.294  22.771  0.00  0.00    +0.000 OA
ATOM      2  C   UNL     1       1.299   9.060  21.637  0.00  0.00    +0.000 C 
ATOM      3  N   UNL     1       0.902  10.132  20.884  0.00  0.00    +0.000 N 
ATOM      4  H   UNL     1       1.109  10.988  21.384  0.00  0.00    +0.000 HD
ENDROOT
BRANCH   3   5
ATOM      5  C   UNL     1       0.836  10.248  19.417  0.00  0.00    +0.000 C 
ATOM      6  C   UNL     1      -0.578  10.341  18.823  0.00  0.00    +0.000 C 
ATOM      7  N   UNL     1      -0.980  11.761  18.817  0.00  0.00    +0.000 NA
ATOM      8  C   UNL     1       0.285  12.487  18.562  0.00  0.00    +0.000 C 
ATOM      9  C   UNL     1       1.460  11.556  18.887  0.00  0.00    +0.000 C 
BRANCH   7  10
ATOM     10  C   UNL     1      -1.665  12.250  20.036  0.00  0.00    +0.000 C 
ATOM     11  C   UNL     1      -1.058  13.617  20.421  0.00  0.00    +0.000 C 
ATOM     12  C   UNL     1      -1.625  14.111  21.732  0.00  0.00    +0.000 C 
ATOM     13  C   UNL     1      -3.132  14.360  21.620  0.00  0.00    +0.000 C 
ATOM     14  C   UNL     1      -3.831  13.057  21.186  0.00  0.00    +0.000 C 
ATOM     15  C   UNL     1      -3.202  12.459  19.900  0.00  0.00    +0.000 C 
BRANCH  13  16
ATOM     16  C   UNL     1      -3.535  15.006  22.936  0.00  0.00    +0.000 A 
ATOM     17  C   UNL     1      -4.877  15.411  23.092  0.00  0.00    +0.000 A 
ATOM     18  C   UNL     1      -5.259  16.258  24.133  0.00  0.00    +0.000 A 
ATOM     19  C   UNL     1      -4.310  16.698  25.049  0.00  0.00    +0.000 A 
ATOM     20  C   UNL     1      -2.987  16.271  24.936  0.00  0.00    +0.000 A 
ATOM     21  C   UNL     1      -2.599  15.429  23.890  0.00  0.00    +0.000 A 
ENDBRANCH  13  16
ENDBRANCH   7  10
BRANCH   9  22
ATOM     22  O   UNL     1       2.232  11.316  17.706  0.00  0.00    +0.000 OA
ATOM     23  H   UNL     1       1.775  11.745  16.959  0.00  0.00    +0.000 HD
ENDBRANCH   9  22
ENDBRANCH   3   5
BRANCH   2  24
ATOM     24  C   UNL     1       1.211   7.612  21.129  0.00  0.00    +0.000 C 
BRANCH  24  25
ATOM     25  N   UNL     1       2.203   7.208  20.138  0.00  0.00    +0.000 N 
ATOM     26  C   UNL     1       2.396   5.868  19.879  0.00  0.00    +0.000 C 
ATOM     27  O   UNL     1       1.687   5.000  20.380  0.00  0.00    +0.000 OA
ATOM     28  H   UNL     1       2.943   7.862  19.935  0.00  0.00    +0.000 HD
BRANCH  26  29
ATOM     29  C   UNL     1       3.537   5.449  19.017  0.00  0.00    +0.000 A 
ATOM     30  C   UNL     1       3.196   4.850  17.796  0.00  0.00    +0.000 A 
ATOM     31  C   UNL     1       4.176   4.473  16.877  0.00  0.00    +0.000 A 
ATOM     32  C   UNL     1       5.516   4.692  17.183  0.00  0.00    +0.000 A 
ATOM     33  C   UNL     1       5.890   5.280  18.401  0.00  0.00    +0.000 A 
ATOM     34  C   UNL     1       4.890   5.660  19.324  0.00  0.00    +0.000 A 
BRANCH  33  35
ATOM     35  C   UNL     1       7.354   5.510  18.706  0.00  0.00    +0.000 C 
ATOM     36  F   UNL     1       8.171   4.531  18.224  0.00  0.00    +0.000 F 
ATOM     37  F   UNL     1       7.820   6.676  18.181  0.00  0.00    +0.000 F 
ATOM     38  F   UNL     1       7.600   5.573  20.043  0.00  0.00    +0.000 F 
ENDBRANCH  33  35
ENDBRANCH  26  29
ENDBRANCH  24  25
ENDBRANCH   2  24
TORSDOF 8
ENDMDL
MODEL 6
REMARK VINA RESULT:      -8.9      7.570     11.880
REMARK  Name = 
REMARK  8 active torsions:
REMARK  status: ('A' for Active; 'I' for Inactive)
REMARK    1  A    between atoms: C_2  and  C_3
REMARK    2  A    between atoms: C_3  and  N_4
REMARK    3  A    between atoms: C_5  and  C_7
REMARK    4  A    between atoms: C_11  and  C_12
REMARK    5  A    between atoms: N_17  and  C_18
REMARK    6  A    between atoms: N_20  and  C_21
REMARK    7  A    between atoms: C_24  and  C_25
REMARK    8  A    between atoms: C_34  and  O_35
REMARK                            x       y       z     vdW  Elec       q    Type
REMARK                         _______ _______ _______ _____ _____    ______ ____
ROOT
ATOM      1  O   UNL     1      -2.566   9.995  15.660  0.00  0.00    +0.000 OA
ATOM      2  C   UNL     1      -2.702  10.691  16.674  0.00  0.00    +0.000 C 
ATOM      3  N   UNL     1      -1.636  10.769  17.529  0.00  0.00    +0.000 N 
ATOM      4  H   UNL     1      -0.848  10.273  17.131  0.00  0.00    +0.000 HD
ENDROOT
BRANCH   3   5
ATOM      5  C   UNL     1      -1.299  11.844  18.480  0.00  0.00    +0.000 C 
ATOM      6  C   UNL     1      -1.121  11.405  19.941  0.00  0.00    +0.000 C 
ATOM      7  N   UNL     1       0.282  10.987  20.126  0.00  0.00    +0.000 NA
ATOM      8  C   UNL     1       1.042  11.890  19.230  0.00  0.00    +0.000 C 
ATOM      9  C   UNL     1       0.075  12.486  18.200  0.00  0.00    +0.000 C 
BRANCH   7  10
ATOM     10  C   UNL     1       0.579   9.561  19.859  0.00  0.00    +0.000 C 
ATOM     11  C   UNL     1       1.750   9.486  18.854  0.00  0.00    +0.000 C 
ATOM     12  C   UNL     1       2.018   8.057  18.441  0.00  0.00    +0.000 C 
ATOM     13  C   UNL     1       2.464   7.213  19.638  0.00  0.00    +0.000 C 
ATOM     14  C   UNL     1       1.378   7.265  20.729  0.00  0.00    +0.000 C 
ATOM     15  C   UNL     1       0.996   8.722  21.103  0.00  0.00    +0.000 C 
BRANCH  13  16
ATOM     16  C   UNL     1       2.859   5.864  19.058  0.00  0.00    +0.000 A 
ATOM     17  C   UNL     1       4.149   5.372  19.344  0.00  0.00    +0.000 A 
ATOM     18  C   UNL     1       4.688   4.301  18.630  0.00  0.00    +0.000 A 
ATOM     19  C   UNL     1       3.937   3.690  17.631  0.00  0.00    +0.000 A 
ATOM     20  C   UNL     1       2.643   4.135  17.365  0.00  0.00    +0.000 A 
ATOM     21  C   UNL     1       2.103   5.213  18.074  0.00  0.00    +0.000 A 
ENDBRANCH  13  16
ENDBRANCH   7  10
BRANCH   9  22
ATOM     22  O   UNL     1       0.019  13.909  18.352  0.00  0.00    +0.000 OA
ATOM     23  H   UNL     1      -0.641  14.108  19.041  0.00  0.00    +0.000 HD
ENDBRANCH   9  22
ENDBRANCH   3   5
BRANCH   2  24
ATOM     24  C   UNL     1      -4.031  11.417  16.937  0.00  0.00    +0.000 C 
BRANCH  24  25
ATOM     25  N   UNL     1      -4.435  11.549  18.333  0.00  0.00    +0.000 N 
ATOM     26  C   UNL     1      -5.775  11.655  18.643  0.00  0.00    +0.000 C 
ATOM     27  O   UNL     1      -6.651  11.538  17.792  0.00  0.00    +0.000 OA
ATOM     28  H   UNL     1      -3.749  11.905  18.980  0.00  0.00    +0.000 HD
BRANCH  26  29
ATOM     29  C   UNL     1      -6.175  11.983  20.041  0.00  0.00    +0.000 A 
ATOM     30  C   UNL     1      -7.450  11.550  20.432  0.00  0.00    +0.000 A 
ATOM     31  C   UNL     1      -7.912  11.745  21.734  0.00  0.00    +0.000 A 
ATOM     32  C   UNL     1      -7.091  12.384  22.659  0.00  0.00    +0.000 A 
ATOM     33  C   UNL     1      -5.813  12.838  22.295  0.00  0.00    +0.000 A 
ATOM     34  C   UNL     1      -5.355  12.636  20.974  0.00  0.00    +0.000 A 
BRANCH  33  35
ATOM     35  C   UNL     1      -4.941  13.526  23.321  0.00  0.00    +0.000 C 
ATOM     36  F   UNL     1      -5.642  14.276  24.218  0.00  0.00    +0.000 F 
ATOM     37  F   UNL     1      -4.211  12.648  24.061  0.00  0.00    +0.000 F 
ATOM     38  F   UNL     1      -4.043  14.376  22.751  0.00  0.00    +0.000 F 
ENDBRANCH  33  35
ENDBRANCH  26  29
ENDBRANCH  24  25
ENDBRANCH   2  24
TORSDOF 8
ENDMDL
MODEL 7
REMARK VINA RESULT:      -8.8      2.055      3.186
REMARK  Name = 
REMARK  8 active torsions:
REMARK  status: ('A' for Active; 'I' for Inactive)
REMARK    1  A    between atoms: C_2  and  C_3
REMARK    2  A    between atoms: C_3  and  N_4
REMARK    3  A    between atoms: C_5  and  C_7
REMARK    4  A    between atoms: C_11  and  C_12
REMARK    5  A    between atoms: N_17  and  C_18
REMARK    6  A    between atoms: N_20  and  C_21
REMARK    7  A    between atoms: C_24  and  C_25
REMARK    8  A    between atoms: C_34  and  O_35
REMARK                            x       y       z     vdW  Elec       q    Type
REMARK                         _______ _______ _______ _____ _____    ______ ____
ROOT
ATOM      1  O   UNL     1       5.407   6.816  15.240  0.00  0.00    +0.000 OA
ATOM      2  C   UNL     1       5.604   6.405  16.390  0.00  0.00    +0.000 C 
ATOM      3  N   UNL     1       4.581   5.731  17.000  0.00  0.00    +0.000 N 
ATOM      4  H   UNL     1       3.817   5.616  16.345  0.00  0.00    +0.000 HD
ENDROOT
BRANCH   3   5
ATOM      5  C   UNL     1       4.656   4.728  18.077  0.00  0.00    +0.000 C 
ATOM      6  C   UNL     1       4.387   5.255  19.494  0.00  0.00    +0.000 C 
ATOM      7  N   UNL     1       2.931   5.204  19.734  0.00  0.00    +0.000 NA
ATOM      8  C   UNL     1       2.492   4.001  18.991  0.00  0.00    +0.000 C 
ATOM      9  C   UNL     1       3.569   3.638  17.961  0.00  0.00    +0.000 C 
BRANCH   7  10
ATOM     10  C   UNL     1       2.163   6.409  19.344  0.00  0.00    +0.000 C 
ATOM     11  C   UNL     1       1.804   7.194  20.626  0.00  0.00    +0.000 C 
ATOM     12  C   UNL     1       0.909   8.369  20.308  0.00  0.00    +0.000 C 
ATOM     13  C   UNL     1       1.626   9.379  19.409  0.00  0.00    +0.000 C 
ATOM     14  C   UNL     1       2.076   8.677  18.113  0.00  0.00    +0.000 C 
ATOM     15  C   UNL     1       2.908   7.400  18.401  0.00  0.00    +0.000 C 
BRANCH  13  16
ATOM     16  C   UNL     1       0.687  10.572  19.310  0.00  0.00    +0.000 A 
ATOM     17  C   UNL     1      -0.694  10.344  19.480  0.00  0.00    +0.000 A 
ATOM     18  C   UNL     1      -1.633  11.312  19.124  0.00  0.00    +0.000 A 
ATOM     19  C   UNL     1      -1.207  12.533  18.611  0.00  0.00    +0.000 A 
ATOM     20  C   UNL     1       0.156  12.792  18.479  0.00  0.00    +0.000 A 
ATOM     21  C   UNL     1       1.100  11.821  18.827  0.00  0.00    +0.000 A 
ENDBRANCH  13  16
ENDBRANCH   7  10
BRANCH   9  22
ATOM     22  O   UNL     1       4.106   2.343  18.254  0.00  0.00    +0.000 OA
ATOM     23  H   UNL     1       4.468   2.369  19.158  0.00  0.00    +0.000 HD
ENDBRANCH   9  22
ENDBRANCH   3   5
BRANCH   2  24
ATOM     24  C   UNL     1       6.953   6.665  17.080  0.00  0.00    +0.000 C 
BRANCH  24  25
ATOM     25  N   UNL     1       7.431   8.043  17.075  0.00  0.00    +0.000 N 
ATOM     26  C   UNL     1       8.255   8.478  18.092  0.00  0.00    +0.000 C 
ATOM     27  O   UNL     1       8.686   7.716  18.951  0.00  0.00    +0.000 OA
ATOM     28  H   UNL     1       6.890   8.717  16.555  0.00  0.00    +0.000 HD
BRANCH  26  29
ATOM     29  C   UNL     1       8.583   9.928  18.193  0.00  0.00    +0.000 A 
ATOM     30  C   UNL     1       7.813  10.789  17.398  0.00  0.00    +0.000 A 
ATOM     31  C   UNL     1       7.985  12.173  17.452  0.00  0.00    +0.000 A 
ATOM     32  C   UNL     1       8.944  12.705  18.309  0.00  0.00    +0.000 A 
ATOM     33  C   UNL     1       9.738  11.870  19.110  0.00  0.00    +0.000 A 
ATOM     34  C   UNL     1       9.555  10.470  19.048  0.00  0.00    +0.000 A 
BRANCH  33  35
ATOM     35  C   UNL     1      10.770  12.476  20.036  0.00  0.00    +0.000 C 
ATOM     36  F   UNL     1      11.559  11.552  20.652  0.00  0.00    +0.000 F 
ATOM     37  F   UNL     1      11.620  13.320  19.389  0.00  0.00    +0.000 F 
ATOM     38  F   UNL     1      10.203  13.205  21.035  0.00  0.00    +0.000 F 
ENDBRANCH  33  35
ENDBRANCH  26  29
ENDBRANCH  24  25
ENDBRANCH   2  24
TORSDOF 8
ENDMDL
MODEL 8
REMARK VINA RESULT:      -8.7      7.882     12.331
REMARK  Name = 
REMARK  8 active torsions:
REMARK  status: ('A' for Active; 'I' for Inactive)
REMARK    1  A    between atoms: C_2  and  C_3
REMARK    2  A    between atoms: C_3  and  N_4
REMARK    3  A    between atoms: C_5  and  C_7
REMARK    4  A    between atoms: C_11  and  C_12
REMARK    5  A    between atoms: N_17  and  C_18
REMARK    6  A    between atoms: N_20  and  C_21
REMARK    7  A    between atoms: C_24  and  C_25
REMARK    8  A    between atoms: C_34  and  O_35
REMARK                            x       y       z     vdW  Elec       q    Type
REMARK                         _______ _______ _______ _____ _____    ______ ____
ROOT
ATOM      1  O   UNL     1      -3.553   9.810  16.659  0.00  0.00    +0.000 OA
ATOM      2  C   UNL     1      -3.523  10.650  17.567  0.00  0.00    +0.000 C 
ATOM      3  N   UNL     1      -2.439  10.631  18.402  0.00  0.00    +0.000 N 
ATOM      4  H   UNL     1      -1.775   9.940  18.076  0.00  0.00    +0.000 HD
ENDROOT
BRANCH   3   5
ATOM      5  C   UNL     1      -1.873  11.737  19.195  0.00  0.00    +0.000 C 
ATOM      6  C   UNL     1      -1.065  11.319  20.433  0.00  0.00    +0.000 C 
ATOM      7  N   UNL     1       0.331  11.086  20.012  0.00  0.00    +0.000 NA
ATOM      8  C   UNL     1       0.548  12.084  18.939  0.00  0.00    +0.000 C 
ATOM      9  C   UNL     1      -0.817  12.554  18.421  0.00  0.00    +0.000 C 
BRANCH   7  10
ATOM     10  C   UNL     1       0.658   9.711  19.568  0.00  0.00    +0.000 C 
ATOM     11  C   UNL     1       1.584   9.805  18.336  0.00  0.00    +0.000 C 
ATOM     12  C   UNL     1       1.852   8.436  17.755  0.00  0.00    +0.000 C 
ATOM     13  C   UNL     1       2.603   7.552  18.754  0.00  0.00    +0.000 C 
ATOM     14  C   UNL     1       1.779   7.437  20.051  0.00  0.00    +0.000 C 
ATOM     15  C   UNL     1       1.391   8.827  20.620  0.00  0.00    +0.000 C 
BRANCH  13  16
ATOM     16  C   UNL     1       2.953   6.283  17.991  0.00  0.00    +0.000 A 
ATOM     17  C   UNL     1       2.040   5.210  18.037  0.00  0.00    +0.000 A 
ATOM     18  C   UNL     1       2.408   3.932  17.614  0.00  0.00    +0.000 A 
ATOM     19  C   UNL     1       3.688   3.710  17.119  0.00  0.00    +0.000 A 
ATOM     20  C   UNL     1       4.589   4.770  17.024  0.00  0.00    +0.000 A 
ATOM     21  C   UNL     1       4.226   6.050  17.454  0.00  0.00    +0.000 A 
ENDBRANCH  13  16
ENDBRANCH   7  10
BRANCH   9  22
ATOM     22  O   UNL     1      -0.972  13.956  18.664  0.00  0.00    +0.000 OA
ATOM     23  H   UNL     1      -0.866  14.106  19.621  0.00  0.00    +0.000 HD
ENDBRANCH   9  22
ENDBRANCH   3   5
BRANCH   2  24
ATOM     24  C   UNL     1      -4.677  11.653  17.728  0.00  0.00    +0.000 C 
BRANCH  24  25
ATOM     25  N   UNL     1      -4.979  12.083  19.088  0.00  0.00    +0.000 N 
ATOM     26  C   UNL     1      -6.288  12.088  19.522  0.00  0.00    +0.000 C 
ATOM     27  O   UNL     1      -7.203  11.643  18.836  0.00  0.00    +0.000 OA
ATOM     28  H   UNL     1      -4.306  12.681  19.544  0.00  0.00    +0.000 HD
BRANCH  26  29
ATOM     29  C   UNL     1      -6.618  12.708  20.837  0.00  0.00    +0.000 A 
ATOM     30  C   UNL     1      -7.570  12.033  21.613  0.00  0.00    +0.000 A 
ATOM     31  C   UNL     1      -7.916  12.483  22.888  0.00  0.00    +0.000 A 
ATOM     32  C   UNL     1      -7.305  13.626  23.394  0.00  0.00    +0.000 A 
ATOM     33  C   UNL     1      -6.354  14.330  22.638  0.00  0.00    +0.000 A 
ATOM     34  C   UNL     1      -6.011  13.866  21.349  0.00  0.00    +0.000 A 
BRANCH  33  35
ATOM     35  C   UNL     1      -5.703  15.568  23.215  0.00  0.00    +0.000 C 
ATOM     36  F   UNL     1      -6.010  15.784  24.525  0.00  0.00    +0.000 F 
ATOM     37  F   UNL     1      -4.344  15.519  23.154  0.00  0.00    +0.000 F 
ATOM     38  F   UNL     1      -6.070  16.700  22.556  0.00  0.00    +0.000 F 
ENDBRANCH  33  35
ENDBRANCH  26  29
ENDBRANCH  24  25
ENDBRANCH   2  24
TORSDOF 8
ENDMDL
MODEL 9
REMARK VINA RESULT:      -8.7      8.250     12.566
REMARK  Name = 
REMARK  8 active torsions:
REMARK  status: ('A' for Active; 'I' for Inactive)
REMARK    1  A    between atoms: C_2  and  C_3
REMARK    2  A    between atoms: C_3  and  N_4
REMARK    3  A    between atoms: C_5  and  C_7
REMARK    4  A    between atoms: C_11  and  C_12
REMARK    5  A    between atoms: N_17  and  C_18
REMARK    6  A    between atoms: N_20  and  C_21
REMARK    7  A    between atoms: C_24  and  C_25
REMARK    8  A    between atoms: C_34  and  O_35
REMARK                            x       y       z     vdW  Elec       q    Type
REMARK                         _______ _______ _______ _____ _____    ______ ____
ROOT
ATOM      1  O   UNL     1      -2.990  10.286  15.848  0.00  0.00    +0.000 OA
ATOM      2  C   UNL     1      -3.169  11.008  16.836  0.00  0.00    +0.000 C 
ATOM      3  N   UNL     1      -2.124  11.147  17.709  0.00  0.00    +0.000 N 
ATOM      4  H   UNL     1      -1.312  10.665  17.342  0.00  0.00    +0.000 HD
ENDROOT
BRANCH   3   5
ATOM      5  C   UNL     1      -1.841  12.261  18.632  0.00  0.00    +0.000 C 
ATOM      6  C   UNL     1      -1.650  11.869  20.105  0.00  0.00    +0.000 C 
ATOM      7  N   UNL     1      -0.229  11.521  20.306  0.00  0.00    +0.000 NA
ATOM      8  C   UNL     1       0.492  12.434  19.389  0.00  0.00    +0.000 C 
ATOM      9  C   UNL     1      -0.495  12.958  18.339  0.00  0.00    +0.000 C 
BRANCH   7  10
ATOM     10  C   UNL     1       0.134  10.103  20.078  0.00  0.00    +0.000 C 
ATOM     11  C   UNL     1       1.269  10.053  19.031  0.00  0.00    +0.000 C 
ATOM     12  C   UNL     1       1.598   8.626  18.659  0.00  0.00    +0.000 C 
ATOM     13  C   UNL     1       2.133   7.851  19.866  0.00  0.00    +0.000 C 
ATOM     14  C   UNL     1       1.086   7.887  20.997  0.00  0.00    +0.000 C 
ATOM     15  C   UNL     1       0.641   9.334  21.334  0.00  0.00    +0.000 C 
BRANCH  13  16
ATOM     16  C   UNL     1       2.578   6.504  19.320  0.00  0.00    +0.000 A 
ATOM     17  C   UNL     1       3.421   6.493  18.189  0.00  0.00    +0.000 A 
ATOM     18  C   UNL     1       3.636   5.322  17.462  0.00  0.00    +0.000 A 
ATOM     19  C   UNL     1       3.031   4.137  17.865  0.00  0.00    +0.000 A 
ATOM     20  C   UNL     1       2.231   4.120  19.006  0.00  0.00    +0.000 A 
ATOM     21  C   UNL     1       2.005   5.293  19.733  0.00  0.00    +0.000 A 
ENDBRANCH  13  16
ENDBRANCH   7  10
BRANCH   9  22
ATOM     22  O   UNL     1      -0.618  14.380  18.454  0.00  0.00    +0.000 OA
ATOM     23  H   UNL     1      -1.133  14.571  19.259  0.00  0.00    +0.000 HD
ENDBRANCH   9  22
ENDBRANCH   3   5
BRANCH   2  24
ATOM     24  C   UNL     1      -4.525  11.698  17.051  0.00  0.00    +0.000 C 
BRANCH  24  25
ATOM     25  N   UNL     1      -4.799  12.191  18.396  0.00  0.00    +0.000 N 
ATOM     26  C   UNL     1      -6.091  12.518  18.749  0.00  0.00    +0.000 C 
ATOM     27  O   UNL     1      -7.042  12.310  18.002  0.00  0.00    +0.000 OA
ATOM     28  H   UNL     1      -4.029  12.606  18.901  0.00  0.00    +0.000 HD
BRANCH  26  29
ATOM     29  C   UNL     1      -6.341  13.202  20.050  0.00  0.00    +0.000 A 
ATOM     30  C   UNL     1      -6.398  14.602  20.006  0.00  0.00    +0.000 A 
ATOM     31  C   UNL     1      -6.686  15.350  21.148  0.00  0.00    +0.000 A 
ATOM     32  C   UNL     1      -6.917  14.692  22.352  0.00  0.00    +0.000 A 
ATOM     33  C   UNL     1      -6.857  13.291  22.431  0.00  0.00    +0.000 A 
ATOM     34  C   UNL     1      -6.565  12.543  21.269  0.00  0.00    +0.000 A 
BRANCH  33  35
ATOM     35  C   UNL     1      -7.116  12.602  23.752  0.00  0.00    +0.000 C 
ATOM     36  F   UNL     1      -7.878  13.337  24.610  0.00  0.00    +0.000 F 
ATOM     37  F   UNL     1      -7.763  11.414  23.604  0.00  0.00    +0.000 F 
ATOM     38  F   UNL     1      -5.965  12.323  24.424  0.00  0.00    +0.000 F 
ENDBRANCH  33  35
ENDBRANCH  26  29
ENDBRANCH  24  25
ENDBRANCH   2  24
TORSDOF 8
ENDMDL
