MODEL 1
REMARK VINA RESULT:      -7.3      0.000      0.000
REMARK  Name = 
REMARK  7 active torsions:
REMARK  status: ('A' for Active; 'I' for Inactive)
REMARK    1  A    between atoms: C_1  and  C_2
REMARK    2  A    between atoms: C_2  and  C_3
REMARK    3  A    between atoms: C_3  and  C_4
REMARK    4  A    between atoms: C_4  and  C_5
REMARK    5  A    between atoms: C_5  and  C_6
REMARK    6  A    between atoms: C_6  and  N_7
REMARK    7  A    between atoms: N_7  and  C_8
REMARK                            x       y       z     vdW  Elec       q    Type
REMARK                         _______ _______ _______ _____ _____    ______ ____
ROOT
ATOM      1  N   UNL     1       4.047   3.124  18.666  0.00  0.00    +0.000 N 
ATOM      2  C   UNL     1       3.531   2.314  17.564  0.00  0.00    +0.000 C 
ATOM      3  C   UNL     1       5.218   3.926  18.617  0.00  0.00    +0.000 C 
ATOM      4  O   UNL     1       5.726   4.302  19.682  0.00  0.00    +0.000 OA
ATOM      5  N   UNL     1       5.723   4.328  17.382  0.00  0.00    +0.000 N 
ATOM      6  C   UNL     1       4.936   4.519  16.252  0.00  0.00    +0.000 A 
ATOM      7  C   UNL     1       5.427   4.766  15.038  0.00  0.00    +0.000 A 
ATOM      8  C   UNL     1       6.859   5.026  14.912  0.00  0.00    +0.000 A 
ATOM      9  O   UNL     1       7.389   5.150  13.816  0.00  0.00    +0.000 OA
ATOM     10  N   UNL     1       7.524   5.136  16.092  0.00  0.00    +0.000 N 
ATOM     11  C   UNL     1       7.092   4.621  17.299  0.00  0.00    +0.000 A 
ATOM     12  O   UNL     1       7.952   4.396  18.150  0.00  0.00    +0.000 OA
ATOM     13  H   UNL     1       8.520   5.287  16.032  0.00  0.00    +0.000 HD
ENDROOT
BRANCH   1  14
ATOM     14  C   UNL     1       3.557   2.766  20.002  0.00  0.00    +0.000 C 
BRANCH  14  15
ATOM     15  C   UNL     1       2.061   2.443  20.062  0.00  0.00    +0.000 C 
BRANCH  15  16
ATOM     16  C   UNL     1       1.192   3.613  20.524  0.00  0.00    +0.000 C 
BRANCH  16  17
ATOM     17  C   UNL     1       2.085   4.726  21.083  0.00  0.00    +0.000 C 
BRANCH  17  19
ATOM     18  C   UNL     1       2.649   6.505  19.402  0.00  0.00    +0.000 C 
ATOM     19  C   UNL     1       1.708   6.093  20.522  0.00  0.00    +0.000 C 
ENDBRANCH  17  19
ENDBRANCH  16  17
ENDBRANCH  15  16
ENDBRANCH  14  15
ENDBRANCH   1  14
TORSDOF 5
ENDMDL
MODEL 2
REMARK VINA RESULT:      -6.9      2.140      3.218
REMARK  Name = 
REMARK  7 active torsions:
REMARK  status: ('A' for Active; 'I' for Inactive)
REMARK    1  A    between atoms: C_1  and  C_2
REMARK    2  A    between atoms: C_2  and  C_3
REMARK    3  A    between atoms: C_3  and  C_4
REMARK    4  A    between atoms: C_4  and  C_5
REMARK    5  A    between atoms: C_5  and  C_6
REMARK    6  A    between atoms: C_6  and  N_7
REMARK    7  A    between atoms: N_7  and  C_8
REMARK                            x       y       z     vdW  Elec       q    Type
REMARK                         _______ _______ _______ _____ _____    ______ ____
ROOT
ATOM      1  N   UNL     1       4.659   3.519  18.047  0.00  0.00    +0.000 N 
ATOM      2  C   UNL     1       4.689   3.804  19.480  0.00  0.00    +0.000 C 
ATOM      3  C   UNL     1       5.157   4.376  17.029  0.00  0.00    +0.000 C 
ATOM      4  O   UNL     1       4.794   4.184  15.860  0.00  0.00    +0.000 OA
ATOM      5  N   UNL     1       6.088   5.360  17.355  0.00  0.00    +0.000 N 
ATOM      6  C   UNL     1       6.994   5.247  18.403  0.00  0.00    +0.000 A 
ATOM      7  C   UNL     1       7.790   6.238  18.807  0.00  0.00    +0.000 A 
ATOM      8  C   UNL     1       7.843   7.453  17.999  0.00  0.00    +0.000 A 
ATOM      9  O   UNL     1       8.467   8.438  18.373  0.00  0.00    +0.000 OA
ATOM     10  N   UNL     1       7.175   7.382  16.818  0.00  0.00    +0.000 N 
ATOM     11  C   UNL     1       6.155   6.495  16.534  0.00  0.00    +0.000 A 
ATOM     12  O   UNL     1       5.364   6.818  15.649  0.00  0.00    +0.000 OA
ATOM     13  H   UNL     1       7.173   8.219  16.254  0.00  0.00    +0.000 HD
ENDROOT
BRANCH   1  14
ATOM     14  C   UNL     1       3.707   2.488  17.622  0.00  0.00    +0.000 C 
BRANCH  14  15
ATOM     15  C   UNL     1       2.235   2.889  17.761  0.00  0.00    +0.000 C 
BRANCH  15  16
ATOM     16  C   UNL     1       1.476   2.105  18.831  0.00  0.00    +0.000 C 
BRANCH  16  17
ATOM     17  C   UNL     1       0.537   3.049  19.589  0.00  0.00    +0.000 C 
BRANCH  17  19
ATOM     18  C   UNL     1       1.852   2.839  21.719  0.00  0.00    +0.000 C 
ATOM     19  C   UNL     1       1.262   3.800  20.701  0.00  0.00    +0.000 C 
ENDBRANCH  17  19
ENDBRANCH  16  17
ENDBRANCH  15  16
ENDBRANCH  14  15
ENDBRANCH   1  14
TORSDOF 5
ENDMDL
MODEL 3
REMARK VINA RESULT:      -6.7      2.645      6.032
REMARK  Name = 
REMARK  7 active torsions:
REMARK  status: ('A' for Active; 'I' for Inactive)
REMARK    1  A    between atoms: C_1  and  C_2
REMARK    2  A    between atoms: C_2  and  C_3
REMARK    3  A    between atoms: C_3  and  C_4
REMARK    4  A    between atoms: C_4  and  C_5
REMARK    5  A    between atoms: C_5  and  C_6
REMARK    6  A    between atoms: C_6  and  N_7
REMARK    7  A    between atoms: N_7  and  C_8
REMARK                            x       y       z     vdW  Elec       q    Type
REMARK                         _______ _______ _______ _____ _____    ______ ____
ROOT
ATOM      1  N   UNL     1       4.111   5.451  17.554  0.00  0.00    +0.000 N 
ATOM      2  C   UNL     1       3.485   6.594  18.217  0.00  0.00    +0.000 C 
ATOM      3  C   UNL     1       4.235   4.149  18.106  0.00  0.00    +0.000 C 
ATOM      4  O   UNL     1       5.051   3.365  17.602  0.00  0.00    +0.000 OA
ATOM      5  N   UNL     1       3.395   3.763  19.148  0.00  0.00    +0.000 N 
ATOM      6  C   UNL     1       2.111   4.264  19.331  0.00  0.00    +0.000 A 
ATOM      7  C   UNL     1       1.358   4.005  20.400  0.00  0.00    +0.000 A 
ATOM      8  C   UNL     1       1.830   3.003  21.351  0.00  0.00    +0.000 A 
ATOM      9  O   UNL     1       1.242   2.799  22.405  0.00  0.00    +0.000 OA
ATOM     10  N   UNL     1       2.938   2.321  20.957  0.00  0.00    +0.000 N 
ATOM     11  C   UNL     1       3.851   2.761  20.019  0.00  0.00    +0.000 A 
ATOM     12  O   UNL     1       4.988   2.296  20.084  0.00  0.00    +0.000 OA
ATOM     13  H   UNL     1       3.301   1.642  21.610  0.00  0.00    +0.000 HD
ENDROOT
BRANCH   1  14
ATOM     14  C   UNL     1       5.007   5.775  16.439  0.00  0.00    +0.000 C 
BRANCH  14  15
ATOM     15  C   UNL     1       6.101   6.791  16.780  0.00  0.00    +0.000 C 
BRANCH  15  16
ATOM     16  C   UNL     1       7.277   6.199  17.557  0.00  0.00    +0.000 C 
BRANCH  16  17
ATOM     17  C   UNL     1       7.939   7.294  18.400  0.00  0.00    +0.000 C 
BRANCH  17  19
ATOM     18  C   UNL     1       8.759   9.668  18.432  0.00  0.00    +0.000 C 
ATOM     19  C   UNL     1       7.889   8.653  17.709  0.00  0.00    +0.000 C 
ENDBRANCH  17  19
ENDBRANCH  16  17
ENDBRANCH  15  16
ENDBRANCH  14  15
ENDBRANCH   1  14
TORSDOF 5
ENDMDL
MODEL 4
REMARK VINA RESULT:      -6.6      0.959      1.189
REMARK  Name = 
REMARK  7 active torsions:
REMARK  status: ('A' for Active; 'I' for Inactive)
REMARK    1  A    between atoms: C_1  and  C_2
REMARK    2  A    between atoms: C_2  and  C_3
REMARK    3  A    between atoms: C_3  and  C_4
REMARK    4  A    between atoms: C_4  and  C_5
REMARK    5  A    between atoms: C_5  and  C_6
REMARK    6  A    between atoms: C_6  and  N_7
REMARK    7  A    between atoms: N_7  and  C_8
REMARK                            x       y       z     vdW  Elec       q    Type
REMARK                         _______ _______ _______ _____ _____    ______ ____
ROOT
ATOM      1  N   UNL     1       4.468   2.955  19.035  0.00  0.00    +0.000 N 
ATOM      2  C   UNL     1       3.986   2.007  18.032  0.00  0.00    +0.000 C 
ATOM      3  C   UNL     1       5.509   3.901  18.838  0.00  0.00    +0.000 C 
ATOM      4  O   UNL     1       6.040   4.416  19.832  0.00  0.00    +0.000 OA
ATOM      5  N   UNL     1       5.858   4.277  17.543  0.00  0.00    +0.000 N 
ATOM      6  C   UNL     1       4.969   4.281  16.475  0.00  0.00    +0.000 A 
ATOM      7  C   UNL     1       5.328   4.504  15.210  0.00  0.00    +0.000 A 
ATOM      8  C   UNL     1       6.696   4.941  14.948  0.00  0.00    +0.000 A 
ATOM      9  O   UNL     1       7.119   5.056  13.805  0.00  0.00    +0.000 OA
ATOM     10  N   UNL     1       7.427   5.223  16.059  0.00  0.00    +0.000 N 
ATOM     11  C   UNL     1       7.164   4.742  17.327  0.00  0.00    +0.000 A 
ATOM     12  O   UNL     1       8.108   4.695  18.114  0.00  0.00    +0.000 OA
ATOM     13  H   UNL     1       8.385   5.500  15.905  0.00  0.00    +0.000 HD
ENDROOT
BRANCH   1  14
ATOM     14  C   UNL     1       4.135   2.632  20.427  0.00  0.00    +0.000 C 
BRANCH  14  15
ATOM     15  C   UNL     1       2.633   2.597  20.726  0.00  0.00    +0.000 C 
BRANCH  15  16
ATOM     16  C   UNL     1       2.005   3.977  20.918  0.00  0.00    +0.000 C 
BRANCH  16  17
ATOM     17  C   UNL     1       0.719   4.076  20.090  0.00  0.00    +0.000 C 
BRANCH  17  19
ATOM     18  C   UNL     1       1.533   4.576  17.767  0.00  0.00    +0.000 C 
ATOM     19  C   UNL     1       0.909   3.531  18.678  0.00  0.00    +0.000 C 
ENDBRANCH  17  19
ENDBRANCH  16  17
ENDBRANCH  15  16
ENDBRANCH  14  15
ENDBRANCH   1  14
TORSDOF 5
ENDMDL
MODEL 5
REMARK VINA RESULT:      -6.5      1.165      2.003
REMARK  Name = 
REMARK  7 active torsions:
REMARK  status: ('A' for Active; 'I' for Inactive)
REMARK    1  A    between atoms: C_1  and  C_2
REMARK    2  A    between atoms: C_2  and  C_3
REMARK    3  A    between atoms: C_3  and  C_4
REMARK    4  A    between atoms: C_4  and  C_5
REMARK    5  A    between atoms: C_5  and  C_6
REMARK    6  A    between atoms: C_6  and  N_7
REMARK    7  A    between atoms: N_7  and  C_8
REMARK                            x       y       z     vdW  Elec       q    Type
REMARK                         _______ _______ _______ _____ _____    ______ ____
ROOT
ATOM      1  N   UNL     1       3.947   5.131  18.696  0.00  0.00    +0.000 N 
ATOM      2  C   UNL     1       2.993   4.619  17.713  0.00  0.00    +0.000 C 
ATOM      3  C   UNL     1       5.354   5.196  18.519  0.00  0.00    +0.000 C 
ATOM      4  O   UNL     1       6.073   5.341  19.517  0.00  0.00    +0.000 OA
ATOM      5  N   UNL     1       5.885   5.166  17.231  0.00  0.00    +0.000 N 
ATOM      6  C   UNL     1       5.216   5.642  16.110  0.00  0.00    +0.000 A 
ATOM      7  C   UNL     1       5.658   5.490  14.861  0.00  0.00    +0.000 A 
ATOM      8  C   UNL     1       7.000   4.951  14.664  0.00  0.00    +0.000 A 
ATOM      9  O   UNL     1       7.421   4.685  13.546  0.00  0.00    +0.000 OA
ATOM     10  N   UNL     1       7.726   4.798  15.804  0.00  0.00    +0.000 N 
ATOM     11  C   UNL     1       7.196   4.691  17.075  0.00  0.00    +0.000 A 
ATOM     12  O   UNL     1       7.885   4.125  17.922  0.00  0.00    +0.000 OA
ATOM     13  H   UNL     1       8.647   4.400  15.698  0.00  0.00    +0.000 HD
ENDROOT
BRANCH   1  14
ATOM     14  C   UNL     1       3.460   5.200  20.078  0.00  0.00    +0.000 C 
BRANCH  14  15
ATOM     15  C   UNL     1       2.009   5.671  20.216  0.00  0.00    +0.000 C 
BRANCH  15  16
ATOM     16  C   UNL     1       1.025   4.556  20.569  0.00  0.00    +0.000 C 
BRANCH  16  17
ATOM     17  C   UNL     1       1.796   3.337  21.087  0.00  0.00    +0.000 C 
BRANCH  17  19
ATOM     18  C   UNL     1       0.629   2.386  19.076  0.00  0.00    +0.000 C 
ATOM     19  C   UNL     1       1.702   2.155  20.128  0.00  0.00    +0.000 C 
ENDBRANCH  17  19
ENDBRANCH  16  17
ENDBRANCH  15  16
ENDBRANCH  14  15
ENDBRANCH   1  14
TORSDOF 5
ENDMDL
MODEL 6
REMARK VINA RESULT:      -6.5      2.362      6.476
REMARK  Name = 
REMARK  7 active torsions:
REMARK  status: ('A' for Active; 'I' for Inactive)
REMARK    1  A    between atoms: C_1  and  C_2
REMARK    2  A    between atoms: C_2  and  C_3
REMARK    3  A    between atoms: C_3  and  C_4
REMARK    4  A    between atoms: C_4  and  C_5
REMARK    5  A    between atoms: C_5  and  C_6
REMARK    6  A    between atoms: C_6  and  N_7
REMARK    7  A    between atoms: N_7  and  C_8
REMARK                            x       y       z     vdW  Elec       q    Type
REMARK                         _______ _______ _______ _____ _____    ______ ____
ROOT
ATOM      1  N   UNL     1       5.567   4.669  18.055  0.00  0.00    +0.000 N 
ATOM      2  C   UNL     1       5.995   5.318  19.293  0.00  0.00    +0.000 C 
ATOM      3  C   UNL     1       4.570   3.663  17.957  0.00  0.00    +0.000 C 
ATOM      4  O   UNL     1       4.520   2.972  16.931  0.00  0.00    +0.000 OA
ATOM      5  N   UNL     1       3.633   3.525  18.979  0.00  0.00    +0.000 N 
ATOM      6  C   UNL     1       3.208   4.576  19.784  0.00  0.00    +0.000 A 
ATOM      7  C   UNL     1       2.421   4.425  20.849  0.00  0.00    +0.000 A 
ATOM      8  C   UNL     1       1.827   3.113  21.088  0.00  0.00    +0.000 A 
ATOM      9  O   UNL     1       1.187   2.880  22.105  0.00  0.00    +0.000 OA
ATOM     10  N   UNL     1       2.026   2.208  20.094  0.00  0.00    +0.000 N 
ATOM     11  C   UNL     1       3.038   2.267  19.156  0.00  0.00    +0.000 A 
ATOM     12  O   UNL     1       3.372   1.207  18.626  0.00  0.00    +0.000 OA
ATOM     13  H   UNL     1       1.649   1.284  20.248  0.00  0.00    +0.000 HD
ENDROOT
BRANCH   1  14
ATOM     14  C   UNL     1       6.499   4.774  16.926  0.00  0.00    +0.000 C 
BRANCH  14  15
ATOM     15  C   UNL     1       5.940   5.524  15.712  0.00  0.00    +0.000 C 
BRANCH  15  16
ATOM     16  C   UNL     1       6.475   5.019  14.372  0.00  0.00    +0.000 C 
BRANCH  16  17
ATOM     17  C   UNL     1       5.610   3.852  13.882  0.00  0.00    +0.000 C 
BRANCH  17  19
ATOM     18  C   UNL     1       4.634   3.205  11.659  0.00  0.00    +0.000 C 
ATOM     19  C   UNL     1       5.912   3.491  12.431  0.00  0.00    +0.000 C 
ENDBRANCH  17  19
ENDBRANCH  16  17
ENDBRANCH  15  16
ENDBRANCH  14  15
ENDBRANCH   1  14
TORSDOF 5
ENDMDL
MODEL 7
REMARK VINA RESULT:      -6.4      3.264      5.975
REMARK  Name = 
REMARK  7 active torsions:
REMARK  status: ('A' for Active; 'I' for Inactive)
REMARK    1  A    between atoms: C_1  and  C_2
REMARK    2  A    between atoms: C_2  and  C_3
REMARK    3  A    between atoms: C_3  and  C_4
REMARK    4  A    between atoms: C_4  and  C_5
REMARK    5  A    between atoms: C_5  and  C_6
REMARK    6  A    between atoms: C_6  and  N_7
REMARK    7  A    between atoms: N_7  and  C_8
REMARK                            x       y       z     vdW  Elec       q    Type
REMARK                         _______ _______ _______ _____ _____    ______ ____
ROOT
ATOM      1  N   UNL     1       6.071   4.946  17.445  0.00  0.00    +0.000 N 
ATOM      2  C   UNL     1       5.493   4.976  16.103  0.00  0.00    +0.000 C 
ATOM      3  C   UNL     1       5.358   4.657  18.639  0.00  0.00    +0.000 C 
ATOM      4  O   UNL     1       5.866   4.971  19.725  0.00  0.00    +0.000 OA
ATOM      5  N   UNL     1       4.149   3.970  18.568  0.00  0.00    +0.000 N 
ATOM      6  C   UNL     1       3.838   3.058  17.566  0.00  0.00    +0.000 A 
ATOM      7  C   UNL     1       2.635   2.504  17.413  0.00  0.00    +0.000 A 
ATOM      8  C   UNL     1       1.634   2.728  18.452  0.00  0.00    +0.000 A 
ATOM      9  O   UNL     1       0.481   2.340  18.319  0.00  0.00    +0.000 OA
ATOM     10  N   UNL     1       2.096   3.367  19.559  0.00  0.00    +0.000 N 
ATOM     11  C   UNL     1       3.224   4.163  19.605  0.00  0.00    +0.000 A 
ATOM     12  O   UNL     1       3.275   5.009  20.496  0.00  0.00    +0.000 OA
ATOM     13  H   UNL     1       1.417   3.559  20.280  0.00  0.00    +0.000 HD
ENDROOT
BRANCH   1  14
ATOM     14  C   UNL     1       7.351   5.644  17.602  0.00  0.00    +0.000 C 
BRANCH  14  15
ATOM     15  C   UNL     1       7.271   7.162  17.420  0.00  0.00    +0.000 C 
BRANCH  15  16
ATOM     16  C   UNL     1       8.238   7.946  18.309  0.00  0.00    +0.000 C 
BRANCH  16  17
ATOM     17  C   UNL     1       8.140   9.439  17.981  0.00  0.00    +0.000 C 
BRANCH  17  19
ATOM     18  C   UNL     1       9.722  11.390  17.952  0.00  0.00    +0.000 C 
ATOM     19  C   UNL     1       9.136  10.265  18.789  0.00  0.00    +0.000 C 
ENDBRANCH  17  19
ENDBRANCH  16  17
ENDBRANCH  15  16
ENDBRANCH  14  15
ENDBRANCH   1  14
TORSDOF 5
ENDMDL
MODEL 8
REMARK VINA RESULT:      -6.4      1.278      2.309
REMARK  Name = 
REMARK  7 active torsions:
REMARK  status: ('A' for Active; 'I' for Inactive)
REMARK    1  A    between atoms: C_1  and  C_2
REMARK    2  A    between atoms: C_2  and  C_3
REMARK    3  A    between atoms: C_3  and  C_4
REMARK    4  A    between atoms: C_4  and  C_5
REMARK    5  A    between atoms: C_5  and  C_6
REMARK    6  A    between atoms: C_6  and  N_7
REMARK    7  A    between atoms: N_7  and  C_8
REMARK                            x       y       z     vdW  Elec       q    Type
REMARK                         _______ _______ _______ _____ _____    ______ ____
ROOT
ATOM      1  N   UNL     1       3.196   5.382  18.796  0.00  0.00    +0.000 N 
ATOM      2  C   UNL     1       2.403   4.965  17.641  0.00  0.00    +0.000 C 
ATOM      3  C   UNL     1       4.615   5.413  18.849  0.00  0.00    +0.000 C 
ATOM      4  O   UNL     1       5.168   5.471  19.956  0.00  0.00    +0.000 OA
ATOM      5  N   UNL     1       5.345   5.449  17.663  0.00  0.00    +0.000 N 
ATOM      6  C   UNL     1       4.875   6.017  16.484  0.00  0.00    +0.000 A 
ATOM      7  C   UNL     1       5.508   5.932  15.314  0.00  0.00    +0.000 A 
ATOM      8  C   UNL     1       6.853   5.363  15.296  0.00  0.00    +0.000 A 
ATOM      9  O   UNL     1       7.442   5.156  14.244  0.00  0.00    +0.000 OA
ATOM     10  N   UNL     1       7.383   5.115  16.524  0.00  0.00    +0.000 N 
ATOM     11  C   UNL     1       6.654   4.944  17.684  0.00  0.00    +0.000 A 
ATOM     12  O   UNL     1       7.186   4.302  18.589  0.00  0.00    +0.000 OA
ATOM     13  H   UNL     1       8.300   4.695  16.538  0.00  0.00    +0.000 HD
ENDROOT
BRANCH   1  14
ATOM     14  C   UNL     1       2.496   5.378  20.085  0.00  0.00    +0.000 C 
BRANCH  14  15
ATOM     15  C   UNL     1       1.383   4.332  20.197  0.00  0.00    +0.000 C 
BRANCH  15  16
ATOM     16  C   UNL     1       1.871   2.949  20.628  0.00  0.00    +0.000 C 
BRANCH  16  17
ATOM     17  C   UNL     1       1.834   1.994  19.430  0.00  0.00    +0.000 C 
BRANCH  17  19
ATOM     18  C   UNL     1       4.299   2.025  19.909  0.00  0.00    +0.000 C 
ATOM     19  C   UNL     1       3.228   1.725  18.874  0.00  0.00    +0.000 C 
ENDBRANCH  17  19
ENDBRANCH  16  17
ENDBRANCH  15  16
ENDBRANCH  14  15
ENDBRANCH   1  14
TORSDOF 5
ENDMDL
MODEL 9
REMARK VINA RESULT:      -6.4      1.198      1.654
REMARK  Name = 
REMARK  7 active torsions:
REMARK  status: ('A' for Active; 'I' for Inactive)
REMARK    1  A    between atoms: C_1  and  C_2
REMARK    2  A    between atoms: C_2  and  C_3
REMARK    3  A    between atoms: C_3  and  C_4
REMARK    4  A    between atoms: C_4  and  C_5
REMARK    5  A    between atoms: C_5  and  C_6
REMARK    6  A    between atoms: C_6  and  N_7
REMARK    7  A    between atoms: N_7  and  C_8
REMARK                            x       y       z     vdW  Elec       q    Type
REMARK                         _______ _______ _______ _____ _____    ______ ____
ROOT
ATOM      1  N   UNL     1       3.808   4.339  18.790  0.00  0.00    +0.000 N 
ATOM      2  C   UNL     1       3.016   3.698  17.742  0.00  0.00    +0.000 C 
ATOM      3  C   UNL     1       5.167   4.732  18.668  0.00  0.00    +0.000 C 
ATOM      4  O   UNL     1       5.814   4.962  19.699  0.00  0.00    +0.000 OA
ATOM      5  N   UNL     1       5.716   4.916  17.402  0.00  0.00    +0.000 N 
ATOM      6  C   UNL     1       4.979   5.309  16.290  0.00  0.00    +0.000 A 
ATOM      7  C   UNL     1       5.469   5.351  15.051  0.00  0.00    +0.000 A 
ATOM      8  C   UNL     1       6.903   5.144  14.868  0.00  0.00    +0.000 A 
ATOM      9  O   UNL     1       7.396   5.062  13.751  0.00  0.00    +0.000 OA
ATOM     10  N   UNL     1       7.621   5.077  16.020  0.00  0.00    +0.000 N 
ATOM     11  C   UNL     1       7.104   4.762  17.262  0.00  0.00    +0.000 A 
ATOM     12  O   UNL     1       7.887   4.305  18.094  0.00  0.00    +0.000 OA
ATOM     13  H   UNL     1       8.610   4.906  15.921  0.00  0.00    +0.000 HD
ENDROOT
BRANCH   1  14
ATOM     14  C   UNL     1       3.290   4.196  20.155  0.00  0.00    +0.000 C 
BRANCH  14  15
ATOM     15  C   UNL     1       2.139   5.146  20.499  0.00  0.00    +0.000 C 
BRANCH  15  16
ATOM     16  C   UNL     1       2.245   6.516  19.830  0.00  0.00    +0.000 C 
BRANCH  16  17
ATOM     17  C   UNL     1       1.580   7.573  20.718  0.00  0.00    +0.000 C 
BRANCH  17  19
ATOM     18  C   UNL     1       1.791   8.768  18.519  0.00  0.00    +0.000 C 
ATOM     19  C   UNL     1       1.306   8.866  19.956  0.00  0.00    +0.000 C 
ENDBRANCH  17  19
ENDBRANCH  16  17
ENDBRANCH  15  16
ENDBRANCH  14  15
ENDBRANCH   1  14
TORSDOF 5
ENDMDL
