MODEL 1
REMARK VINA RESULT:      -7.0      0.000      0.000
REMARK  Name = 
REMARK  11 active torsions:
REMARK  status: ('A' for Active; 'I' for Inactive)
REMARK    1  A    between atoms: C_1  and  C_2
REMARK    2  A    between atoms: C_4  and  C_5
REMARK    3  A    between atoms: C_6  and  S_7
REMARK    4  A    between atoms: S_7  and  N_10
REMARK    5  A    between atoms: N_10  and  C_11
REMARK    6  A    between atoms: N_10  and  C_15
REMARK    7  A    between atoms: C_11  and  C_12
REMARK    8  A    between atoms: C_12  and  O_14
REMARK    9  A    between atoms: C_15  and  C_16
REMARK   10  A    between atoms: C_16  and  O_18
REMARK   11  A    between atoms: C_19  and  C_20
REMARK                            x       y       z     vdW  Elec       q    Type
REMARK                         _______ _______ _______ _____ _____    ______ ____
ROOT
ATOM      1  S   UNL     1       4.982   4.369  18.208  0.00  0.00    +0.000 S 
ATOM      2  O   UNL     1       5.431   3.933  19.509  0.00  0.00    +0.000 OA
ATOM      3  O   UNL     1       4.499   3.365  17.282  0.00  0.00    +0.000 OA
ENDROOT
BRANCH   1   9
ATOM      4  C   UNL     1       1.383   9.161  19.381  0.00  0.00    +0.000 C 
ATOM      5  C   UNL     1       2.145   7.921  19.022  0.00  0.00    +0.000 A 
ATOM      6  C   UNL     1       2.109   6.784  19.827  0.00  0.00    +0.000 A 
ATOM      7  C   UNL     1       2.885   5.643  19.534  0.00  0.00    +0.000 A 
ATOM      8  C   UNL     1       2.761   4.483  20.488  0.00  0.00    +0.000 C 
ATOM      9  C   UNL     1       3.745   5.661  18.408  0.00  0.00    +0.000 A 
ATOM     10  C   UNL     1       3.738   6.788  17.542  0.00  0.00    +0.000 A 
ATOM     11  C   UNL     1       4.545   6.957  16.280  0.00  0.00    +0.000 C 
ATOM     12  C   UNL     1       2.944   7.904  17.880  0.00  0.00    +0.000 A 
ENDBRANCH   1   9
BRANCH   1  13
ATOM     13  N   UNL     1       6.329   5.111  17.408  0.00  0.00    +0.000 NA
BRANCH  13  14
ATOM     14  C   UNL     1       7.397   5.615  18.337  0.00  0.00    +0.000 C 
BRANCH  14  15
ATOM     15  C   UNL     1       7.878   7.016  18.004  0.00  0.00    +0.000 C 
ATOM     16  O   UNL     1       7.685   7.583  16.943  0.00  0.00    +0.000 OA
BRANCH  15  17
ATOM     17  O   UNL     1       8.593   7.581  19.010  0.00  0.00    +0.000 OA
ATOM     18  H   UNL     1       8.703   8.545  18.874  0.00  0.00    +0.000 HD
ENDBRANCH  15  17
ENDBRANCH  14  15
ENDBRANCH  13  14
BRANCH  13  19
ATOM     19  C   UNL     1       6.889   4.150  16.376  0.00  0.00    +0.000 C 
BRANCH  19  20
ATOM     20  C   UNL     1       6.958   4.659  14.944  0.00  0.00    +0.000 C 
ATOM     21  O   UNL     1       6.294   4.193  14.030  0.00  0.00    +0.000 OA
BRANCH  20  22
ATOM     22  O   UNL     1       7.836   5.675  14.751  0.00  0.00    +0.000 OA
ATOM     23  H   UNL     1       7.705   6.204  13.938  0.00  0.00    +0.000 HD
ENDBRANCH  20  22
ENDBRANCH  19  20
ENDBRANCH  13  19
ENDBRANCH   1  13
TORSDOF 8
ENDMDL
MODEL 2
REMARK VINA RESULT:      -7.0      1.084      1.531
REMARK  Name = 
REMARK  11 active torsions:
REMARK  status: ('A' for Active; 'I' for Inactive)
REMARK    1  A    between atoms: C_1  and  C_2
REMARK    2  A    between atoms: C_4  and  C_5
REMARK    3  A    between atoms: C_6  and  S_7
REMARK    4  A    between atoms: S_7  and  N_10
REMARK    5  A    between atoms: N_10  and  C_11
REMARK    6  A    between atoms: N_10  and  C_15
REMARK    7  A    between atoms: C_11  and  C_12
REMARK    8  A    between atoms: C_12  and  O_14
REMARK    9  A    between atoms: C_15  and  C_16
REMARK   10  A    between atoms: C_16  and  O_18
REMARK   11  A    between atoms: C_19  and  C_20
REMARK                            x       y       z     vdW  Elec       q    Type
REMARK                         _______ _______ _______ _____ _____    ______ ____
ROOT
ATOM      1  S   UNL     1       4.532   3.836  18.453  0.00  0.00    +0.000 S 
ATOM      2  O   UNL     1       5.423   3.481  19.532  0.00  0.00    +0.000 OA
ATOM      3  O   UNL     1       3.849   2.765  17.756  0.00  0.00    +0.000 OA
ENDROOT
BRANCH   1   9
ATOM      4  C   UNL     1       1.092   8.181  21.018  0.00  0.00    +0.000 C 
ATOM      5  C   UNL     1       1.811   7.074  20.308  0.00  0.00    +0.000 A 
ATOM      6  C   UNL     1       1.771   5.761  20.773  0.00  0.00    +0.000 A 
ATOM      7  C   UNL     1       2.509   4.731  20.152  0.00  0.00    +0.000 A 
ATOM      8  C   UNL     1       2.385   3.357  20.758  0.00  0.00    +0.000 C 
ATOM      9  C   UNL     1       3.334   5.043  19.043  0.00  0.00    +0.000 A 
ATOM     10  C   UNL     1       3.329   6.364  18.518  0.00  0.00    +0.000 A 
ATOM     11  C   UNL     1       4.101   6.858  17.321  0.00  0.00    +0.000 C 
ATOM     12  C   UNL     1       2.575   7.357  19.176  0.00  0.00    +0.000 A 
ENDBRANCH   1   9
BRANCH   1  13
ATOM     13  N   UNL     1       5.470   4.640  17.238  0.00  0.00    +0.000 NA
BRANCH  13  14
ATOM     14  C   UNL     1       6.952   4.615  17.486  0.00  0.00    +0.000 C 
BRANCH  14  15
ATOM     15  C   UNL     1       7.526   5.970  17.858  0.00  0.00    +0.000 C 
ATOM     16  O   UNL     1       7.825   6.313  18.988  0.00  0.00    +0.000 OA
BRANCH  15  17
ATOM     17  O   UNL     1       7.647   6.802  16.791  0.00  0.00    +0.000 OA
ATOM     18  H   UNL     1       7.779   6.302  15.959  0.00  0.00    +0.000 HD
ENDBRANCH  15  17
ENDBRANCH  14  15
ENDBRANCH  13  14
BRANCH  13  19
ATOM     19  C   UNL     1       5.117   4.072  15.877  0.00  0.00    +0.000 C 
BRANCH  19  20
ATOM     20  C   UNL     1       6.027   4.465  14.723  0.00  0.00    +0.000 C 
ATOM     21  O   UNL     1       6.377   5.614  14.501  0.00  0.00    +0.000 OA
BRANCH  20  22
ATOM     22  O   UNL     1       6.416   3.430  13.936  0.00  0.00    +0.000 OA
ATOM     23  H   UNL     1       5.995   3.382  13.054  0.00  0.00    +0.000 HD
ENDBRANCH  20  22
ENDBRANCH  19  20
ENDBRANCH  13  19
ENDBRANCH   1  13
TORSDOF 8
ENDMDL
MODEL 3
REMARK VINA RESULT:      -6.9      1.233      1.578
REMARK  Name = 
REMARK  11 active torsions:
REMARK  status: ('A' for Active; 'I' for Inactive)
REMARK    1  A    between atoms: C_1  and  C_2
REMARK    2  A    between atoms: C_4  and  C_5
REMARK    3  A    between atoms: C_6  and  S_7
REMARK    4  A    between atoms: S_7  and  N_10
REMARK    5  A    between atoms: N_10  and  C_11
REMARK    6  A    between atoms: N_10  and  C_15
REMARK    7  A    between atoms: C_11  and  C_12
REMARK    8  A    between atoms: C_12  and  O_14
REMARK    9  A    between atoms: C_15  and  C_16
REMARK   10  A    between atoms: C_16  and  O_18
REMARK   11  A    between atoms: C_19  and  C_20
REMARK                            x       y       z     vdW  Elec       q    Type
REMARK                         _______ _______ _______ _____ _____    ______ ____
ROOT
ATOM      1  S   UNL     1       4.079   4.220  18.186  0.00  0.00    +0.000 S 
ATOM      2  O   UNL     1       4.266   3.086  19.061  0.00  0.00    +0.000 OA
ATOM      3  O   UNL     1       3.663   3.965  16.822  0.00  0.00    +0.000 OA
ENDROOT
BRANCH   1   9
ATOM      4  C   UNL     1       0.919   8.368  21.363  0.00  0.00    +0.000 C 
ATOM      5  C   UNL     1       1.564   7.321  20.506  0.00  0.00    +0.000 A 
ATOM      6  C   UNL     1       1.512   5.969  20.843  0.00  0.00    +0.000 A 
ATOM      7  C   UNL     1       2.183   4.989  20.081  0.00  0.00    +0.000 A 
ATOM      8  C   UNL     1       2.055   3.565  20.557  0.00  0.00    +0.000 C 
ATOM      9  C   UNL     1       2.953   5.390  18.961  0.00  0.00    +0.000 A 
ATOM     10  C   UNL     1       2.956   6.756  18.569  0.00  0.00    +0.000 A 
ATOM     11  C   UNL     1       3.673   7.349  17.382  0.00  0.00    +0.000 C 
ATOM     12  C   UNL     1       2.270   7.697  19.364  0.00  0.00    +0.000 A 
ENDBRANCH   1   9
BRANCH   1  13
ATOM     13  N   UNL     1       5.603   5.034  18.049  0.00  0.00    +0.000 NA
BRANCH  13  14
ATOM     14  C   UNL     1       6.313   5.239  19.357  0.00  0.00    +0.000 C 
BRANCH  14  15
ATOM     15  C   UNL     1       7.677   5.889  19.210  0.00  0.00    +0.000 C 
ATOM     16  O   UNL     1       7.918   6.847  18.496  0.00  0.00    +0.000 OA
BRANCH  15  17
ATOM     17  O   UNL     1       8.639   5.268  19.940  0.00  0.00    +0.000 OA
ATOM     18  H   UNL     1       9.506   5.714  19.845  0.00  0.00    +0.000 HD
ENDBRANCH  15  17
ENDBRANCH  14  15
ENDBRANCH  13  14
BRANCH  13  19
ATOM     19  C   UNL     1       6.473   4.301  17.045  0.00  0.00    +0.000 C 
BRANCH  19  20
ATOM     20  C   UNL     1       6.660   4.974  15.693  0.00  0.00    +0.000 C 
ATOM     21  O   UNL     1       7.641   5.643  15.403  0.00  0.00    +0.000 OA
BRANCH  20  22
ATOM     22  O   UNL     1       5.635   4.784  14.825  0.00  0.00    +0.000 OA
ATOM     23  H   UNL     1       5.847   4.267  14.021  0.00  0.00    +0.000 HD
ENDBRANCH  20  22
ENDBRANCH  19  20
ENDBRANCH  13  19
ENDBRANCH   1  13
TORSDOF 8
ENDMDL
MODEL 4
REMARK VINA RESULT:      -6.8      0.846      2.207
REMARK  Name = 
REMARK  11 active torsions:
REMARK  status: ('A' for Active; 'I' for Inactive)
REMARK    1  A    between atoms: C_1  and  C_2
REMARK    2  A    between atoms: C_4  and  C_5
REMARK    3  A    between atoms: C_6  and  S_7
REMARK    4  A    between atoms: S_7  and  N_10
REMARK    5  A    between atoms: N_10  and  C_11
REMARK    6  A    between atoms: N_10  and  C_15
REMARK    7  A    between atoms: C_11  and  C_12
REMARK    8  A    between atoms: C_12  and  O_14
REMARK    9  A    between atoms: C_15  and  C_16
REMARK   10  A    between atoms: C_16  and  O_18
REMARK   11  A    between atoms: C_19  and  C_20
REMARK                            x       y       z     vdW  Elec       q    Type
REMARK                         _______ _______ _______ _____ _____    ______ ____
ROOT
ATOM      1  S   UNL     1       4.462   4.223  17.878  0.00  0.00    +0.000 S 
ATOM      2  O   UNL     1       4.792   3.444  19.048  0.00  0.00    +0.000 OA
ATOM      3  O   UNL     1       3.646   3.601  16.855  0.00  0.00    +0.000 OA
ENDROOT
BRANCH   1   9
ATOM      4  C   UNL     1       1.244   9.255  19.151  0.00  0.00    +0.000 C 
ATOM      5  C   UNL     1       2.152   8.086  18.912  0.00  0.00    +0.000 A 
ATOM      6  C   UNL     1       3.025   8.049  17.826  0.00  0.00    +0.000 A 
ATOM      7  C   UNL     1       3.825   6.919  17.556  0.00  0.00    +0.000 A 
ATOM      8  C   UNL     1       4.719   7.003  16.346  0.00  0.00    +0.000 C 
ATOM      9  C   UNL     1       3.719   5.779  18.391  0.00  0.00    +0.000 A 
ATOM     10  C   UNL     1       2.884   5.832  19.541  0.00  0.00    +0.000 A 
ATOM     11  C   UNL     1       2.691   4.739  20.562  0.00  0.00    +0.000 C 
ATOM     12  C   UNL     1       2.105   6.985  19.767  0.00  0.00    +0.000 A 
ENDBRANCH   1   9
BRANCH   1  13
ATOM     13  N   UNL     1       5.947   4.635  17.085  0.00  0.00    +0.000 NA
BRANCH  13  14
ATOM     14  C   UNL     1       7.172   4.448  17.934  0.00  0.00    +0.000 C 
BRANCH  14  15
ATOM     15  C   UNL     1       7.482   5.640  18.821  0.00  0.00    +0.000 C 
ATOM     16  O   UNL     1       7.437   5.632  20.038  0.00  0.00    +0.000 OA
BRANCH  15  17
ATOM     17  O   UNL     1       7.787   6.759  18.114  0.00  0.00    +0.000 OA
ATOM     18  H   UNL     1       7.041   7.395  18.109  0.00  0.00    +0.000 HD
ENDBRANCH  15  17
ENDBRANCH  14  15
ENDBRANCH  13  14
BRANCH  13  19
ATOM     19  C   UNL     1       6.045   3.869  15.779  0.00  0.00    +0.000 C 
BRANCH  19  20
ATOM     20  C   UNL     1       6.780   4.562  14.642  0.00  0.00    +0.000 C 
ATOM     21  O   UNL     1       6.664   4.240  13.469  0.00  0.00    +0.000 OA
BRANCH  20  22
ATOM     22  O   UNL     1       7.600   5.569  15.034  0.00  0.00    +0.000 OA
ATOM     23  H   UNL     1       8.196   5.928  14.346  0.00  0.00    +0.000 HD
ENDBRANCH  20  22
ENDBRANCH  19  20
ENDBRANCH  13  19
ENDBRANCH   1  13
TORSDOF 8
ENDMDL
MODEL 5
REMARK VINA RESULT:      -6.7      1.866      3.929
REMARK  Name = 
REMARK  11 active torsions:
REMARK  status: ('A' for Active; 'I' for Inactive)
REMARK    1  A    between atoms: C_1  and  C_2
REMARK    2  A    between atoms: C_4  and  C_5
REMARK    3  A    between atoms: C_6  and  S_7
REMARK    4  A    between atoms: S_7  and  N_10
REMARK    5  A    between atoms: N_10  and  C_11
REMARK    6  A    between atoms: N_10  and  C_15
REMARK    7  A    between atoms: C_11  and  C_12
REMARK    8  A    between atoms: C_12  and  O_14
REMARK    9  A    between atoms: C_15  and  C_16
REMARK   10  A    between atoms: C_16  and  O_18
REMARK   11  A    between atoms: C_19  and  C_20
REMARK                            x       y       z     vdW  Elec       q    Type
REMARK                         _______ _______ _______ _____ _____    ______ ____
ROOT
ATOM      1  S   UNL     1       4.375   4.794  17.372  0.00  0.00    +0.000 S 
ATOM      2  O   UNL     1       4.306   3.963  16.193  0.00  0.00    +0.000 OA
ATOM      3  O   UNL     1       4.191   6.222  17.210  0.00  0.00    +0.000 OA
ENDROOT
BRANCH   1   9
ATOM      4  C   UNL     1       1.180   2.636  22.108  0.00  0.00    +0.000 C 
ATOM      5  C   UNL     1       1.836   3.150  20.861  0.00  0.00    +0.000 A 
ATOM      6  C   UNL     1       2.397   2.286  19.923  0.00  0.00    +0.000 A 
ATOM      7  C   UNL     1       3.082   2.768  18.788  0.00  0.00    +0.000 A 
ATOM      8  C   UNL     1       3.650   1.730  17.854  0.00  0.00    +0.000 C 
ATOM      9  C   UNL     1       3.230   4.166  18.610  0.00  0.00    +0.000 A 
ATOM     10  C   UNL     1       2.602   5.056  19.524  0.00  0.00    +0.000 A 
ATOM     11  C   UNL     1       2.611   6.563  19.460  0.00  0.00    +0.000 C 
ATOM     12  C   UNL     1       1.929   4.524  20.642  0.00  0.00    +0.000 A 
ENDBRANCH   1   9
BRANCH   1  13
ATOM     13  N   UNL     1       5.961   4.616  18.048  0.00  0.00    +0.000 NA
BRANCH  13  14
ATOM     14  C   UNL     1       7.057   4.504  17.026  0.00  0.00    +0.000 C 
BRANCH  14  15
ATOM     15  C   UNL     1       7.132   5.693  16.085  0.00  0.00    +0.000 C 
ATOM     16  O   UNL     1       7.699   6.742  16.334  0.00  0.00    +0.000 OA
BRANCH  15  17
ATOM     17  O   UNL     1       6.460   5.489  14.923  0.00  0.00    +0.000 OA
ATOM     18  H   UNL     1       5.643   4.967  15.068  0.00  0.00    +0.000 HD
ENDBRANCH  15  17
ENDBRANCH  14  15
ENDBRANCH  13  14
BRANCH  13  19
ATOM     19  C   UNL     1       6.217   5.747  19.026  0.00  0.00    +0.000 C 
BRANCH  19  20
ATOM     20  C   UNL     1       7.611   5.816  19.631  0.00  0.00    +0.000 C 
ATOM     21  O   UNL     1       7.975   5.123  20.569  0.00  0.00    +0.000 OA
BRANCH  20  22
ATOM     22  O   UNL     1       8.430   6.730  19.051  0.00  0.00    +0.000 OA
ATOM     23  H   UNL     1       9.333   6.790  19.423  0.00  0.00    +0.000 HD
ENDBRANCH  20  22
ENDBRANCH  19  20
ENDBRANCH  13  19
ENDBRANCH   1  13
TORSDOF 8
ENDMDL
MODEL 6
REMARK VINA RESULT:      -6.6      1.584      1.888
REMARK  Name = 
REMARK  11 active torsions:
REMARK  status: ('A' for Active; 'I' for Inactive)
REMARK    1  A    between atoms: C_1  and  C_2
REMARK    2  A    between atoms: C_4  and  C_5
REMARK    3  A    between atoms: C_6  and  S_7
REMARK    4  A    between atoms: S_7  and  N_10
REMARK    5  A    between atoms: N_10  and  C_11
REMARK    6  A    between atoms: N_10  and  C_15
REMARK    7  A    between atoms: C_11  and  C_12
REMARK    8  A    between atoms: C_12  and  O_14
REMARK    9  A    between atoms: C_15  and  C_16
REMARK   10  A    between atoms: C_16  and  O_18
REMARK   11  A    between atoms: C_19  and  C_20
REMARK                            x       y       z     vdW  Elec       q    Type
REMARK                         _______ _______ _______ _____ _____    ______ ____
ROOT
ATOM      1  S   UNL     1       3.383   3.778  17.968  0.00  0.00    +0.000 S 
ATOM      2  O   UNL     1       3.667   2.721  18.911  0.00  0.00    +0.000 OA
ATOM      3  O   UNL     1       2.644   3.439  16.769  0.00  0.00    +0.000 OA
ENDROOT
BRANCH   1   9
ATOM      4  C   UNL     1       1.329   8.394  21.398  0.00  0.00    +0.000 C 
ATOM      5  C   UNL     1       1.697   7.264  20.484  0.00  0.00    +0.000 A 
ATOM      6  C   UNL     1       1.360   5.945  20.783  0.00  0.00    +0.000 A 
ATOM      7  C   UNL     1       1.771   4.871  19.964  0.00  0.00    +0.000 A 
ATOM      8  C   UNL     1       1.349   3.493  20.403  0.00  0.00    +0.000 C 
ATOM      9  C   UNL     1       2.571   5.136  18.825  0.00  0.00    +0.000 A 
ATOM     10  C   UNL     1       2.862   6.482  18.473  0.00  0.00    +0.000 A 
ATOM     11  C   UNL     1       3.649   6.948  17.275  0.00  0.00    +0.000 C 
ATOM     12  C   UNL     1       2.428   7.520  19.324  0.00  0.00    +0.000 A 
ENDBRANCH   1   9
BRANCH   1  13
ATOM     13  N   UNL     1       4.899   4.400  17.404  0.00  0.00    +0.000 NA
BRANCH  13  14
ATOM     14  C   UNL     1       5.972   4.457  18.455  0.00  0.00    +0.000 C 
BRANCH  14  15
ATOM     15  C   UNL     1       7.285   5.027  17.949  0.00  0.00    +0.000 C 
ATOM     16  O   UNL     1       7.486   6.205  17.711  0.00  0.00    +0.000 OA
BRANCH  15  17
ATOM     17  O   UNL     1       8.231   4.073  17.747  0.00  0.00    +0.000 OA
ATOM     18  H   UNL     1       8.896   4.069  18.466  0.00  0.00    +0.000 HD
ENDBRANCH  15  17
ENDBRANCH  14  15
ENDBRANCH  13  14
BRANCH  13  19
ATOM     19  C   UNL     1       5.343   3.609  16.189  0.00  0.00    +0.000 C 
BRANCH  19  20
ATOM     20  C   UNL     1       5.821   4.418  14.992  0.00  0.00    +0.000 C 
ATOM     21  O   UNL     1       5.720   5.633  14.915  0.00  0.00    +0.000 OA
BRANCH  20  22
ATOM     22  O   UNL     1       6.364   3.676  13.994  0.00  0.00    +0.000 OA
ATOM     23  H   UNL     1       6.735   4.180  13.242  0.00  0.00    +0.000 HD
ENDBRANCH  20  22
ENDBRANCH  19  20
ENDBRANCH  13  19
ENDBRANCH   1  13
TORSDOF 8
ENDMDL
MODEL 7
REMARK VINA RESULT:      -6.6      1.740      3.258
REMARK  Name = 
REMARK  11 active torsions:
REMARK  status: ('A' for Active; 'I' for Inactive)
REMARK    1  A    between atoms: C_1  and  C_2
REMARK    2  A    between atoms: C_4  and  C_5
REMARK    3  A    between atoms: C_6  and  S_7
REMARK    4  A    between atoms: S_7  and  N_10
REMARK    5  A    between atoms: N_10  and  C_11
REMARK    6  A    between atoms: N_10  and  C_15
REMARK    7  A    between atoms: C_11  and  C_12
REMARK    8  A    between atoms: C_12  and  O_14
REMARK    9  A    between atoms: C_15  and  C_16
REMARK   10  A    between atoms: C_16  and  O_18
REMARK   11  A    between atoms: C_19  and  C_20
REMARK                            x       y       z     vdW  Elec       q    Type
REMARK                         _______ _______ _______ _____ _____    ______ ____
ROOT
ATOM      1  S   UNL     1       4.172   5.058  17.348  0.00  0.00    +0.000 S 
ATOM      2  O   UNL     1       4.029   4.101  16.277  0.00  0.00    +0.000 OA
ATOM      3  O   UNL     1       3.651   6.394  17.141  0.00  0.00    +0.000 OA
ENDROOT
BRANCH   1   9
ATOM      4  C   UNL     1       1.108   2.614  22.032  0.00  0.00    +0.000 C 
ATOM      5  C   UNL     1       1.978   3.235  20.980  0.00  0.00    +0.000 A 
ATOM      6  C   UNL     1       2.044   4.617  20.811  0.00  0.00    +0.000 A 
ATOM      7  C   UNL     1       2.801   5.201  19.773  0.00  0.00    +0.000 A 
ATOM      8  C   UNL     1       2.783   6.706  19.693  0.00  0.00    +0.000 C 
ATOM      9  C   UNL     1       3.489   4.363  18.861  0.00  0.00    +0.000 A 
ATOM     10  C   UNL     1       3.484   2.956  19.066  0.00  0.00    +0.000 A 
ATOM     11  C   UNL     1       4.199   1.924  18.231  0.00  0.00    +0.000 C 
ATOM     12  C   UNL     1       2.712   2.421  20.118  0.00  0.00    +0.000 A 
ENDBRANCH   1   9
BRANCH   1  13
ATOM     13  N   UNL     1       5.867   5.273  17.638  0.00  0.00    +0.000 NA
BRANCH  13  14
ATOM     14  C   UNL     1       6.261   5.185  19.085  0.00  0.00    +0.000 C 
BRANCH  14  15
ATOM     15  C   UNL     1       7.589   5.855  19.393  0.00  0.00    +0.000 C 
ATOM     16  O   UNL     1       8.110   6.715  18.705  0.00  0.00    +0.000 OA
BRANCH  15  17
ATOM     17  O   UNL     1       8.176   5.370  20.518  0.00  0.00    +0.000 OA
ATOM     18  H   UNL     1       9.030   4.934  20.316  0.00  0.00    +0.000 HD
ENDBRANCH  15  17
ENDBRANCH  14  15
ENDBRANCH  13  14
BRANCH  13  19
ATOM     19  C   UNL     1       6.649   4.296  16.782  0.00  0.00    +0.000 C 
BRANCH  19  20
ATOM     20  C   UNL     1       6.991   4.754  15.372  0.00  0.00    +0.000 C 
ATOM     21  O   UNL     1       7.740   5.688  15.129  0.00  0.00    +0.000 OA
BRANCH  20  22
ATOM     22  O   UNL     1       6.381   4.045  14.388  0.00  0.00    +0.000 OA
ATOM     23  H   UNL     1       5.562   3.576  14.645  0.00  0.00    +0.000 HD
ENDBRANCH  20  22
ENDBRANCH  19  20
ENDBRANCH  13  19
ENDBRANCH   1  13
TORSDOF 8
ENDMDL
MODEL 8
REMARK VINA RESULT:      -6.6      1.548      2.688
REMARK  Name = 
REMARK  11 active torsions:
REMARK  status: ('A' for Active; 'I' for Inactive)
REMARK    1  A    between atoms: C_1  and  C_2
REMARK    2  A    between atoms: C_4  and  C_5
REMARK    3  A    between atoms: C_6  and  S_7
REMARK    4  A    between atoms: S_7  and  N_10
REMARK    5  A    between atoms: N_10  and  C_11
REMARK    6  A    between atoms: N_10  and  C_15
REMARK    7  A    between atoms: C_11  and  C_12
REMARK    8  A    between atoms: C_12  and  O_14
REMARK    9  A    between atoms: C_15  and  C_16
REMARK   10  A    between atoms: C_16  and  O_18
REMARK   11  A    between atoms: C_19  and  C_20
REMARK                            x       y       z     vdW  Elec       q    Type
REMARK                         _______ _______ _______ _____ _____    ______ ____
ROOT
ATOM      1  S   UNL     1       3.557   4.083  18.193  0.00  0.00    +0.000 S 
ATOM      2  O   UNL     1       3.867   2.947  19.027  0.00  0.00    +0.000 OA
ATOM      3  O   UNL     1       2.688   3.873  17.053  0.00  0.00    +0.000 OA
ENDROOT
BRANCH   1   9
ATOM      4  C   UNL     1       0.612   8.484  21.236  0.00  0.00    +0.000 C 
ATOM      5  C   UNL     1       1.463   7.448  20.564  0.00  0.00    +0.000 A 
ATOM      6  C   UNL     1       2.198   7.739  19.417  0.00  0.00    +0.000 A 
ATOM      7  C   UNL     1       2.938   6.748  18.738  0.00  0.00    +0.000 A 
ATOM      8  C   UNL     1       3.683   7.191  17.506  0.00  0.00    +0.000 C 
ATOM      9  C   UNL     1       2.911   5.414  19.217  0.00  0.00    +0.000 A 
ATOM     10  C   UNL     1       2.220   5.120  20.424  0.00  0.00    +0.000 A 
ATOM     11  C   UNL     1       2.129   3.777  21.103  0.00  0.00    +0.000 C 
ATOM     12  C   UNL     1       1.496   6.146  21.065  0.00  0.00    +0.000 A 
ENDBRANCH   1   9
BRANCH   1  13
ATOM     13  N   UNL     1       5.046   4.667  17.525  0.00  0.00    +0.000 NA
BRANCH  13  14
ATOM     14  C   UNL     1       6.203   4.643  18.483  0.00  0.00    +0.000 C 
BRANCH  14  15
ATOM     15  C   UNL     1       7.545   4.895  17.819  0.00  0.00    +0.000 C 
ATOM     16  O   UNL     1       8.448   4.081  17.744  0.00  0.00    +0.000 OA
BRANCH  15  17
ATOM     17  O   UNL     1       7.664   6.158  17.334  0.00  0.00    +0.000 OA
ATOM     18  H   UNL     1       8.563   6.517  17.484  0.00  0.00    +0.000 HD
ENDBRANCH  15  17
ENDBRANCH  14  15
ENDBRANCH  13  14
BRANCH  13  19
ATOM     19  C   UNL     1       5.355   3.906  16.250  0.00  0.00    +0.000 C 
BRANCH  19  20
ATOM     20  C   UNL     1       5.571   4.742  14.998  0.00  0.00    +0.000 C 
ATOM     21  O   UNL     1       5.707   5.956  15.012  0.00  0.00    +0.000 OA
BRANCH  20  22
ATOM     22  O   UNL     1       5.588   4.029  13.843  0.00  0.00    +0.000 OA
ATOM     23  H   UNL     1       4.817   3.446  13.690  0.00  0.00    +0.000 HD
ENDBRANCH  20  22
ENDBRANCH  19  20
ENDBRANCH  13  19
ENDBRANCH   1  13
TORSDOF 8
ENDMDL
MODEL 9
REMARK VINA RESULT:      -6.6      2.386      5.192
REMARK  Name = 
REMARK  11 active torsions:
REMARK  status: ('A' for Active; 'I' for Inactive)
REMARK    1  A    between atoms: C_1  and  C_2
REMARK    2  A    between atoms: C_4  and  C_5
REMARK    3  A    between atoms: C_6  and  S_7
REMARK    4  A    between atoms: S_7  and  N_10
REMARK    5  A    between atoms: N_10  and  C_11
REMARK    6  A    between atoms: N_10  and  C_15
REMARK    7  A    between atoms: C_11  and  C_12
REMARK    8  A    between atoms: C_12  and  O_14
REMARK    9  A    between atoms: C_15  and  C_16
REMARK   10  A    between atoms: C_16  and  O_18
REMARK   11  A    between atoms: C_19  and  C_20
REMARK                            x       y       z     vdW  Elec       q    Type
REMARK                         _______ _______ _______ _____ _____    ______ ____
ROOT
ATOM      1  S   UNL     1       4.866   4.190  18.260  0.00  0.00    +0.000 S 
ATOM      2  O   UNL     1       5.100   3.857  16.875  0.00  0.00    +0.000 OA
ATOM      3  O   UNL     1       5.997   4.165  19.166  0.00  0.00    +0.000 OA
ENDROOT
BRANCH   1   9
ATOM      4  C   UNL     1       1.435   9.240  18.105  0.00  0.00    +0.000 C 
ATOM      5  C   UNL     1       2.384   8.085  18.215  0.00  0.00    +0.000 A 
ATOM      6  C   UNL     1       3.381   7.867  17.266  0.00  0.00    +0.000 A 
ATOM      7  C   UNL     1       4.227   6.739  17.324  0.00  0.00    +0.000 A 
ATOM      8  C   UNL     1       5.259   6.615  16.233  0.00  0.00    +0.000 C 
ATOM      9  C   UNL     1       4.041   5.787  18.357  0.00  0.00    +0.000 A 
ATOM     10  C   UNL     1       3.073   6.034  19.369  0.00  0.00    +0.000 A 
ATOM     11  C   UNL     1       2.778   5.161  20.562  0.00  0.00    +0.000 C 
ATOM     12  C   UNL     1       2.253   7.176  19.265  0.00  0.00    +0.000 A 
ENDBRANCH   1   9
BRANCH   1  13
ATOM     13  N   UNL     1       3.749   3.029  18.899  0.00  0.00    +0.000 NA
BRANCH  13  14
ATOM     14  C   UNL     1       2.748   2.522  17.900  0.00  0.00    +0.000 C 
BRANCH  14  15
ATOM     15  C   UNL     1       1.341   3.039  18.136  0.00  0.00    +0.000 C 
ATOM     16  O   UNL     1       0.542   2.552  18.917  0.00  0.00    +0.000 OA
BRANCH  15  17
ATOM     17  O   UNL     1       1.031   4.103  17.350  0.00  0.00    +0.000 OA
ATOM     18  H   UNL     1       1.823   4.644  17.150  0.00  0.00    +0.000 HD
ENDBRANCH  15  17
ENDBRANCH  14  15
ENDBRANCH  13  14
BRANCH  13  19
ATOM     19  C   UNL     1       4.521   1.897  19.547  0.00  0.00    +0.000 C 
BRANCH  19  20
ATOM     20  C   UNL     1       4.415   1.784  21.061  0.00  0.00    +0.000 C 
ATOM     21  O   UNL     1       3.433   2.135  21.696  0.00  0.00    +0.000 OA
BRANCH  20  22
ATOM     22  O   UNL     1       5.517   1.270  21.664  0.00  0.00    +0.000 OA
ATOM     23  H   UNL     1       6.229   1.910  21.869  0.00  0.00    +0.000 HD
ENDBRANCH  20  22
ENDBRANCH  19  20
ENDBRANCH  13  19
ENDBRANCH   1  13
TORSDOF 8
ENDMDL
