MODEL 1
REMARK VINA RESULT:      -8.3      0.000      0.000
REMARK  Name = 
REMARK  6 active torsions:
REMARK  status: ('A' for Active; 'I' for Inactive)
REMARK    1  A    between atoms: C_1  and  O_2
REMARK    2  A    between atoms: O_2  and  C_3
REMARK    3  A    between atoms: C_3  and  C_4
REMARK    4  A    between atoms: C_4  and  N_5
REMARK    5  A    between atoms: C_6  and  C_8
REMARK    6  A    between atoms: C_15  and  C_16
REMARK                            x       y       z     vdW  Elec       q    Type
REMARK                         _______ _______ _______ _____ _____    ______ ____
ROOT
ATOM      1  C   UNL     1       6.925   4.558  15.931  0.00  0.00    +0.000 A 
ATOM      2  N   UNL     1       7.973   4.671  16.822  0.00  0.00    +0.000 NA
ATOM      3  N   UNL     1       7.498   4.526  18.053  0.00  0.00    +0.000 NA
ATOM      4  N   UNL     1       6.180   4.327  17.943  0.00  0.00    +0.000 N 
ATOM      5  C   UNL     1       5.760   4.339  16.647  0.00  0.00    +0.000 A 
ATOM      6  C   UNL     1       4.351   4.073  16.294  0.00  0.00    +0.000 C 
ATOM      7  O   UNL     1       3.533   4.142  17.476  0.00  0.00    +0.000 OA
ATOM      8  C   UNL     1       4.061   3.393  18.588  0.00  0.00    +0.000 C 
ATOM      9  C   UNL     1       5.323   4.095  19.089  0.00  0.00    +0.000 C 
ENDROOT
BRANCH   8  10
ATOM     10  C   UNL     1       2.986   3.257  19.655  0.00  0.00    +0.000 A 
ATOM     11  C   UNL     1       3.315   2.718  20.910  0.00  0.00    +0.000 A 
ATOM     12  C   UNL     1       2.333   2.522  21.886  0.00  0.00    +0.000 A 
ATOM     13  C   UNL     1       1.008   2.868  21.627  0.00  0.00    +0.000 A 
ATOM     14  C   UNL     1       0.669   3.427  20.398  0.00  0.00    +0.000 A 
ATOM     15  C   UNL     1       1.651   3.625  19.421  0.00  0.00    +0.000 A 
ENDBRANCH   8  10
BRANCH   1  17
ATOM     16  N   UNL     1       6.517   3.623  13.773  0.00  0.00    +0.000 N 
ATOM     17  C   UNL     1       7.097   4.649  14.487  0.00  0.00    +0.000 C 
ATOM     18  O   UNL     1       7.704   5.577  13.954  0.00  0.00    +0.000 OA
ATOM     19  H   UNL     1       5.804   3.077  14.244  0.00  0.00    +0.000 HD
BRANCH  16  20
ATOM     20  C   UNL     1       6.571   3.598  12.325  0.00  0.00    +0.000 C 
BRANCH  20  21
ATOM     21  C   UNL     1       5.438   2.777  11.707  0.00  0.00    +0.000 C 
BRANCH  21  23
ATOM     22  C   UNL     1       3.383   3.051  10.585  0.00  0.00    +0.000 C 
ATOM     23  O   UNL     1       4.297   3.619  11.515  0.00  0.00    +0.000 OA
ENDBRANCH  21  23
ENDBRANCH  20  21
ENDBRANCH  16  20
ENDBRANCH   1  17
TORSDOF 5
ENDMDL
MODEL 2
REMARK VINA RESULT:      -8.1      0.734      1.041
REMARK  Name = 
REMARK  6 active torsions:
REMARK  status: ('A' for Active; 'I' for Inactive)
REMARK    1  A    between atoms: C_1  and  O_2
REMARK    2  A    between atoms: O_2  and  C_3
REMARK    3  A    between atoms: C_3  and  C_4
REMARK    4  A    between atoms: C_4  and  N_5
REMARK    5  A    between atoms: C_6  and  C_8
REMARK    6  A    between atoms: C_15  and  C_16
REMARK                            x       y       z     vdW  Elec       q    Type
REMARK                         _______ _______ _______ _____ _____    ______ ____
ROOT
ATOM      1  C   UNL     1       6.925   4.506  15.943  0.00  0.00    +0.000 A 
ATOM      2  N   UNL     1       7.976   4.627  16.829  0.00  0.00    +0.000 NA
ATOM      3  N   UNL     1       7.503   4.502  18.064  0.00  0.00    +0.000 NA
ATOM      4  N   UNL     1       6.184   4.306  17.960  0.00  0.00    +0.000 N 
ATOM      5  C   UNL     1       5.761   4.301  16.665  0.00  0.00    +0.000 A 
ATOM      6  C   UNL     1       4.350   4.035  16.319  0.00  0.00    +0.000 C 
ATOM      7  O   UNL     1       3.534   4.125  17.502  0.00  0.00    +0.000 OA
ATOM      8  C   UNL     1       4.062   3.390  18.623  0.00  0.00    +0.000 C 
ATOM      9  C   UNL     1       5.329   4.094  19.111  0.00  0.00    +0.000 C 
ENDROOT
BRANCH   8  10
ATOM     10  C   UNL     1       2.990   3.273  19.694  0.00  0.00    +0.000 A 
ATOM     11  C   UNL     1       3.262   2.569  20.879  0.00  0.00    +0.000 A 
ATOM     12  C   UNL     1       2.273   2.392  21.851  0.00  0.00    +0.000 A 
ATOM     13  C   UNL     1       0.999   2.922  21.660  0.00  0.00    +0.000 A 
ATOM     14  C   UNL     1       0.719   3.645  20.504  0.00  0.00    +0.000 A 
ATOM     15  C   UNL     1       1.708   3.824  19.531  0.00  0.00    +0.000 A 
ENDBRANCH   8  10
BRANCH   1  17
ATOM     16  N   UNL     1       6.368   3.642  13.788  0.00  0.00    +0.000 N 
ATOM     17  C   UNL     1       7.094   4.574  14.497  0.00  0.00    +0.000 C 
ATOM     18  O   UNL     1       7.819   5.409  13.959  0.00  0.00    +0.000 OA
ATOM     19  H   UNL     1       5.590   3.200  14.266  0.00  0.00    +0.000 HD
BRANCH  16  20
ATOM     20  C   UNL     1       6.404   3.613  12.339  0.00  0.00    +0.000 C 
BRANCH  20  21
ATOM     21  C   UNL     1       5.267   2.785  11.738  0.00  0.00    +0.000 C 
BRANCH  21  23
ATOM     22  C   UNL     1       7.214   1.630  11.078  0.00  0.00    +0.000 C 
ATOM     23  O   UNL     1       5.799   1.564  11.216  0.00  0.00    +0.000 OA
ENDBRANCH  21  23
ENDBRANCH  20  21
ENDBRANCH  16  20
ENDBRANCH   1  17
TORSDOF 5
ENDMDL
MODEL 3
REMARK VINA RESULT:      -7.9      0.991      1.479
REMARK  Name = 
REMARK  6 active torsions:
REMARK  status: ('A' for Active; 'I' for Inactive)
REMARK    1  A    between atoms: C_1  and  O_2
REMARK    2  A    between atoms: O_2  and  C_3
REMARK    3  A    between atoms: C_3  and  C_4
REMARK    4  A    between atoms: C_4  and  N_5
REMARK    5  A    between atoms: C_6  and  C_8
REMARK    6  A    between atoms: C_15  and  C_16
REMARK                            x       y       z     vdW  Elec       q    Type
REMARK                         _______ _______ _______ _____ _____    ______ ____
ROOT
ATOM      1  C   UNL     1       6.942   4.553  15.807  0.00  0.00    +0.000 A 
ATOM      2  N   UNL     1       7.995   4.658  16.693  0.00  0.00    +0.000 NA
ATOM      3  N   UNL     1       7.527   4.495  17.925  0.00  0.00    +0.000 NA
ATOM      4  N   UNL     1       6.209   4.292  17.820  0.00  0.00    +0.000 N 
ATOM      5  C   UNL     1       5.782   4.319  16.527  0.00  0.00    +0.000 A 
ATOM      6  C   UNL     1       4.372   4.052  16.178  0.00  0.00    +0.000 C 
ATOM      7  O   UNL     1       3.560   4.102  17.366  0.00  0.00    +0.000 OA
ATOM      8  C   UNL     1       4.098   3.340  18.464  0.00  0.00    +0.000 C 
ATOM      9  C   UNL     1       5.360   4.041  18.967  0.00  0.00    +0.000 C 
ENDROOT
BRANCH   8  10
ATOM     10  C   UNL     1       3.030   3.186  19.536  0.00  0.00    +0.000 A 
ATOM     11  C   UNL     1       1.758   3.750  19.338  0.00  0.00    +0.000 A 
ATOM     12  C   UNL     1       0.779   3.679  20.334  0.00  0.00    +0.000 A 
ATOM     13  C   UNL     1       1.051   3.037  21.539  0.00  0.00    +0.000 A 
ATOM     14  C   UNL     1       2.297   2.450  21.742  0.00  0.00    +0.000 A 
ATOM     15  C   UNL     1       3.277   2.519  20.747  0.00  0.00    +0.000 A 
ENDBRANCH   8  10
BRANCH   1  17
ATOM     16  N   UNL     1       6.427   3.711  13.633  0.00  0.00    +0.000 N 
ATOM     17  C   UNL     1       7.105   4.663  14.363  0.00  0.00    +0.000 C 
ATOM     18  O   UNL     1       7.786   5.546  13.844  0.00  0.00    +0.000 OA
ATOM     19  H   UNL     1       5.674   3.219  14.101  0.00  0.00    +0.000 HD
BRANCH  16  20
ATOM     20  C   UNL     1       6.463   3.716  12.184  0.00  0.00    +0.000 C 
BRANCH  20  21
ATOM     21  C   UNL     1       6.886   2.368  11.600  0.00  0.00    +0.000 C 
BRANCH  21  23
ATOM     22  C   UNL     1       6.098   0.183  11.198  0.00  0.00    +0.000 C 
ATOM     23  O   UNL     1       5.733   1.533  11.458  0.00  0.00    +0.000 OA
ENDBRANCH  21  23
ENDBRANCH  20  21
ENDBRANCH  16  20
ENDBRANCH   1  17
TORSDOF 5
ENDMDL
MODEL 4
REMARK VINA RESULT:      -7.7      0.690      1.219
REMARK  Name = 
REMARK  6 active torsions:
REMARK  status: ('A' for Active; 'I' for Inactive)
REMARK    1  A    between atoms: C_1  and  O_2
REMARK    2  A    between atoms: O_2  and  C_3
REMARK    3  A    between atoms: C_3  and  C_4
REMARK    4  A    between atoms: C_4  and  N_5
REMARK    5  A    between atoms: C_6  and  C_8
REMARK    6  A    between atoms: C_15  and  C_16
REMARK                            x       y       z     vdW  Elec       q    Type
REMARK                         _______ _______ _______ _____ _____    ______ ____
ROOT
ATOM      1  C   UNL     1       6.791   5.226  15.676  0.00  0.00    +0.000 A 
ATOM      2  N   UNL     1       7.532   6.068  16.480  0.00  0.00    +0.000 NA
ATOM      3  N   UNL     1       6.969   6.108  17.682  0.00  0.00    +0.000 NA
ATOM      4  N   UNL     1       5.896   5.310  17.638  0.00  0.00    +0.000 N 
ATOM      5  C   UNL     1       5.729   4.733  16.415  0.00  0.00    +0.000 A 
ATOM      6  C   UNL     1       4.643   3.764  16.166  0.00  0.00    +0.000 C 
ATOM      7  O   UNL     1       3.691   3.813  17.244  0.00  0.00    +0.000 OA
ATOM      8  C   UNL     1       4.297   3.765  18.551  0.00  0.00    +0.000 C 
ATOM      9  C   UNL     1       5.043   5.078  18.786  0.00  0.00    +0.000 C 
ENDROOT
BRANCH   8  10
ATOM     10  C   UNL     1       3.222   3.491  19.590  0.00  0.00    +0.000 A 
ATOM     11  C   UNL     1       1.978   4.136  19.493  0.00  0.00    +0.000 A 
ATOM     12  C   UNL     1       0.995   3.952  20.471  0.00  0.00    +0.000 A 
ATOM     13  C   UNL     1       1.236   3.114  21.557  0.00  0.00    +0.000 A 
ATOM     14  C   UNL     1       2.454   2.447  21.657  0.00  0.00    +0.000 A 
ATOM     15  C   UNL     1       3.437   2.629  20.678  0.00  0.00    +0.000 A 
ENDBRANCH   8  10
BRANCH   1  17
ATOM     16  N   UNL     1       6.435   3.902  13.722  0.00  0.00    +0.000 N 
ATOM     17  C   UNL     1       7.143   4.938  14.291  0.00  0.00    +0.000 C 
ATOM     18  O   UNL     1       7.996   5.581  13.682  0.00  0.00    +0.000 OA
ATOM     19  H   UNL     1       5.570   3.627  14.176  0.00  0.00    +0.000 HD
BRANCH  16  20
ATOM     20  C   UNL     1       6.647   3.524  12.339  0.00  0.00    +0.000 C 
BRANCH  20  21
ATOM     21  C   UNL     1       5.455   2.774  11.743  0.00  0.00    +0.000 C 
BRANCH  21  23
ATOM     22  C   UNL     1       3.338   3.075  10.750  0.00  0.00    +0.000 C 
ATOM     23  O   UNL     1       4.519   3.718  11.216  0.00  0.00    +0.000 OA
ENDBRANCH  21  23
ENDBRANCH  20  21
ENDBRANCH  16  20
ENDBRANCH   1  17
TORSDOF 5
ENDMDL
MODEL 5
REMARK VINA RESULT:      -7.3      1.700      1.891
REMARK  Name = 
REMARK  6 active torsions:
REMARK  status: ('A' for Active; 'I' for Inactive)
REMARK    1  A    between atoms: C_1  and  O_2
REMARK    2  A    between atoms: O_2  and  C_3
REMARK    3  A    between atoms: C_3  and  C_4
REMARK    4  A    between atoms: C_4  and  N_5
REMARK    5  A    between atoms: C_6  and  C_8
REMARK    6  A    between atoms: C_15  and  C_16
REMARK                            x       y       z     vdW  Elec       q    Type
REMARK                         _______ _______ _______ _____ _____    ______ ____
ROOT
ATOM      1  C   UNL     1       5.738   5.375  15.151  0.00  0.00    +0.000 A 
ATOM      2  N   UNL     1       5.565   6.729  15.354  0.00  0.00    +0.000 NA
ATOM      3  N   UNL     1       4.785   6.901  16.414  0.00  0.00    +0.000 NA
ATOM      4  N   UNL     1       4.471   5.683  16.870  0.00  0.00    +0.000 N 
ATOM      5  C   UNL     1       5.031   4.690  16.125  0.00  0.00    +0.000 A 
ATOM      6  C   UNL     1       4.868   3.269  16.492  0.00  0.00    +0.000 C 
ATOM      7  O   UNL     1       3.825   3.138  17.475  0.00  0.00    +0.000 OA
ATOM      8  C   UNL     1       3.945   4.067  18.570  0.00  0.00    +0.000 C 
ATOM      9  C   UNL     1       3.651   5.473  18.047  0.00  0.00    +0.000 C 
ENDROOT
BRANCH   8  10
ATOM     10  C   UNL     1       3.014   3.638  19.694  0.00  0.00    +0.000 A 
ATOM     11  C   UNL     1       3.461   2.714  20.654  0.00  0.00    +0.000 A 
ATOM     12  C   UNL     1       2.604   2.254  21.659  0.00  0.00    +0.000 A 
ATOM     13  C   UNL     1       1.291   2.715  21.726  0.00  0.00    +0.000 A 
ATOM     14  C   UNL     1       0.840   3.649  20.799  0.00  0.00    +0.000 A 
ATOM     15  C   UNL     1       1.696   4.111  19.793  0.00  0.00    +0.000 A 
ENDBRANCH   8  10
BRANCH   1  17
ATOM     16  N   UNL     1       5.964   3.824  13.350  0.00  0.00    +0.000 N 
ATOM     17  C   UNL     1       6.559   4.832  14.077  0.00  0.00    +0.000 C 
ATOM     18  O   UNL     1       7.690   5.254  13.835  0.00  0.00    +0.000 OA
ATOM     19  H   UNL     1       4.954   3.741  13.415  0.00  0.00    +0.000 HD
BRANCH  16  20
ATOM     20  C   UNL     1       6.643   3.213  12.225  0.00  0.00    +0.000 C 
BRANCH  20  21
ATOM     21  C   UNL     1       5.771   2.190  11.496  0.00  0.00    +0.000 C 
BRANCH  21  23
ATOM     22  C   UNL     1       6.157  -0.128  11.309  0.00  0.00    +0.000 C 
ATOM     23  O   UNL     1       6.606   1.170  10.940  0.00  0.00    +0.000 OA
ENDBRANCH  21  23
ENDBRANCH  20  21
ENDBRANCH  16  20
ENDBRANCH   1  17
TORSDOF 5
ENDMDL
MODEL 6
REMARK VINA RESULT:      -6.9      2.791      3.227
REMARK  Name = 
REMARK  6 active torsions:
REMARK  status: ('A' for Active; 'I' for Inactive)
REMARK    1  A    between atoms: C_1  and  O_2
REMARK    2  A    between atoms: O_2  and  C_3
REMARK    3  A    between atoms: C_3  and  C_4
REMARK    4  A    between atoms: C_4  and  N_5
REMARK    5  A    between atoms: C_6  and  C_8
REMARK    6  A    between atoms: C_15  and  C_16
REMARK                            x       y       z     vdW  Elec       q    Type
REMARK                         _______ _______ _______ _____ _____    ______ ____
ROOT
ATOM      1  C   UNL     1       6.771   4.969  15.971  0.00  0.00    +0.000 A 
ATOM      2  N   UNL     1       7.430   4.359  17.019  0.00  0.00    +0.000 NA
ATOM      3  N   UNL     1       6.827   4.701  18.152  0.00  0.00    +0.000 NA
ATOM      4  N   UNL     1       5.812   5.509  17.827  0.00  0.00    +0.000 N 
ATOM      5  C   UNL     1       5.725   5.717  16.484  0.00  0.00    +0.000 A 
ATOM      6  C   UNL     1       4.635   6.526  15.901  0.00  0.00    +0.000 C 
ATOM      7  O   UNL     1       3.964   7.259  16.942  0.00  0.00    +0.000 OA
ATOM      8  C   UNL     1       3.615   6.451  18.083  0.00  0.00    +0.000 C 
ATOM      9  C   UNL     1       4.902   6.060  18.811  0.00  0.00    +0.000 C 
ENDROOT
BRANCH   8  10
ATOM     10  C   UNL     1       2.639   7.219  18.960  0.00  0.00    +0.000 A 
ATOM     11  C   UNL     1       2.144   8.461  18.529  0.00  0.00    +0.000 A 
ATOM     12  C   UNL     1       1.297   9.218  19.344  0.00  0.00    +0.000 A 
ATOM     13  C   UNL     1       0.924   8.744  20.600  0.00  0.00    +0.000 A 
ATOM     14  C   UNL     1       1.385   7.504  21.033  0.00  0.00    +0.000 A 
ATOM     15  C   UNL     1       2.232   6.745  20.218  0.00  0.00    +0.000 A 
ENDBRANCH   8  10
BRANCH   1  17
ATOM     16  N   UNL     1       6.434   3.843  13.893  0.00  0.00    +0.000 N 
ATOM     17  C   UNL     1       7.161   4.792  14.578  0.00  0.00    +0.000 C 
ATOM     18  O   UNL     1       8.061   5.450  14.058  0.00  0.00    +0.000 OA
ATOM     19  H   UNL     1       5.543   3.566  14.291  0.00  0.00    +0.000 HD
BRANCH  16  20
ATOM     20  C   UNL     1       6.681   3.583  12.489  0.00  0.00    +0.000 C 
BRANCH  20  21
ATOM     21  C   UNL     1       5.441   3.069  11.757  0.00  0.00    +0.000 C 
BRANCH  21  23
ATOM     22  C   UNL     1       6.962   1.423  11.025  0.00  0.00    +0.000 C 
ATOM     23  O   UNL     1       5.624   1.687  11.432  0.00  0.00    +0.000 OA
ENDBRANCH  21  23
ENDBRANCH  20  21
ENDBRANCH  16  20
ENDBRANCH   1  17
TORSDOF 5
ENDMDL
MODEL 7
REMARK VINA RESULT:      -6.8      2.009      7.277
REMARK  Name = 
REMARK  6 active torsions:
REMARK  status: ('A' for Active; 'I' for Inactive)
REMARK    1  A    between atoms: C_1  and  O_2
REMARK    2  A    between atoms: O_2  and  C_3
REMARK    3  A    between atoms: C_3  and  C_4
REMARK    4  A    between atoms: C_4  and  N_5
REMARK    5  A    between atoms: C_6  and  C_8
REMARK    6  A    between atoms: C_15  and  C_16
REMARK                            x       y       z     vdW  Elec       q    Type
REMARK                         _______ _______ _______ _____ _____    ______ ____
ROOT
ATOM      1  C   UNL     1       4.806   4.820  19.343  0.00  0.00    +0.000 A 
ATOM      2  N   UNL     1       6.049   5.071  19.888  0.00  0.00    +0.000 NA
ATOM      3  N   UNL     1       6.955   5.003  18.920  0.00  0.00    +0.000 NA
ATOM      4  N   UNL     1       6.300   4.714  17.790  0.00  0.00    +0.000 N 
ATOM      5  C   UNL     1       4.959   4.584  17.987  0.00  0.00    +0.000 A 
ATOM      6  C   UNL     1       4.037   4.332  16.860  0.00  0.00    +0.000 C 
ATOM      7  O   UNL     1       4.790   3.940  15.697  0.00  0.00    +0.000 OA
ATOM      8  C   UNL     1       5.911   4.801  15.419  0.00  0.00    +0.000 C 
ATOM      9  C   UNL     1       6.964   4.590  16.508  0.00  0.00    +0.000 C 
ENDROOT
BRANCH   8  10
ATOM     10  C   UNL     1       6.429   4.511  14.019  0.00  0.00    +0.000 A 
ATOM     11  C   UNL     1       7.474   5.286  13.489  0.00  0.00    +0.000 A 
ATOM     12  C   UNL     1       7.925   5.083  12.181  0.00  0.00    +0.000 A 
ATOM     13  C   UNL     1       7.345   4.098  11.384  0.00  0.00    +0.000 A 
ATOM     14  C   UNL     1       6.326   3.304  11.903  0.00  0.00    +0.000 A 
ATOM     15  C   UNL     1       5.875   3.505  13.211  0.00  0.00    +0.000 A 
ENDBRANCH   8  10
BRANCH   1  17
ATOM     16  N   UNL     1       3.326   3.675  20.826  0.00  0.00    +0.000 N 
ATOM     17  C   UNL     1       3.577   4.835  20.128  0.00  0.00    +0.000 C 
ATOM     18  O   UNL     1       2.835   5.815  20.168  0.00  0.00    +0.000 OA
ATOM     19  H   UNL     1       4.108   3.045  20.975  0.00  0.00    +0.000 HD
BRANCH  16  20
ATOM     20  C   UNL     1       2.163   3.555  21.682  0.00  0.00    +0.000 C 
BRANCH  20  21
ATOM     21  C   UNL     1       1.086   2.645  21.088  0.00  0.00    +0.000 C 
BRANCH  21  23
ATOM     22  C   UNL     1       0.862   2.388  18.756  0.00  0.00    +0.000 C 
ATOM     23  O   UNL     1       0.596   3.225  19.875  0.00  0.00    +0.000 OA
ENDBRANCH  21  23
ENDBRANCH  20  21
ENDBRANCH  16  20
ENDBRANCH   1  17
TORSDOF 5
ENDMDL
MODEL 8
REMARK VINA RESULT:      -6.8      3.609      4.075
REMARK  Name = 
REMARK  6 active torsions:
REMARK  status: ('A' for Active; 'I' for Inactive)
REMARK    1  A    between atoms: C_1  and  O_2
REMARK    2  A    between atoms: O_2  and  C_3
REMARK    3  A    between atoms: C_3  and  C_4
REMARK    4  A    between atoms: C_4  and  N_5
REMARK    5  A    between atoms: C_6  and  C_8
REMARK    6  A    between atoms: C_15  and  C_16
REMARK                            x       y       z     vdW  Elec       q    Type
REMARK                         _______ _______ _______ _____ _____    ______ ____
ROOT
ATOM      1  C   UNL     1       5.704   4.700  17.419  0.00  0.00    +0.000 A 
ATOM      2  N   UNL     1       5.589   3.845  18.496  0.00  0.00    +0.000 NA
ATOM      3  N   UNL     1       4.713   4.358  19.351  0.00  0.00    +0.000 NA
ATOM      4  N   UNL     1       4.284   5.512  18.826  0.00  0.00    +0.000 N 
ATOM      5  C   UNL     1       4.866   5.783  17.625  0.00  0.00    +0.000 A 
ATOM      6  C   UNL     1       4.487   6.975  16.840  0.00  0.00    +0.000 C 
ATOM      7  O   UNL     1       3.727   7.878  17.664  0.00  0.00    +0.000 OA
ATOM      8  C   UNL     1       2.665   7.236  18.396  0.00  0.00    +0.000 C 
ATOM      9  C   UNL     1       3.288   6.344  19.470  0.00  0.00    +0.000 C 
ENDROOT
BRANCH   8  10
ATOM     10  C   UNL     1       1.735   8.297  18.961  0.00  0.00    +0.000 A 
ATOM     11  C   UNL     1       1.406   8.279  20.327  0.00  0.00    +0.000 A 
ATOM     12  C   UNL     1       0.502   9.204  20.860  0.00  0.00    +0.000 A 
ATOM     13  C   UNL     1      -0.081  10.166  20.039  0.00  0.00    +0.000 A 
ATOM     14  C   UNL     1       0.253  10.215  18.688  0.00  0.00    +0.000 A 
ATOM     15  C   UNL     1       1.157   9.292  18.154  0.00  0.00    +0.000 A 
ENDBRANCH   8  10
BRANCH   1  17
ATOM     16  N   UNL     1       5.922   4.345  15.068  0.00  0.00    +0.000 N 
ATOM     17  C   UNL     1       6.572   4.430  16.280  0.00  0.00    +0.000 C 
ATOM     18  O   UNL     1       7.790   4.302  16.397  0.00  0.00    +0.000 OA
ATOM     19  H   UNL     1       4.992   4.745  15.013  0.00  0.00    +0.000 HD
BRANCH  16  20
ATOM     20  C   UNL     1       6.658   4.119  13.840  0.00  0.00    +0.000 C 
BRANCH  20  21
ATOM     21  C   UNL     1       5.782   3.551  12.723  0.00  0.00    +0.000 C 
BRANCH  21  23
ATOM     22  C   UNL     1       5.864   1.638  11.349  0.00  0.00    +0.000 C 
ATOM     23  O   UNL     1       6.589   2.755  11.850  0.00  0.00    +0.000 OA
ENDBRANCH  21  23
ENDBRANCH  20  21
ENDBRANCH  16  20
ENDBRANCH   1  17
TORSDOF 5
ENDMDL
MODEL 9
REMARK VINA RESULT:      -6.8      3.550      4.081
REMARK  Name = 
REMARK  6 active torsions:
REMARK  status: ('A' for Active; 'I' for Inactive)
REMARK    1  A    between atoms: C_1  and  O_2
REMARK    2  A    between atoms: O_2  and  C_3
REMARK    3  A    between atoms: C_3  and  C_4
REMARK    4  A    between atoms: C_4  and  N_5
REMARK    5  A    between atoms: C_6  and  C_8
REMARK    6  A    between atoms: C_15  and  C_16
REMARK                            x       y       z     vdW  Elec       q    Type
REMARK                         _______ _______ _______ _____ _____    ______ ____
ROOT
ATOM      1  C   UNL     1       5.506   4.508  16.953  0.00  0.00    +0.000 A 
ATOM      2  N   UNL     1       5.136   3.471  17.785  0.00  0.00    +0.000 NA
ATOM      3  N   UNL     1       4.220   3.920  18.635  0.00  0.00    +0.000 NA
ATOM      4  N   UNL     1       4.017   5.210  18.348  0.00  0.00    +0.000 N 
ATOM      5  C   UNL     1       4.790   5.638  17.311  0.00  0.00    +0.000 A 
ATOM      6  C   UNL     1       4.676   7.013  16.784  0.00  0.00    +0.000 C 
ATOM      7  O   UNL     1       3.929   7.826  17.708  0.00  0.00    +0.000 OA
ATOM      8  C   UNL     1       2.703   7.214  18.153  0.00  0.00    +0.000 C 
ATOM      9  C   UNL     1       3.053   6.030  19.054  0.00  0.00    +0.000 C 
ENDROOT
BRANCH   8  10
ATOM     10  C   UNL     1       1.843   8.261  18.843  0.00  0.00    +0.000 A 
ATOM     11  C   UNL     1       1.333   9.342  18.105  0.00  0.00    +0.000 A 
ATOM     12  C   UNL     1       0.595  10.352  18.728  0.00  0.00    +0.000 A 
ATOM     13  C   UNL     1       0.347  10.296  20.098  0.00  0.00    +0.000 A 
ATOM     14  C   UNL     1       0.823   9.219  20.841  0.00  0.00    +0.000 A 
ATOM     15  C   UNL     1       1.560   8.207  20.218  0.00  0.00    +0.000 A 
ENDBRANCH   8  10
BRANCH   1  17
ATOM     16  N   UNL     1       5.942   4.173  14.629  0.00  0.00    +0.000 N 
ATOM     17  C   UNL     1       6.484   4.356  15.883  0.00  0.00    +0.000 C 
ATOM     18  O   UNL     1       7.696   4.402  16.088  0.00  0.00    +0.000 OA
ATOM     19  H   UNL     1       4.971   4.437  14.502  0.00  0.00    +0.000 HD
BRANCH  16  20
ATOM     20  C   UNL     1       6.789   4.046  13.461  0.00  0.00    +0.000 C 
BRANCH  20  21
ATOM     21  C   UNL     1       6.083   3.357  12.292  0.00  0.00    +0.000 C 
BRANCH  21  23
ATOM     22  C   UNL     1       3.991   3.177  11.221  0.00  0.00    +0.000 C 
ATOM     23  O   UNL     1       4.671   3.557  12.411  0.00  0.00    +0.000 OA
ENDBRANCH  21  23
ENDBRANCH  20  21
ENDBRANCH  16  20
ENDBRANCH   1  17
TORSDOF 5
ENDMDL
