MODEL 1
REMARK VINA RESULT:      -7.0      0.000      0.000
REMARK  Name = 
REMARK  5 active torsions:
REMARK  status: ('A' for Active; 'I' for Inactive)
REMARK    1  A    between atoms: N_1  and  C_2
REMARK    2  A    between atoms: C_2  and  C_3
REMARK    3  A    between atoms: C_3  and  S_4
REMARK    4  A    between atoms: S_4  and  C_5
REMARK    5  A    between atoms: C_5  and  O_6
REMARK                            x       y       z     vdW  Elec       q    Type
REMARK                         _______ _______ _______ _____ _____    ______ ____
ROOT
ATOM      1  C   UNL     1       4.088   4.868  17.919  0.00  0.00    +0.000 C 
ATOM      2  C   UNL     1       3.937   6.337  17.519  0.00  0.00    +0.000 C 
ATOM      3  O   UNL     1       4.494   6.817  16.528  0.00  0.00    +0.000 OA
ATOM      4  C   UNL     1       2.997   7.193  18.284  0.00  0.00    +0.000 A 
ATOM      5  C   UNL     1       2.737   8.483  17.780  0.00  0.00    +0.000 A 
ATOM      6  C   UNL     1       1.851   9.334  18.431  0.00  0.00    +0.000 A 
ATOM      7  C   UNL     1       1.227   8.898  19.590  0.00  0.00    +0.000 A 
ATOM      8  C   UNL     1       1.486   7.615  20.089  0.00  0.00    +0.000 A 
ATOM      9  C   UNL     1       2.376   6.722  19.452  0.00  0.00    +0.000 A 
ATOM     10  C   UNL     1       2.636   5.351  19.961  0.00  0.00    +0.000 A 
ATOM     11  C   UNL     1       2.053   4.869  21.156  0.00  0.00    +0.000 A 
ATOM     12  C   UNL     1       2.260   3.568  21.618  0.00  0.00    +0.000 A 
ATOM     13  C   UNL     1       3.055   2.698  20.894  0.00  0.00    +0.000 A 
ATOM     14  C   UNL     1       3.643   3.137  19.712  0.00  0.00    +0.000 A 
ATOM     15  C   UNL     1       3.464   4.461  19.238  0.00  0.00    +0.000 A 
ENDROOT
BRANCH   1  16
ATOM     16  O   UNL     1       3.370   4.160  16.898  0.00  0.00    +0.000 OA
ATOM     17  H   UNL     1       2.851   4.860  16.461  0.00  0.00    +0.000 HD
ENDBRANCH   1  16
BRANCH   1  18
ATOM     18  S   UNL     1       5.865   4.374  17.735  0.00  0.00    +0.000 S 
BRANCH  18  19
ATOM     19  C   UNL     1       6.670   5.481  18.951  0.00  0.00    +0.000 C 
BRANCH  19  20
ATOM     20  C   UNL     1       7.601   6.476  18.232  0.00  0.00    +0.000 C 
BRANCH  20  21
ATOM     21  N   UNL     1       7.483   6.417  16.773  0.00  0.00    +0.000 NA
ATOM     22  H   UNL     1       6.808   5.699  16.515  0.00  0.00    +0.000 HD
ATOM     23  H   UNL     1       8.383   6.108  16.396  0.00  0.00    +0.000 HD
ENDBRANCH  20  21
ENDBRANCH  19  20
ENDBRANCH  18  19
ENDBRANCH   1  18
TORSDOF 5
ENDMDL
MODEL 2
REMARK VINA RESULT:      -7.0      2.759      4.508
REMARK  Name = 
REMARK  5 active torsions:
REMARK  status: ('A' for Active; 'I' for Inactive)
REMARK    1  A    between atoms: N_1  and  C_2
REMARK    2  A    between atoms: C_2  and  C_3
REMARK    3  A    between atoms: C_3  and  S_4
REMARK    4  A    between atoms: S_4  and  C_5
REMARK    5  A    between atoms: C_5  and  O_6
REMARK                            x       y       z     vdW  Elec       q    Type
REMARK                         _______ _______ _______ _____ _____    ______ ____
ROOT
ATOM      1  C   UNL     1       4.354   4.302  19.023  0.00  0.00    +0.000 C 
ATOM      2  C   UNL     1       3.273   5.142  19.707  0.00  0.00    +0.000 C 
ATOM      3  O   UNL     1       2.744   4.807  20.771  0.00  0.00    +0.000 OA
ATOM      4  C   UNL     1       2.924   6.464  19.132  0.00  0.00    +0.000 A 
ATOM      5  C   UNL     1       2.068   7.293  19.882  0.00  0.00    +0.000 A 
ATOM      6  C   UNL     1       1.714   8.555  19.418  0.00  0.00    +0.000 A 
ATOM      7  C   UNL     1       2.213   8.987  18.198  0.00  0.00    +0.000 A 
ATOM      8  C   UNL     1       3.065   8.162  17.453  0.00  0.00    +0.000 A 
ATOM      9  C   UNL     1       3.450   6.877  17.897  0.00  0.00    +0.000 A 
ATOM     10  C   UNL     1       4.373   6.006  17.125  0.00  0.00    +0.000 A 
ATOM     11  C   UNL     1       4.882   6.384  15.861  0.00  0.00    +0.000 A 
ATOM     12  C   UNL     1       5.784   5.590  15.149  0.00  0.00    +0.000 A 
ATOM     13  C   UNL     1       6.212   4.389  15.682  0.00  0.00    +0.000 A 
ATOM     14  C   UNL     1       5.734   3.986  16.924  0.00  0.00    +0.000 A 
ATOM     15  C   UNL     1       4.801   4.766  17.652  0.00  0.00    +0.000 A 
ENDROOT
BRANCH   1  16
ATOM     16  O   UNL     1       5.491   4.439  19.887  0.00  0.00    +0.000 OA
ATOM     17  H   UNL     1       6.161   3.865  19.471  0.00  0.00    +0.000 HD
ENDBRANCH   1  16
BRANCH   1  18
ATOM     18  S   UNL     1       3.864   2.516  19.097  0.00  0.00    +0.000 S 
BRANCH  18  19
ATOM     19  C   UNL     1       2.319   2.529  18.114  0.00  0.00    +0.000 C 
BRANCH  19  20
ATOM     20  C   UNL     1       1.144   2.001  18.959  0.00  0.00    +0.000 C 
BRANCH  20  21
ATOM     21  N   UNL     1       0.568   3.022  19.837  0.00  0.00    +0.000 NA
ATOM     22  H   UNL     1       1.287   3.377  20.465  0.00  0.00    +0.000 HD
ATOM     23  H   UNL     1      -0.130   2.569  20.433  0.00  0.00    +0.000 HD
ENDBRANCH  20  21
ENDBRANCH  19  20
ENDBRANCH  18  19
ENDBRANCH   1  18
TORSDOF 5
ENDMDL
MODEL 3
REMARK VINA RESULT:      -7.0      1.077      1.160
REMARK  Name = 
REMARK  5 active torsions:
REMARK  status: ('A' for Active; 'I' for Inactive)
REMARK    1  A    between atoms: N_1  and  C_2
REMARK    2  A    between atoms: C_2  and  C_3
REMARK    3  A    between atoms: C_3  and  S_4
REMARK    4  A    between atoms: S_4  and  C_5
REMARK    5  A    between atoms: C_5  and  O_6
REMARK                            x       y       z     vdW  Elec       q    Type
REMARK                         _______ _______ _______ _____ _____    ______ ____
ROOT
ATOM      1  C   UNL     1       4.148   4.897  17.885  0.00  0.00    +0.000 C 
ATOM      2  C   UNL     1       3.984   6.371  17.505  0.00  0.00    +0.000 C 
ATOM      3  O   UNL     1       4.543   6.871  16.526  0.00  0.00    +0.000 OA
ATOM      4  C   UNL     1       3.029   7.205  18.275  0.00  0.00    +0.000 A 
ATOM      5  C   UNL     1       2.758   8.499  17.788  0.00  0.00    +0.000 A 
ATOM      6  C   UNL     1       1.858   9.331  18.444  0.00  0.00    +0.000 A 
ATOM      7  C   UNL     1       1.231   8.871  19.592  0.00  0.00    +0.000 A 
ATOM      8  C   UNL     1       1.500   7.584  20.075  0.00  0.00    +0.000 A 
ATOM      9  C   UNL     1       2.405   6.710  19.432  0.00  0.00    +0.000 A 
ATOM     10  C   UNL     1       2.677   5.335  19.923  0.00  0.00    +0.000 A 
ATOM     11  C   UNL     1       2.091   4.830  21.107  0.00  0.00    +0.000 A 
ATOM     12  C   UNL     1       2.308   3.524  21.552  0.00  0.00    +0.000 A 
ATOM     13  C   UNL     1       3.118   2.674  20.822  0.00  0.00    +0.000 A 
ATOM     14  C   UNL     1       3.710   3.137  19.651  0.00  0.00    +0.000 A 
ATOM     15  C   UNL     1       3.520   4.465  19.194  0.00  0.00    +0.000 A 
ENDROOT
BRANCH   1  16
ATOM     16  O   UNL     1       3.445   4.196  16.849  0.00  0.00    +0.000 OA
ATOM     17  H   UNL     1       3.106   3.404  17.304  0.00  0.00    +0.000 HD
ENDBRANCH   1  16
BRANCH   1  18
ATOM     18  S   UNL     1       5.932   4.426  17.707  0.00  0.00    +0.000 S 
BRANCH  18  19
ATOM     19  C   UNL     1       5.965   3.797  15.988  0.00  0.00    +0.000 C 
BRANCH  19  20
ATOM     20  C   UNL     1       6.894   4.665  15.119  0.00  0.00    +0.000 C 
BRANCH  20  21
ATOM     21  N   UNL     1       7.386   5.853  15.821  0.00  0.00    +0.000 NA
ATOM     22  H   UNL     1       6.768   6.068  16.601  0.00  0.00    +0.000 HD
ATOM     23  H   UNL     1       7.320   6.649  15.180  0.00  0.00    +0.000 HD
ENDBRANCH  20  21
ENDBRANCH  19  20
ENDBRANCH  18  19
ENDBRANCH   1  18
TORSDOF 5
ENDMDL
MODEL 4
REMARK VINA RESULT:      -6.4      2.801      4.437
REMARK  Name = 
REMARK  5 active torsions:
REMARK  status: ('A' for Active; 'I' for Inactive)
REMARK    1  A    between atoms: N_1  and  C_2
REMARK    2  A    between atoms: C_2  and  C_3
REMARK    3  A    between atoms: C_3  and  S_4
REMARK    4  A    between atoms: S_4  and  C_5
REMARK    5  A    between atoms: C_5  and  O_6
REMARK                            x       y       z     vdW  Elec       q    Type
REMARK                         _______ _______ _______ _____ _____    ______ ____
ROOT
ATOM      1  C   UNL     1       2.395   3.503  18.820  0.00  0.00    +0.000 C 
ATOM      2  C   UNL     1       3.449   3.218  17.748  0.00  0.00    +0.000 C 
ATOM      3  O   UNL     1       3.714   2.076  17.364  0.00  0.00    +0.000 OA
ATOM      4  C   UNL     1       4.098   4.361  17.061  0.00  0.00    +0.000 A 
ATOM      5  C   UNL     1       4.920   4.072  15.955  0.00  0.00    +0.000 A 
ATOM      6  C   UNL     1       5.545   5.094  15.248  0.00  0.00    +0.000 A 
ATOM      7  C   UNL     1       5.352   6.406  15.651  0.00  0.00    +0.000 A 
ATOM      8  C   UNL     1       4.534   6.693  16.751  0.00  0.00    +0.000 A 
ATOM      9  C   UNL     1       3.880   5.681  17.489  0.00  0.00    +0.000 A 
ATOM     10  C   UNL     1       2.990   5.978  18.641  0.00  0.00    +0.000 A 
ATOM     11  C   UNL     1       2.787   7.295  19.115  0.00  0.00    +0.000 A 
ATOM     12  C   UNL     1       1.920   7.586  20.169  0.00  0.00    +0.000 A 
ATOM     13  C   UNL     1       1.219   6.566  20.786  0.00  0.00    +0.000 A 
ATOM     14  C   UNL     1       1.393   5.258  20.345  0.00  0.00    +0.000 A 
ATOM     15  C   UNL     1       2.285   4.939  19.291  0.00  0.00    +0.000 A 
ENDROOT
BRANCH   1  16
ATOM     16  O   UNL     1       1.154   3.196  18.170  0.00  0.00    +0.000 OA
ATOM     17  H   UNL     1       0.529   3.095  18.912  0.00  0.00    +0.000 HD
ENDBRANCH   1  16
BRANCH   1  18
ATOM     18  S   UNL     1       2.580   2.267  20.189  0.00  0.00    +0.000 S 
BRANCH  18  19
ATOM     19  C   UNL     1       4.334   2.510  20.655  0.00  0.00    +0.000 C 
BRANCH  19  20
ATOM     20  C   UNL     1       5.066   1.156  20.704  0.00  0.00    +0.000 C 
BRANCH  20  21
ATOM     21  N   UNL     1       5.828   0.965  21.941  0.00  0.00    +0.000 NA
ATOM     22  H   UNL     1       6.348   0.090  21.888  0.00  0.00    +0.000 HD
ATOM     23  H   UNL     1       5.161   0.851  22.709  0.00  0.00    +0.000 HD
ENDBRANCH  20  21
ENDBRANCH  19  20
ENDBRANCH  18  19
ENDBRANCH   1  18
TORSDOF 5
ENDMDL
MODEL 5
REMARK VINA RESULT:      -6.3      1.934      4.319
REMARK  Name = 
REMARK  5 active torsions:
REMARK  status: ('A' for Active; 'I' for Inactive)
REMARK    1  A    between atoms: N_1  and  C_2
REMARK    2  A    between atoms: C_2  and  C_3
REMARK    3  A    between atoms: C_3  and  S_4
REMARK    4  A    between atoms: S_4  and  C_5
REMARK    5  A    between atoms: C_5  and  O_6
REMARK                            x       y       z     vdW  Elec       q    Type
REMARK                         _______ _______ _______ _____ _____    ______ ____
ROOT
ATOM      1  C   UNL     1       5.350   4.892  18.670  0.00  0.00    +0.000 C 
ATOM      2  C   UNL     1       4.785   3.630  19.327  0.00  0.00    +0.000 C 
ATOM      3  O   UNL     1       5.485   2.650  19.594  0.00  0.00    +0.000 OA
ATOM      4  C   UNL     1       3.367   3.625  19.763  0.00  0.00    +0.000 A 
ATOM      5  C   UNL     1       2.928   2.529  20.531  0.00  0.00    +0.000 A 
ATOM      6  C   UNL     1       1.619   2.464  20.994  0.00  0.00    +0.000 A 
ATOM      7  C   UNL     1       0.744   3.495  20.685  0.00  0.00    +0.000 A 
ATOM      8  C   UNL     1       1.182   4.586  19.922  0.00  0.00    +0.000 A 
ATOM      9  C   UNL     1       2.507   4.686  19.440  0.00  0.00    +0.000 A 
ATOM     10  C   UNL     1       2.985   5.852  18.652  0.00  0.00    +0.000 A 
ATOM     11  C   UNL     1       2.127   6.912  18.281  0.00  0.00    +0.000 A 
ATOM     12  C   UNL     1       2.580   8.030  17.578  0.00  0.00    +0.000 A 
ATOM     13  C   UNL     1       3.913   8.129  17.225  0.00  0.00    +0.000 A 
ATOM     14  C   UNL     1       4.787   7.105  17.576  0.00  0.00    +0.000 A 
ATOM     15  C   UNL     1       4.343   5.951  18.270  0.00  0.00    +0.000 A 
ENDROOT
BRANCH   1  16
ATOM     16  O   UNL     1       6.165   5.477  19.695  0.00  0.00    +0.000 OA
ATOM     17  H   UNL     1       6.834   5.977  19.194  0.00  0.00    +0.000 HD
ENDBRANCH   1  16
BRANCH   1  18
ATOM     18  S   UNL     1       6.509   4.395  17.312  0.00  0.00    +0.000 S 
BRANCH  18  19
ATOM     19  C   UNL     1       5.338   4.095  15.936  0.00  0.00    +0.000 C 
BRANCH  19  20
ATOM     20  C   UNL     1       5.937   4.593  14.607  0.00  0.00    +0.000 C 
BRANCH  20  21
ATOM     21  N   UNL     1       7.259   5.205  14.770  0.00  0.00    +0.000 NA
ATOM     22  H   UNL     1       7.594   5.536  13.867  0.00  0.00    +0.000 HD
ATOM     23  H   UNL     1       7.911   4.473  15.064  0.00  0.00    +0.000 HD
ENDBRANCH  20  21
ENDBRANCH  19  20
ENDBRANCH  18  19
ENDBRANCH   1  18
TORSDOF 5
ENDMDL
MODEL 6
REMARK VINA RESULT:      -6.3      2.692      4.424
REMARK  Name = 
REMARK  5 active torsions:
REMARK  status: ('A' for Active; 'I' for Inactive)
REMARK    1  A    between atoms: N_1  and  C_2
REMARK    2  A    between atoms: C_2  and  C_3
REMARK    3  A    between atoms: C_3  and  S_4
REMARK    4  A    between atoms: S_4  and  C_5
REMARK    5  A    between atoms: C_5  and  O_6
REMARK                            x       y       z     vdW  Elec       q    Type
REMARK                         _______ _______ _______ _____ _____    ______ ____
ROOT
ATOM      1  C   UNL     1       3.467   4.957  19.189  0.00  0.00    +0.000 C 
ATOM      2  C   UNL     1       2.405   5.920  19.725  0.00  0.00    +0.000 C 
ATOM      3  O   UNL     1       1.709   5.661  20.710  0.00  0.00    +0.000 OA
ATOM      4  C   UNL     1       2.282   7.263  19.107  0.00  0.00    +0.000 A 
ATOM      5  C   UNL     1       1.431   8.192  19.737  0.00  0.00    +0.000 A 
ATOM      6  C   UNL     1       1.281   9.477  19.229  0.00  0.00    +0.000 A 
ATOM      7  C   UNL     1       1.979   9.834  18.085  0.00  0.00    +0.000 A 
ATOM      8  C   UNL     1       2.825   8.910  17.459  0.00  0.00    +0.000 A 
ATOM      9  C   UNL     1       3.005   7.597  17.951  0.00  0.00    +0.000 A 
ATOM     10  C   UNL     1       3.920   6.620  17.307  0.00  0.00    +0.000 A 
ATOM     11  C   UNL     1       4.628   6.920  16.121  0.00  0.00    +0.000 A 
ATOM     12  C   UNL     1       5.522   6.022  15.534  0.00  0.00    +0.000 A 
ATOM     13  C   UNL     1       5.743   4.789  16.120  0.00  0.00    +0.000 A 
ATOM     14  C   UNL     1       5.066   4.461  17.290  0.00  0.00    +0.000 A 
ATOM     15  C   UNL     1       4.138   5.349  17.888  0.00  0.00    +0.000 A 
ENDROOT
BRANCH   1  16
ATOM     16  O   UNL     1       4.491   4.983  20.194  0.00  0.00    +0.000 OA
ATOM     17  H   UNL     1       4.741   5.925  20.236  0.00  0.00    +0.000 HD
ENDBRANCH   1  16
BRANCH   1  18
ATOM     18  S   UNL     1       2.779   3.236  19.200  0.00  0.00    +0.000 S 
BRANCH  18  19
ATOM     19  C   UNL     1       3.316   2.647  20.848  0.00  0.00    +0.000 C 
BRANCH  19  20
ATOM     20  C   UNL     1       2.104   2.515  21.789  0.00  0.00    +0.000 C 
BRANCH  20  21
ATOM     21  N   UNL     1       0.839   2.884  21.147  0.00  0.00    +0.000 NA
ATOM     22  H   UNL     1       0.858   3.872  20.901  0.00  0.00    +0.000 HD
ATOM     23  H   UNL     1       0.092   2.778  21.838  0.00  0.00    +0.000 HD
ENDBRANCH  20  21
ENDBRANCH  19  20
ENDBRANCH  18  19
ENDBRANCH   1  18
TORSDOF 5
ENDMDL
MODEL 7
REMARK VINA RESULT:      -6.3      1.518      4.132
REMARK  Name = 
REMARK  5 active torsions:
REMARK  status: ('A' for Active; 'I' for Inactive)
REMARK    1  A    between atoms: N_1  and  C_2
REMARK    2  A    between atoms: C_2  and  C_3
REMARK    3  A    between atoms: C_3  and  S_4
REMARK    4  A    between atoms: S_4  and  C_5
REMARK    5  A    between atoms: C_5  and  O_6
REMARK                            x       y       z     vdW  Elec       q    Type
REMARK                         _______ _______ _______ _____ _____    ______ ____
ROOT
ATOM      1  C   UNL     1       4.556   5.501  17.832  0.00  0.00    +0.000 C 
ATOM      2  C   UNL     1       4.449   4.114  18.470  0.00  0.00    +0.000 C 
ATOM      3  O   UNL     1       5.179   3.174  18.144  0.00  0.00    +0.000 OA
ATOM      4  C   UNL     1       3.509   3.918  19.601  0.00  0.00    +0.000 A 
ATOM      5  C   UNL     1       3.567   2.690  20.288  0.00  0.00    +0.000 A 
ATOM      6  C   UNL     1       2.732   2.441  21.371  0.00  0.00    +0.000 A 
ATOM      7  C   UNL     1       1.833   3.421  21.766  0.00  0.00    +0.000 A 
ATOM      8  C   UNL     1       1.777   4.642  21.083  0.00  0.00    +0.000 A 
ATOM      9  C   UNL     1       2.613   4.930  19.982  0.00  0.00    +0.000 A 
ATOM     10  C   UNL     1       2.577   6.233  19.268  0.00  0.00    +0.000 A 
ATOM     11  C   UNL     1       1.657   7.252  19.608  0.00  0.00    +0.000 A 
ATOM     12  C   UNL     1       1.646   8.493  18.970  0.00  0.00    +0.000 A 
ATOM     13  C   UNL     1       2.562   8.762  17.969  0.00  0.00    +0.000 A 
ATOM     14  C   UNL     1       3.484   7.784  17.610  0.00  0.00    +0.000 A 
ATOM     15  C   UNL     1       3.497   6.509  18.229  0.00  0.00    +0.000 A 
ENDROOT
BRANCH   1  16
ATOM     16  O   UNL     1       5.803   6.010  18.328  0.00  0.00    +0.000 OA
ATOM     17  H   UNL     1       6.461   5.626  17.719  0.00  0.00    +0.000 HD
ENDBRANCH   1  16
BRANCH   1  18
ATOM     18  S   UNL     1       4.770   5.306  16.002  0.00  0.00    +0.000 S 
BRANCH  18  19
ATOM     19  C   UNL     1       6.539   5.736  15.802  0.00  0.00    +0.000 C 
BRANCH  19  20
ATOM     20  C   UNL     1       7.406   4.464  15.843  0.00  0.00    +0.000 C 
BRANCH  20  21
ATOM     21  N   UNL     1       7.940   4.181  17.178  0.00  0.00    +0.000 NA
ATOM     22  H   UNL     1       7.364   3.475  17.632  0.00  0.00    +0.000 HD
ATOM     23  H   UNL     1       7.846   5.030  17.742  0.00  0.00    +0.000 HD
ENDBRANCH  20  21
ENDBRANCH  19  20
ENDBRANCH  18  19
ENDBRANCH   1  18
TORSDOF 5
ENDMDL
MODEL 8
REMARK VINA RESULT:      -6.1      2.666      4.309
REMARK  Name = 
REMARK  5 active torsions:
REMARK  status: ('A' for Active; 'I' for Inactive)
REMARK    1  A    between atoms: N_1  and  C_2
REMARK    2  A    between atoms: C_2  and  C_3
REMARK    3  A    between atoms: C_3  and  S_4
REMARK    4  A    between atoms: S_4  and  C_5
REMARK    5  A    between atoms: C_5  and  O_6
REMARK                            x       y       z     vdW  Elec       q    Type
REMARK                         _______ _______ _______ _____ _____    ______ ____
ROOT
ATOM      1  C   UNL     1       4.312   4.339  19.025  0.00  0.00    +0.000 C 
ATOM      2  C   UNL     1       3.220   5.177  19.694  0.00  0.00    +0.000 C 
ATOM      3  O   UNL     1       2.677   4.841  20.749  0.00  0.00    +0.000 OA
ATOM      4  C   UNL     1       2.878   6.499  19.114  0.00  0.00    +0.000 A 
ATOM      5  C   UNL     1       2.010   7.327  19.852  0.00  0.00    +0.000 A 
ATOM      6  C   UNL     1       1.661   8.588  19.384  0.00  0.00    +0.000 A 
ATOM      7  C   UNL     1       2.177   9.022  18.172  0.00  0.00    +0.000 A 
ATOM      8  C   UNL     1       3.041   8.199  17.439  0.00  0.00    +0.000 A 
ATOM      9  C   UNL     1       3.420   6.914  17.887  0.00  0.00    +0.000 A 
ATOM     10  C   UNL     1       4.356   6.045  17.128  0.00  0.00    +0.000 A 
ATOM     11  C   UNL     1       4.883   6.424  15.872  0.00  0.00    +0.000 A 
ATOM     12  C   UNL     1       5.796   5.632  15.173  0.00  0.00    +0.000 A 
ATOM     13  C   UNL     1       6.219   4.430  15.711  0.00  0.00    +0.000 A 
ATOM     14  C   UNL     1       5.723   4.026  16.946  0.00  0.00    +0.000 A 
ATOM     15  C   UNL     1       4.779   4.805  17.661  0.00  0.00    +0.000 A 
ENDROOT
BRANCH   1  16
ATOM     16  O   UNL     1       5.437   4.478  19.905  0.00  0.00    +0.000 OA
ATOM     17  H   UNL     1       5.987   3.701  19.692  0.00  0.00    +0.000 HD
ENDBRANCH   1  16
BRANCH   1  18
ATOM     18  S   UNL     1       3.824   2.552  19.091  0.00  0.00    +0.000 S 
BRANCH  18  19
ATOM     19  C   UNL     1       4.298   2.116  20.805  0.00  0.00    +0.000 C 
BRANCH  19  20
ATOM     20  C   UNL     1       5.300   0.946  20.800  0.00  0.00    +0.000 C 
BRANCH  20  21
ATOM     21  N   UNL     1       5.982   0.774  22.086  0.00  0.00    +0.000 NA
ATOM     22  H   UNL     1       5.309   0.873  22.844  0.00  0.00    +0.000 HD
ATOM     23  H   UNL     1       6.647   1.545  22.196  0.00  0.00    +0.000 HD
ENDBRANCH  20  21
ENDBRANCH  19  20
ENDBRANCH  18  19
ENDBRANCH   1  18
TORSDOF 5
ENDMDL
MODEL 9
REMARK VINA RESULT:      -6.0      3.109      4.896
REMARK  Name = 
REMARK  5 active torsions:
REMARK  status: ('A' for Active; 'I' for Inactive)
REMARK    1  A    between atoms: N_1  and  C_2
REMARK    2  A    between atoms: C_2  and  C_3
REMARK    3  A    between atoms: C_3  and  S_4
REMARK    4  A    between atoms: S_4  and  C_5
REMARK    5  A    between atoms: C_5  and  O_6
REMARK                            x       y       z     vdW  Elec       q    Type
REMARK                         _______ _______ _______ _____ _____    ______ ____
ROOT
ATOM      1  C   UNL     1       3.101   6.147  18.743  0.00  0.00    +0.000 C 
ATOM      2  C   UNL     1       4.156   6.579  17.721  0.00  0.00    +0.000 C 
ATOM      3  O   UNL     1       4.602   7.728  17.672  0.00  0.00    +0.000 OA
ATOM      4  C   UNL     1       4.748   5.553  16.828  0.00  0.00    +0.000 A 
ATOM      5  C   UNL     1       5.844   5.940  16.032  0.00  0.00    +0.000 A 
ATOM      6  C   UNL     1       6.465   5.028  15.187  0.00  0.00    +0.000 A 
ATOM      7  C   UNL     1       5.986   3.728  15.131  0.00  0.00    +0.000 A 
ATOM      8  C   UNL     1       4.896   3.344  15.923  0.00  0.00    +0.000 A 
ATOM      9  C   UNL     1       4.244   4.243  16.797  0.00  0.00    +0.000 A 
ATOM     10  C   UNL     1       3.104   3.837  17.659  0.00  0.00    +0.000 A 
ATOM     11  C   UNL     1       2.555   2.534  17.616  0.00  0.00    +0.000 A 
ATOM     12  C   UNL     1       1.512   2.134  18.453  0.00  0.00    +0.000 A 
ATOM     13  C   UNL     1       0.984   3.025  19.369  0.00  0.00    +0.000 A 
ATOM     14  C   UNL     1       1.501   4.314  19.441  0.00  0.00    +0.000 A 
ATOM     15  C   UNL     1       2.544   4.747  18.585  0.00  0.00    +0.000 A 
ENDROOT
BRANCH   1  16
ATOM     16  O   UNL     1       3.808   6.162  19.991  0.00  0.00    +0.000 OA
ATOM     17  H   UNL     1       4.375   5.370  19.938  0.00  0.00    +0.000 HD
ENDBRANCH   1  16
BRANCH   1  18
ATOM     18  S   UNL     1       1.808   7.469  18.868  0.00  0.00    +0.000 S 
BRANCH  18  19
ATOM     19  C   UNL     1       1.737   7.729  20.679  0.00  0.00    +0.000 C 
BRANCH  19  20
ATOM     20  C   UNL     1       1.012   9.049  21.001  0.00  0.00    +0.000 C 
BRANCH  20  21
ATOM     21  N   UNL     1       1.279   9.530  22.359  0.00  0.00    +0.000 NA
ATOM     22  H   UNL     1       1.751   8.802  22.892  0.00  0.00    +0.000 HD
ATOM     23  H   UNL     1       0.379   9.682  22.823  0.00  0.00    +0.000 HD
ENDBRANCH  20  21
ENDBRANCH  19  20
ENDBRANCH  18  19
ENDBRANCH   1  18
TORSDOF 5
ENDMDL
