MODEL 1
REMARK VINA RESULT:      -9.7      0.000      0.000
REMARK  Name = 
REMARK  5 active torsions:
REMARK  status: ('A' for Active; 'I' for Inactive)
REMARK    1  A    between atoms: C_2  and  C_21
REMARK    2  A    between atoms: N_3  and  C_4
REMARK    3  A    between atoms: C_8  and  S_9
REMARK    4  A    between atoms: S_9  and  N_12
REMARK    5  A    between atoms: N_12  and  C_13
REMARK                            x       y       z     vdW  Elec       q    Type
REMARK                         _______ _______ _______ _____ _____    ______ ____
ROOT
ATOM      1  C   UNL     1       3.381   6.009  18.278  0.00  0.00    +0.000 A 
ATOM      2  C   UNL     1       2.789   4.745  18.126  0.00  0.00    +0.000 A 
ATOM      3  C   UNL     1       3.498   3.669  17.592  0.00  0.00    +0.000 A 
ATOM      4  C   UNL     1       4.818   3.835  17.197  0.00  0.00    +0.000 A 
ATOM      5  C   UNL     1       5.410   5.096  17.318  0.00  0.00    +0.000 A 
ATOM      6  C   UNL     1       4.690   6.192  17.824  0.00  0.00    +0.000 A 
ENDROOT
BRANCH   1   9
ATOM      7  O   UNL     1       2.396   8.541  17.144  0.00  0.00    +0.000 OA
ATOM      8  C   UNL     1       2.233   8.224  18.319  0.00  0.00    +0.000 C 
ATOM      9  N   UNL     1       2.735   7.090  18.930  0.00  0.00    +0.000 N 
ATOM     10  H   UNL     1       2.521   7.001  19.922  0.00  0.00    +0.000 HD
BRANCH   8  11
ATOM     11  C   UNL     1       1.400   9.130  19.167  0.00  0.00    +0.000 A 
ATOM     12  C   UNL     1       0.780  10.208  18.545  0.00  0.00    +0.000 A 
ATOM     13  C   UNL     1       0.016  11.070  19.312  0.00  0.00    +0.000 A 
ATOM     14  C   UNL     1      -0.177  10.782  20.662  0.00  0.00    +0.000 A 
ATOM     15  C   UNL     1      -1.017  11.598  21.435  0.00  0.00    +0.000 A 
ATOM     16  C   UNL     1      -1.327  11.239  22.740  0.00  0.00    +0.000 A 
ATOM     17  C   UNL     1      -0.767  10.089  23.284  0.00  0.00    +0.000 A 
ATOM     18  C   UNL     1       0.127   9.315  22.528  0.00  0.00    +0.000 A 
ATOM     19  C   UNL     1       0.436   9.629  21.210  0.00  0.00    +0.000 A 
ATOM     20  N   UNL     1       1.257   8.827  20.489  0.00  0.00    +0.000 NA
ENDBRANCH   8  11
ENDBRANCH   1   9
BRANCH   5  21
ATOM     21  S   UNL     1       7.079   5.309  16.734  0.00  0.00    +0.000 S 
ATOM     22  O   UNL     1       7.685   6.350  17.532  0.00  0.00    +0.000 OA
ATOM     23  O   UNL     1       7.680   3.991  16.634  0.00  0.00    +0.000 OA
BRANCH  21  24
ATOM     24  N   UNL     1       6.907   5.943  15.191  0.00  0.00    +0.000 N 
ATOM     25  H   UNL     1       6.538   6.892  15.156  0.00  0.00    +0.000 HD
BRANCH  24  26
ATOM     26  C   UNL     1       6.695   5.086  14.078  0.00  0.00    +0.000 A 
ATOM     27  C   UNL     1       5.552   4.286  14.057  0.00  0.00    +0.000 A 
ATOM     28  C   UNL     1       5.348   3.385  13.010  0.00  0.00    +0.000 A 
ATOM     29  C   UNL     1       6.277   3.293  11.971  0.00  0.00    +0.000 A 
ATOM     30  C   UNL     1       7.409   4.109  11.977  0.00  0.00    +0.000 A 
ATOM     31  C   UNL     1       7.615   4.997  13.031  0.00  0.00    +0.000 A 
ATOM     32  F   UNL     1       8.719   5.755  13.041  0.00  0.00    +0.000 F 
ENDBRANCH  24  26
ENDBRANCH  21  24
ENDBRANCH   5  21
TORSDOF 5
ENDMDL
MODEL 2
REMARK VINA RESULT:      -9.5      0.998      1.033
REMARK  Name = 
REMARK  5 active torsions:
REMARK  status: ('A' for Active; 'I' for Inactive)
REMARK    1  A    between atoms: C_2  and  C_21
REMARK    2  A    between atoms: N_3  and  C_4
REMARK    3  A    between atoms: C_8  and  S_9
REMARK    4  A    between atoms: S_9  and  N_12
REMARK    5  A    between atoms: N_12  and  C_13
REMARK                            x       y       z     vdW  Elec       q    Type
REMARK                         _______ _______ _______ _____ _____    ______ ____
ROOT
ATOM      1  C   UNL     1       3.224   5.742  17.932  0.00  0.00    +0.000 A 
ATOM      2  C   UNL     1       2.757   4.431  17.752  0.00  0.00    +0.000 A 
ATOM      3  C   UNL     1       3.608   3.406  17.337  0.00  0.00    +0.000 A 
ATOM      4  C   UNL     1       4.948   3.673  17.092  0.00  0.00    +0.000 A 
ATOM      5  C   UNL     1       5.418   4.982  17.241  0.00  0.00    +0.000 A 
ATOM      6  C   UNL     1       4.558   6.024  17.626  0.00  0.00    +0.000 A 
ENDROOT
BRANCH   1   9
ATOM      7  O   UNL     1       2.379   6.181  20.718  0.00  0.00    +0.000 OA
ATOM      8  C   UNL     1       2.122   6.964  19.808  0.00  0.00    +0.000 C 
ATOM      9  N   UNL     1       2.421   6.779  18.471  0.00  0.00    +0.000 N 
ATOM     10  H   UNL     1       2.108   7.524  17.849  0.00  0.00    +0.000 HD
BRANCH   8  11
ATOM     11  C   UNL     1       1.442   8.244  20.172  0.00  0.00    +0.000 A 
ATOM     12  C   UNL     1       1.345   9.225  19.192  0.00  0.00    +0.000 A 
ATOM     13  C   UNL     1       0.733  10.426  19.511  0.00  0.00    +0.000 A 
ATOM     14  C   UNL     1       0.161  10.578  20.772  0.00  0.00    +0.000 A 
ATOM     15  C   UNL     1      -0.537  11.756  21.083  0.00  0.00    +0.000 A 
ATOM     16  C   UNL     1      -1.230  11.859  22.281  0.00  0.00    +0.000 A 
ATOM     17  C   UNL     1      -1.192  10.803  23.185  0.00  0.00    +0.000 A 
ATOM     18  C   UNL     1      -0.436   9.656  22.898  0.00  0.00    +0.000 A 
ATOM     19  C   UNL     1       0.245   9.508  21.696  0.00  0.00    +0.000 A 
ATOM     20  N   UNL     1       0.917   8.363  21.425  0.00  0.00    +0.000 NA
ENDBRANCH   8  11
ENDBRANCH   1   9
BRANCH   5  21
ATOM     21  S   UNL     1       7.122   5.320  16.847  0.00  0.00    +0.000 S 
ATOM     22  O   UNL     1       7.557   6.397  17.706  0.00  0.00    +0.000 OA
ATOM     23  O   UNL     1       7.826   4.050  16.816  0.00  0.00    +0.000 OA
BRANCH  21  24
ATOM     24  N   UNL     1       7.077   5.951  15.293  0.00  0.00    +0.000 N 
ATOM     25  H   UNL     1       6.829   6.938  15.238  0.00  0.00    +0.000 HD
BRANCH  24  26
ATOM     26  C   UNL     1       6.795   5.112  14.182  0.00  0.00    +0.000 A 
ATOM     27  C   UNL     1       5.631   4.343  14.202  0.00  0.00    +0.000 A 
ATOM     28  C   UNL     1       5.358   3.459  13.155  0.00  0.00    +0.000 A 
ATOM     29  C   UNL     1       6.239   3.355  12.077  0.00  0.00    +0.000 A 
ATOM     30  C   UNL     1       7.392   4.140  12.043  0.00  0.00    +0.000 A 
ATOM     31  C   UNL     1       7.666   5.010  13.096  0.00  0.00    +0.000 A 
ATOM     32  F   UNL     1       8.790   5.738  13.066  0.00  0.00    +0.000 F 
ENDBRANCH  24  26
ENDBRANCH  21  24
ENDBRANCH   5  21
TORSDOF 5
ENDMDL
MODEL 3
REMARK VINA RESULT:      -9.3      6.200      8.075
REMARK  Name = 
REMARK  5 active torsions:
REMARK  status: ('A' for Active; 'I' for Inactive)
REMARK    1  A    between atoms: C_2  and  C_21
REMARK    2  A    between atoms: N_3  and  C_4
REMARK    3  A    between atoms: C_8  and  S_9
REMARK    4  A    between atoms: S_9  and  N_12
REMARK    5  A    between atoms: N_12  and  C_13
REMARK                            x       y       z     vdW  Elec       q    Type
REMARK                         _______ _______ _______ _____ _____    ______ ____
ROOT
ATOM      1  C   UNL     1       7.970   8.170  18.066  0.00  0.00    +0.000 A 
ATOM      2  C   UNL     1       8.503   7.306  19.035  0.00  0.00    +0.000 A 
ATOM      3  C   UNL     1       8.112   5.969  19.111  0.00  0.00    +0.000 A 
ATOM      4  C   UNL     1       7.175   5.468  18.218  0.00  0.00    +0.000 A 
ATOM      5  C   UNL     1       6.616   6.326  17.266  0.00  0.00    +0.000 A 
ATOM      6  C   UNL     1       6.982   7.682  17.206  0.00  0.00    +0.000 A 
ENDROOT
BRANCH   1   9
ATOM      7  O   UNL     1       9.065  10.056  20.044  0.00  0.00    +0.000 OA
ATOM      8  C   UNL     1       9.004  10.304  18.843  0.00  0.00    +0.000 C 
ATOM      9  N   UNL     1       8.433   9.497  17.877  0.00  0.00    +0.000 N 
ATOM     10  H   UNL     1       8.449   9.876  16.930  0.00  0.00    +0.000 HD
BRANCH   8  11
ATOM     11  C   UNL     1       9.618  11.583  18.373  0.00  0.00    +0.000 A 
ATOM     12  C   UNL     1      10.825  11.505  17.686  0.00  0.00    +0.000 A 
ATOM     13  C   UNL     1      11.421  12.678  17.254  0.00  0.00    +0.000 A 
ATOM     14  C   UNL     1      10.752  13.885  17.444  0.00  0.00    +0.000 A 
ATOM     15  C   UNL     1      11.302  15.073  16.938  0.00  0.00    +0.000 A 
ATOM     16  C   UNL     1      10.578  16.256  16.997  0.00  0.00    +0.000 A 
ATOM     17  C   UNL     1       9.324  16.260  17.599  0.00  0.00    +0.000 A 
ATOM     18  C   UNL     1       8.810  15.084  18.165  0.00  0.00    +0.000 A 
ATOM     19  C   UNL     1       9.496  13.876  18.097  0.00  0.00    +0.000 A 
ATOM     20  N   UNL     1       8.944  12.746  18.601  0.00  0.00    +0.000 NA
ENDBRANCH   8  11
ENDBRANCH   1   9
BRANCH   5  21
ATOM     21  S   UNL     1       5.360   5.684  16.180  0.00  0.00    +0.000 S 
ATOM     22  O   UNL     1       5.153   6.661  15.135  0.00  0.00    +0.000 OA
ATOM     23  O   UNL     1       5.710   4.310  15.867  0.00  0.00    +0.000 OA
BRANCH  21  24
ATOM     24  N   UNL     1       3.961   5.687  17.106  0.00  0.00    +0.000 N 
ATOM     25  H   UNL     1       3.687   6.600  17.465  0.00  0.00    +0.000 HD
BRANCH  24  26
ATOM     26  C   UNL     1       3.567   4.525  17.822  0.00  0.00    +0.000 A 
ATOM     27  C   UNL     1       2.910   3.505  17.133  0.00  0.00    +0.000 A 
ATOM     28  C   UNL     1       2.451   2.379  17.820  0.00  0.00    +0.000 A 
ATOM     29  C   UNL     1       2.665   2.260  19.195  0.00  0.00    +0.000 A 
ATOM     30  C   UNL     1       3.343   3.268  19.883  0.00  0.00    +0.000 A 
ATOM     31  C   UNL     1       3.786   4.395  19.195  0.00  0.00    +0.000 A 
ATOM     32  F   UNL     1       4.412   5.369  19.870  0.00  0.00    +0.000 F 
ENDBRANCH  24  26
ENDBRANCH  21  24
ENDBRANCH   5  21
TORSDOF 5
ENDMDL
MODEL 4
REMARK VINA RESULT:      -9.2      1.080      1.392
REMARK  Name = 
REMARK  5 active torsions:
REMARK  status: ('A' for Active; 'I' for Inactive)
REMARK    1  A    between atoms: C_2  and  C_21
REMARK    2  A    between atoms: N_3  and  C_4
REMARK    3  A    between atoms: C_8  and  S_9
REMARK    4  A    between atoms: S_9  and  N_12
REMARK    5  A    between atoms: N_12  and  C_13
REMARK                            x       y       z     vdW  Elec       q    Type
REMARK                         _______ _______ _______ _____ _____    ______ ____
ROOT
ATOM      1  C   UNL     1       3.379   6.145  18.909  0.00  0.00    +0.000 A 
ATOM      2  C   UNL     1       2.985   4.821  19.156  0.00  0.00    +0.000 A 
ATOM      3  C   UNL     1       3.802   3.743  18.813  0.00  0.00    +0.000 A 
ATOM      4  C   UNL     1       5.033   3.969  18.213  0.00  0.00    +0.000 A 
ATOM      5  C   UNL     1       5.424   5.283  17.937  0.00  0.00    +0.000 A 
ATOM      6  C   UNL     1       4.591   6.370  18.250  0.00  0.00    +0.000 A 
ENDROOT
BRANCH   1   9
ATOM      7  O   UNL     1       2.368   8.438  17.364  0.00  0.00    +0.000 OA
ATOM      8  C   UNL     1       2.129   8.276  18.557  0.00  0.00    +0.000 C 
ATOM      9  N   UNL     1       2.635   7.267  19.355  0.00  0.00    +0.000 N 
ATOM     10  H   UNL     1       2.349   7.302  20.333  0.00  0.00    +0.000 HD
BRANCH   8  11
ATOM     11  C   UNL     1       1.191   9.240  19.208  0.00  0.00    +0.000 A 
ATOM     12  C   UNL     1       0.447  10.075  18.382  0.00  0.00    +0.000 A 
ATOM     13  C   UNL     1      -0.417  10.988  18.964  0.00  0.00    +0.000 A 
ATOM     14  C   UNL     1      -0.575  10.981  20.348  0.00  0.00    +0.000 A 
ATOM     15  C   UNL     1      -1.509  11.842  20.946  0.00  0.00    +0.000 A 
ATOM     16  C   UNL     1      -1.775  11.743  22.305  0.00  0.00    +0.000 A 
ATOM     17  C   UNL     1      -1.081  10.815  23.072  0.00  0.00    +0.000 A 
ATOM     18  C   UNL     1      -0.099  10.005  22.480  0.00  0.00    +0.000 A 
ATOM     19  C   UNL     1       0.172  10.057  21.118  0.00  0.00    +0.000 A 
ATOM     20  N   UNL     1       1.084   9.220  20.568  0.00  0.00    +0.000 NA
ENDBRANCH   8  11
ENDBRANCH   1   9
BRANCH   5  21
ATOM     21  S   UNL     1       6.972   5.548  17.097  0.00  0.00    +0.000 S 
ATOM     22  O   UNL     1       7.628   6.662  17.744  0.00  0.00    +0.000 OA
ATOM     23  O   UNL     1       7.628   4.260  16.968  0.00  0.00    +0.000 OA
BRANCH  21  24
ATOM     24  N   UNL     1       6.535   6.088  15.570  0.00  0.00    +0.000 N 
ATOM     25  H   UNL     1       5.879   6.867  15.561  0.00  0.00    +0.000 HD
BRANCH  24  26
ATOM     26  C   UNL     1       6.558   5.202  14.458  0.00  0.00    +0.000 A 
ATOM     27  C   UNL     1       7.604   5.307  13.541  0.00  0.00    +0.000 A 
ATOM     28  C   UNL     1       7.621   4.497  12.403  0.00  0.00    +0.000 A 
ATOM     29  C   UNL     1       6.602   3.567  12.188  0.00  0.00    +0.000 A 
ATOM     30  C   UNL     1       5.567   3.444  13.117  0.00  0.00    +0.000 A 
ATOM     31  C   UNL     1       5.547   4.264  14.242  0.00  0.00    +0.000 A 
ATOM     32  F   UNL     1       4.534   4.156  15.112  0.00  0.00    +0.000 F 
ENDBRANCH  24  26
ENDBRANCH  21  24
ENDBRANCH   5  21
TORSDOF 5
ENDMDL
MODEL 5
REMARK VINA RESULT:      -9.1      1.179      1.813
REMARK  Name = 
REMARK  5 active torsions:
REMARK  status: ('A' for Active; 'I' for Inactive)
REMARK    1  A    between atoms: C_2  and  C_21
REMARK    2  A    between atoms: N_3  and  C_4
REMARK    3  A    between atoms: C_8  and  S_9
REMARK    4  A    between atoms: S_9  and  N_12
REMARK    5  A    between atoms: N_12  and  C_13
REMARK                            x       y       z     vdW  Elec       q    Type
REMARK                         _______ _______ _______ _____ _____    ______ ____
ROOT
ATOM      1  C   UNL     1       3.385   6.151  19.145  0.00  0.00    +0.000 A 
ATOM      2  C   UNL     1       3.329   4.769  19.381  0.00  0.00    +0.000 A 
ATOM      3  C   UNL     1       4.158   3.880  18.696  0.00  0.00    +0.000 A 
ATOM      4  C   UNL     1       5.063   4.357  17.758  0.00  0.00    +0.000 A 
ATOM      5  C   UNL     1       5.109   5.729  17.495  0.00  0.00    +0.000 A 
ATOM      6  C   UNL     1       4.253   6.626  18.157  0.00  0.00    +0.000 A 
ENDROOT
BRANCH   1   9
ATOM      7  O   UNL     1       1.885   8.514  18.232  0.00  0.00    +0.000 OA
ATOM      8  C   UNL     1       1.907   8.145  19.402  0.00  0.00    +0.000 C 
ATOM      9  N   UNL     1       2.650   7.094  19.907  0.00  0.00    +0.000 N 
ATOM     10  H   UNL     1       2.566   6.946  20.912  0.00  0.00    +0.000 HD
BRANCH   8  11
ATOM     11  C   UNL     1       1.039   8.879  20.372  0.00  0.00    +0.000 A 
ATOM     12  C   UNL     1       1.155   8.553  21.719  0.00  0.00    +0.000 A 
ATOM     13  C   UNL     1       0.350   9.208  22.635  0.00  0.00    +0.000 A 
ATOM     14  C   UNL     1      -0.485  10.231  22.189  0.00  0.00    +0.000 A 
ATOM     15  C   UNL     1      -1.245  10.962  23.115  0.00  0.00    +0.000 A 
ATOM     16  C   UNL     1      -1.969  12.071  22.700  0.00  0.00    +0.000 A 
ATOM     17  C   UNL     1      -1.967  12.424  21.355  0.00  0.00    +0.000 A 
ATOM     18  C   UNL     1      -1.261  11.647  20.423  0.00  0.00    +0.000 A 
ATOM     19  C   UNL     1      -0.502  10.549  20.810  0.00  0.00    +0.000 A 
ATOM     20  N   UNL     1       0.216   9.856  19.893  0.00  0.00    +0.000 NA
ENDBRANCH   8  11
ENDBRANCH   1   9
BRANCH   5  21
ATOM     21  S   UNL     1       6.222   6.314  16.233  0.00  0.00    +0.000 S 
ATOM     22  O   UNL     1       5.414   6.847  15.160  0.00  0.00    +0.000 OA
ATOM     23  O   UNL     1       7.238   7.121  16.883  0.00  0.00    +0.000 OA
BRANCH  21  24
ATOM     24  N   UNL     1       6.940   4.923  15.630  0.00  0.00    +0.000 N 
ATOM     25  H   UNL     1       7.811   4.657  16.086  0.00  0.00    +0.000 HD
BRANCH  24  26
ATOM     26  C   UNL     1       6.727   4.528  14.281  0.00  0.00    +0.000 A 
ATOM     27  C   UNL     1       5.662   3.674  13.994  0.00  0.00    +0.000 A 
ATOM     28  C   UNL     1       5.465   3.214  12.690  0.00  0.00    +0.000 A 
ATOM     29  C   UNL     1       6.322   3.622  11.665  0.00  0.00    +0.000 A 
ATOM     30  C   UNL     1       7.374   4.495  11.946  0.00  0.00    +0.000 A 
ATOM     31  C   UNL     1       7.574   4.939  13.250  0.00  0.00    +0.000 A 
ATOM     32  F   UNL     1       8.604   5.754  13.513  0.00  0.00    +0.000 F 
ENDBRANCH  24  26
ENDBRANCH  21  24
ENDBRANCH   5  21
TORSDOF 5
ENDMDL
MODEL 6
REMARK VINA RESULT:      -9.0      6.239      8.117
REMARK  Name = 
REMARK  5 active torsions:
REMARK  status: ('A' for Active; 'I' for Inactive)
REMARK    1  A    between atoms: C_2  and  C_21
REMARK    2  A    between atoms: N_3  and  C_4
REMARK    3  A    between atoms: C_8  and  S_9
REMARK    4  A    between atoms: S_9  and  N_12
REMARK    5  A    between atoms: N_12  and  C_13
REMARK                            x       y       z     vdW  Elec       q    Type
REMARK                         _______ _______ _______ _____ _____    ______ ____
ROOT
ATOM      1  C   UNL     1       7.957   8.228  18.089  0.00  0.00    +0.000 A 
ATOM      2  C   UNL     1       8.535   7.343  19.013  0.00  0.00    +0.000 A 
ATOM      3  C   UNL     1       8.141   6.007  19.085  0.00  0.00    +0.000 A 
ATOM      4  C   UNL     1       7.157   5.526  18.232  0.00  0.00    +0.000 A 
ATOM      5  C   UNL     1       6.555   6.405  17.326  0.00  0.00    +0.000 A 
ATOM      6  C   UNL     1       6.924   7.760  17.272  0.00  0.00    +0.000 A 
ENDROOT
BRANCH   1   9
ATOM      7  O   UNL     1       9.213  10.051  20.029  0.00  0.00    +0.000 OA
ATOM      8  C   UNL     1       9.066  10.332  18.843  0.00  0.00    +0.000 C 
ATOM      9  N   UNL     1       8.417   9.556  17.901  0.00  0.00    +0.000 N 
ATOM     10  H   UNL     1       8.367   9.960  16.966  0.00  0.00    +0.000 HD
BRANCH   8  11
ATOM     11  C   UNL     1       9.655  11.619  18.362  0.00  0.00    +0.000 A 
ATOM     12  C   UNL     1      10.848  11.556  17.651  0.00  0.00    +0.000 A 
ATOM     13  C   UNL     1      11.421  12.736  17.208  0.00  0.00    +0.000 A 
ATOM     14  C   UNL     1      10.742  13.935  17.414  0.00  0.00    +0.000 A 
ATOM     15  C   UNL     1      11.268  15.131  16.899  0.00  0.00    +0.000 A 
ATOM     16  C   UNL     1      10.532  16.305  16.975  0.00  0.00    +0.000 A 
ATOM     17  C   UNL     1       9.291  16.294  17.602  0.00  0.00    +0.000 A 
ATOM     18  C   UNL     1       8.802  15.110  18.178  0.00  0.00    +0.000 A 
ATOM     19  C   UNL     1       9.500  13.911  18.093  0.00  0.00    +0.000 A 
ATOM     20  N   UNL     1       8.973  12.774  18.607  0.00  0.00    +0.000 NA
ENDBRANCH   8  11
ENDBRANCH   1   9
BRANCH   5  21
ATOM     21  S   UNL     1       5.241   5.789  16.293  0.00  0.00    +0.000 S 
ATOM     22  O   UNL     1       4.983   6.788  15.282  0.00  0.00    +0.000 OA
ATOM     23  O   UNL     1       5.570   4.421  15.934  0.00  0.00    +0.000 OA
BRANCH  21  24
ATOM     24  N   UNL     1       3.893   5.776  17.291  0.00  0.00    +0.000 N 
ATOM     25  H   UNL     1       3.726   6.643  17.799  0.00  0.00    +0.000 HD
BRANCH  24  26
ATOM     26  C   UNL     1       3.418   4.557  17.847  0.00  0.00    +0.000 A 
ATOM     27  C   UNL     1       4.334   3.698  18.457  0.00  0.00    +0.000 A 
ATOM     28  C   UNL     1       3.911   2.464  18.954  0.00  0.00    +0.000 A 
ATOM     29  C   UNL     1       2.568   2.091  18.860  0.00  0.00    +0.000 A 
ATOM     30  C   UNL     1       1.646   2.959  18.272  0.00  0.00    +0.000 A 
ATOM     31  C   UNL     1       2.076   4.183  17.765  0.00  0.00    +0.000 A 
ATOM     32  F   UNL     1       1.187   4.996  17.178  0.00  0.00    +0.000 F 
ENDBRANCH  24  26
ENDBRANCH  21  24
ENDBRANCH   5  21
TORSDOF 5
ENDMDL
MODEL 7
REMARK VINA RESULT:      -8.9      6.369      8.377
REMARK  Name = 
REMARK  5 active torsions:
REMARK  status: ('A' for Active; 'I' for Inactive)
REMARK    1  A    between atoms: C_2  and  C_21
REMARK    2  A    between atoms: N_3  and  C_4
REMARK    3  A    between atoms: C_8  and  S_9
REMARK    4  A    between atoms: S_9  and  N_12
REMARK    5  A    between atoms: N_12  and  C_13
REMARK                            x       y       z     vdW  Elec       q    Type
REMARK                         _______ _______ _______ _____ _____    ______ ____
ROOT
ATOM      1  C   UNL     1       7.981   8.452  18.090  0.00  0.00    +0.000 A 
ATOM      2  C   UNL     1       8.594   7.517  18.938  0.00  0.00    +0.000 A 
ATOM      3  C   UNL     1       8.144   6.199  19.014  0.00  0.00    +0.000 A 
ATOM      4  C   UNL     1       7.065   5.789  18.243  0.00  0.00    +0.000 A 
ATOM      5  C   UNL     1       6.428   6.719  17.416  0.00  0.00    +0.000 A 
ATOM      6  C   UNL     1       6.857   8.056  17.360  0.00  0.00    +0.000 A 
ENDROOT
BRANCH   1   9
ATOM      7  O   UNL     1       9.187  10.294  20.045  0.00  0.00    +0.000 OA
ATOM      8  C   UNL     1       9.108  10.546  18.847  0.00  0.00    +0.000 C 
ATOM      9  N   UNL     1       8.487   9.762  17.892  0.00  0.00    +0.000 N 
ATOM     10  H   UNL     1       8.495  10.142  16.946  0.00  0.00    +0.000 HD
BRANCH   8  11
ATOM     11  C   UNL     1       9.756  11.803  18.363  0.00  0.00    +0.000 A 
ATOM     12  C   UNL     1      10.971  11.688  17.696  0.00  0.00    +0.000 A 
ATOM     13  C   UNL     1      11.599  12.839  17.253  0.00  0.00    +0.000 A 
ATOM     14  C   UNL     1      10.954  14.064  17.413  0.00  0.00    +0.000 A 
ATOM     15  C   UNL     1      11.537  15.231  16.895  0.00  0.00    +0.000 A 
ATOM     16  C   UNL     1      10.838  16.430  16.924  0.00  0.00    +0.000 A 
ATOM     17  C   UNL     1       9.577  16.472  17.506  0.00  0.00    +0.000 A 
ATOM     18  C   UNL     1       9.029  15.317  18.085  0.00  0.00    +0.000 A 
ATOM     19  C   UNL     1       9.688  14.094  18.047  0.00  0.00    +0.000 A 
ATOM     20  N   UNL     1       9.105  12.985  18.562  0.00  0.00    +0.000 NA
ENDBRANCH   8  11
ENDBRANCH   1   9
BRANCH   5  21
ATOM     21  S   UNL     1       4.998   6.193  16.493  0.00  0.00    +0.000 S 
ATOM     22  O   UNL     1       3.916   7.090  16.827  0.00  0.00    +0.000 OA
ATOM     23  O   UNL     1       5.413   5.994  15.116  0.00  0.00    +0.000 OA
BRANCH  21  24
ATOM     24  N   UNL     1       4.593   4.706  17.156  0.00  0.00    +0.000 N 
ATOM     25  H   UNL     1       4.834   3.900  16.582  0.00  0.00    +0.000 HD
BRANCH  24  26
ATOM     26  C   UNL     1       3.511   4.595  18.071  0.00  0.00    +0.000 A 
ATOM     27  C   UNL     1       3.615   5.226  19.311  0.00  0.00    +0.000 A 
ATOM     28  C   UNL     1       2.599   5.081  20.257  0.00  0.00    +0.000 A 
ATOM     29  C   UNL     1       1.466   4.320  19.960  0.00  0.00    +0.000 A 
ATOM     30  C   UNL     1       1.349   3.707  18.711  0.00  0.00    +0.000 A 
ATOM     31  C   UNL     1       2.372   3.843  17.776  0.00  0.00    +0.000 A 
ATOM     32  F   UNL     1       2.261   3.228  16.592  0.00  0.00    +0.000 F 
ENDBRANCH  24  26
ENDBRANCH  21  24
ENDBRANCH   5  21
TORSDOF 5
ENDMDL
MODEL 8
REMARK VINA RESULT:      -8.9      6.066      7.449
REMARK  Name = 
REMARK  5 active torsions:
REMARK  status: ('A' for Active; 'I' for Inactive)
REMARK    1  A    between atoms: C_2  and  C_21
REMARK    2  A    between atoms: N_3  and  C_4
REMARK    3  A    between atoms: C_8  and  S_9
REMARK    4  A    between atoms: S_9  and  N_12
REMARK    5  A    between atoms: N_12  and  C_13
REMARK                            x       y       z     vdW  Elec       q    Type
REMARK                         _______ _______ _______ _____ _____    ______ ____
ROOT
ATOM      1  C   UNL     1       7.927   8.284  18.031  0.00  0.00    +0.000 A 
ATOM      2  C   UNL     1       8.491   7.375  18.940  0.00  0.00    +0.000 A 
ATOM      3  C   UNL     1       8.058   6.050  19.007  0.00  0.00    +0.000 A 
ATOM      4  C   UNL     1       7.046   5.607  18.166  0.00  0.00    +0.000 A 
ATOM      5  C   UNL     1       6.458   6.511  17.276  0.00  0.00    +0.000 A 
ATOM      6  C   UNL     1       6.867   7.854  17.227  0.00  0.00    +0.000 A 
ENDROOT
BRANCH   1   9
ATOM      7  O   UNL     1       9.104  10.120  20.009  0.00  0.00    +0.000 OA
ATOM      8  C   UNL     1       9.032  10.381  18.812  0.00  0.00    +0.000 C 
ATOM      9  N   UNL     1       8.424   9.599  17.847  0.00  0.00    +0.000 N 
ATOM     10  H   UNL     1       8.437   9.986  16.904  0.00  0.00    +0.000 HD
BRANCH   8  11
ATOM     11  C   UNL     1       9.675  11.646  18.343  0.00  0.00    +0.000 A 
ATOM     12  C   UNL     1      10.891  11.544  17.678  0.00  0.00    +0.000 A 
ATOM     13  C   UNL     1      11.514  12.704  17.248  0.00  0.00    +0.000 A 
ATOM     14  C   UNL     1      10.862  13.923  17.418  0.00  0.00    +0.000 A 
ATOM     15  C   UNL     1      11.440  15.098  16.913  0.00  0.00    +0.000 A 
ATOM     16  C   UNL     1      10.735  16.293  16.952  0.00  0.00    +0.000 A 
ATOM     17  C   UNL     1       9.471  16.322  17.532  0.00  0.00    +0.000 A 
ATOM     18  C   UNL     1       8.928  15.158  18.098  0.00  0.00    +0.000 A 
ATOM     19  C   UNL     1       9.595  13.939  18.049  0.00  0.00    +0.000 A 
ATOM     20  N   UNL     1       9.016  12.822  18.552  0.00  0.00    +0.000 NA
ENDBRANCH   8  11
ENDBRANCH   1   9
BRANCH   5  21
ATOM     21  S   UNL     1       5.110   5.944  16.259  0.00  0.00    +0.000 S 
ATOM     22  O   UNL     1       3.991   5.681  17.135  0.00  0.00    +0.000 OA
ATOM     23  O   UNL     1       4.990   6.859  15.138  0.00  0.00    +0.000 OA
BRANCH  21  24
ATOM     24  N   UNL     1       5.615   4.450  15.687  0.00  0.00    +0.000 N 
ATOM     25  H   UNL     1       6.008   3.830  16.393  0.00  0.00    +0.000 HD
BRANCH  24  26
ATOM     26  C   UNL     1       6.032   4.299  14.336  0.00  0.00    +0.000 A 
ATOM     27  C   UNL     1       5.228   3.562  13.466  0.00  0.00    +0.000 A 
ATOM     28  C   UNL     1       5.642   3.339  12.151  0.00  0.00    +0.000 A 
ATOM     29  C   UNL     1       6.852   3.868  11.696  0.00  0.00    +0.000 A 
ATOM     30  C   UNL     1       7.647   4.626  12.558  0.00  0.00    +0.000 A 
ATOM     31  C   UNL     1       7.236   4.833  13.873  0.00  0.00    +0.000 A 
ATOM     32  F   UNL     1       8.020   5.538  14.699  0.00  0.00    +0.000 F 
ENDBRANCH  24  26
ENDBRANCH  21  24
ENDBRANCH   5  21
TORSDOF 5
ENDMDL
MODEL 9
REMARK VINA RESULT:      -8.8      5.012     10.883
REMARK  Name = 
REMARK  5 active torsions:
REMARK  status: ('A' for Active; 'I' for Inactive)
REMARK    1  A    between atoms: C_2  and  C_21
REMARK    2  A    between atoms: N_3  and  C_4
REMARK    3  A    between atoms: C_8  and  S_9
REMARK    4  A    between atoms: S_9  and  N_12
REMARK    5  A    between atoms: N_12  and  C_13
REMARK                            x       y       z     vdW  Elec       q    Type
REMARK                         _______ _______ _______ _____ _____    ______ ____
ROOT
ATOM      1  C   UNL     1       0.918   9.775  18.667  0.00  0.00    +0.000 A 
ATOM      2  C   UNL     1       1.118  10.665  19.733  0.00  0.00    +0.000 A 
ATOM      3  C   UNL     1       0.125  11.563  20.127  0.00  0.00    +0.000 A 
ATOM      4  C   UNL     1      -1.091  11.589  19.460  0.00  0.00    +0.000 A 
ATOM      5  C   UNL     1      -1.292  10.726  18.378  0.00  0.00    +0.000 A 
ATOM      6  C   UNL     1      -0.283   9.843  17.956  0.00  0.00    +0.000 A 
ENDROOT
BRANCH   1   9
ATOM      7  O   UNL     1       1.851   7.478  20.255  0.00  0.00    +0.000 OA
ATOM      8  C   UNL     1       2.191   7.671  19.091  0.00  0.00    +0.000 C 
ATOM      9  N   UNL     1       1.852   8.766  18.318  0.00  0.00    +0.000 N 
ATOM     10  H   UNL     1       2.247   8.774  17.379  0.00  0.00    +0.000 HD
BRANCH   8  11
ATOM     11  C   UNL     1       3.032   6.623  18.436  0.00  0.00    +0.000 A 
ATOM     12  C   UNL     1       2.876   5.310  18.866  0.00  0.00    +0.000 A 
ATOM     13  C   UNL     1       3.655   4.323  18.285  0.00  0.00    +0.000 A 
ATOM     14  C   UNL     1       4.503   4.664  17.234  0.00  0.00    +0.000 A 
ATOM     15  C   UNL     1       5.236   3.662  16.578  0.00  0.00    +0.000 A 
ATOM     16  C   UNL     1       5.973   3.970  15.443  0.00  0.00    +0.000 A 
ATOM     17  C   UNL     1       6.010   5.283  14.987  0.00  0.00    +0.000 A 
ATOM     18  C   UNL     1       5.331   6.292  15.687  0.00  0.00    +0.000 A 
ATOM     19  C   UNL     1       4.560   6.013  16.810  0.00  0.00    +0.000 A 
ATOM     20  N   UNL     1       3.869   7.001  17.429  0.00  0.00    +0.000 NA
ENDBRANCH   8  11
ENDBRANCH   1   9
BRANCH   5  21
ATOM     21  S   UNL     1      -2.830  10.828  17.485  0.00  0.00    +0.000 S 
ATOM     22  O   UNL     1      -2.509  11.114  16.106  0.00  0.00    +0.000 OA
ATOM     23  O   UNL     1      -3.626   9.670  17.849  0.00  0.00    +0.000 OA
BRANCH  21  24
ATOM     24  N   UNL     1      -3.574  12.206  18.087  0.00  0.00    +0.000 N 
ATOM     25  H   UNL     1      -2.937  12.926  18.423  0.00  0.00    +0.000 HD
BRANCH  24  26
ATOM     26  C   UNL     1      -4.880  12.136  18.643  0.00  0.00    +0.000 A 
ATOM     27  C   UNL     1      -5.967  11.983  17.782  0.00  0.00    +0.000 A 
ATOM     28  C   UNL     1      -7.267  11.978  18.291  0.00  0.00    +0.000 A 
ATOM     29  C   UNL     1      -7.484  12.106  19.665  0.00  0.00    +0.000 A 
ATOM     30  C   UNL     1      -6.397  12.235  20.531  0.00  0.00    +0.000 A 
ATOM     31  C   UNL     1      -5.103  12.255  20.017  0.00  0.00    +0.000 A 
ATOM     32  F   UNL     1      -4.069  12.407  20.854  0.00  0.00    +0.000 F 
ENDBRANCH  24  26
ENDBRANCH  21  24
ENDBRANCH   5  21
TORSDOF 5
ENDMDL
