MODEL 1
REMARK VINA RESULT:      -8.1      0.000      0.000
REMARK  Name = 
REMARK  8 active torsions:
REMARK  status: ('A' for Active; 'I' for Inactive)
REMARK    1  A    between atoms: C_1  and  C_2
REMARK    2  A    between atoms: C_2  and  C_3
REMARK    3  A    between atoms: C_3  and  C_4
REMARK    4  A    between atoms: C_4  and  C_5
REMARK    5  A    between atoms: N_7  and  C_8
REMARK    6  A    between atoms: C_8  and  C_9
REMARK    7  A    between atoms: N_16  and  C_17
REMARK    8  A    between atoms: C_17  and  C_18
REMARK                            x       y       z     vdW  Elec       q    Type
REMARK                         _______ _______ _______ _____ _____    ______ ____
ROOT
ATOM      1  C   UNL     1       6.073   5.459  17.604  0.00  0.00    +0.000 A 
ATOM      2  C   UNL     1       5.030   6.101  18.227  0.00  0.00    +0.000 A 
ATOM      3  N   UNL     1       3.880   5.541  17.699  0.00  0.00    +0.000 N 
ATOM      4  N   UNL     1       4.101   4.600  16.792  0.00  0.00    +0.000 NA
ATOM      5  N   UNL     1       5.428   4.571  16.721  0.00  0.00    +0.000 N 
ENDROOT
BRANCH   1   6
ATOM      6  C   UNL     1       7.534   5.586  17.806  0.00  0.00    +0.000 C 
BRANCH   6   7
ATOM      7  C   UNL     1       7.892   6.892  18.501  0.00  0.00    +0.000 C 
BRANCH   7   9
ATOM      8  C   UNL     1       8.432   9.317  18.163  0.00  0.00    +0.000 C 
ATOM      9  C   UNL     1       7.830   8.072  17.534  0.00  0.00    +0.000 C 
ENDBRANCH   7   9
ENDBRANCH   6   7
ENDBRANCH   1   6
BRANCH   3  10
ATOM     10  C   UNL     1       2.505   5.817  18.118  0.00  0.00    +0.000 C 
BRANCH  10  11
ATOM     11  C   UNL     1       2.020   4.794  19.115  0.00  0.00    +0.000 A 
ATOM     12  C   UNL     1       1.316   3.658  18.691  0.00  0.00    +0.000 A 
ATOM     13  C   UNL     1       0.935   2.670  19.602  0.00  0.00    +0.000 A 
ATOM     14  C   UNL     1       1.258   2.806  20.951  0.00  0.00    +0.000 A 
ATOM     15  C   UNL     1       1.953   3.929  21.392  0.00  0.00    +0.000 A 
ATOM     16  C   UNL     1       2.334   4.920  20.480  0.00  0.00    +0.000 A 
ENDBRANCH  10  11
ENDBRANCH   3  10
BRANCH   5  17
ATOM     17  C   UNL     1       6.051   3.521  15.886  0.00  0.00    +0.000 C 
BRANCH  17  18
ATOM     18  C   UNL     1       6.390   3.973  14.478  0.00  0.00    +0.000 A 
ATOM     19  C   UNL     1       7.398   4.943  14.321  0.00  0.00    +0.000 A 
ATOM     20  C   UNL     1       7.839   5.333  13.051  0.00  0.00    +0.000 A 
ATOM     21  C   UNL     1       7.282   4.754  11.916  0.00  0.00    +0.000 A 
ATOM     22  C   UNL     1       6.278   3.795  12.050  0.00  0.00    +0.000 A 
ATOM     23  C   UNL     1       5.836   3.405  13.319  0.00  0.00    +0.000 A 
ENDBRANCH  17  18
ENDBRANCH   5  17
TORSDOF 7
ENDMDL
MODEL 2
REMARK VINA RESULT:      -8.0      0.592      1.251
REMARK  Name = 
REMARK  8 active torsions:
REMARK  status: ('A' for Active; 'I' for Inactive)
REMARK    1  A    between atoms: C_1  and  C_2
REMARK    2  A    between atoms: C_2  and  C_3
REMARK    3  A    between atoms: C_3  and  C_4
REMARK    4  A    between atoms: C_4  and  C_5
REMARK    5  A    between atoms: N_7  and  C_8
REMARK    6  A    between atoms: C_8  and  C_9
REMARK    7  A    between atoms: N_16  and  C_17
REMARK    8  A    between atoms: C_17  and  C_18
REMARK                            x       y       z     vdW  Elec       q    Type
REMARK                         _______ _______ _______ _____ _____    ______ ____
ROOT
ATOM      1  C   UNL     1       6.072   6.347  17.363  0.00  0.00    +0.000 A 
ATOM      2  C   UNL     1       4.918   6.897  17.867  0.00  0.00    +0.000 A 
ATOM      3  N   UNL     1       3.901   6.036  17.491  0.00  0.00    +0.000 N 
ATOM      4  N   UNL     1       4.309   4.987  16.791  0.00  0.00    +0.000 NA
ATOM      5  N   UNL     1       5.619   5.193  16.695  0.00  0.00    +0.000 N 
ENDROOT
BRANCH   1   6
ATOM      6  C   UNL     1       7.480   6.784  17.500  0.00  0.00    +0.000 C 
BRANCH   6   7
ATOM      7  C   UNL     1       7.602   8.301  17.469  0.00  0.00    +0.000 C 
BRANCH   7   9
ATOM      8  C   UNL     1       8.884  10.275  18.332  0.00  0.00    +0.000 C 
ATOM      9  C   UNL     1       8.570   8.803  18.538  0.00  0.00    +0.000 C 
ENDBRANCH   7   9
ENDBRANCH   6   7
ENDBRANCH   1   6
BRANCH   3  10
ATOM     10  C   UNL     1       2.493   6.130  17.878  0.00  0.00    +0.000 C 
BRANCH  10  11
ATOM     11  C   UNL     1       2.122   5.051  18.865  0.00  0.00    +0.000 A 
ATOM     12  C   UNL     1       2.394   5.204  20.232  0.00  0.00    +0.000 A 
ATOM     13  C   UNL     1       1.979   4.243  21.156  0.00  0.00    +0.000 A 
ATOM     14  C   UNL     1       1.282   3.117  20.724  0.00  0.00    +0.000 A 
ATOM     15  C   UNL     1       1.006   2.944  19.370  0.00  0.00    +0.000 A 
ATOM     16  C   UNL     1       1.422   3.906  18.442  0.00  0.00    +0.000 A 
ENDBRANCH  10  11
ENDBRANCH   3  10
BRANCH   5  17
ATOM     17  C   UNL     1       6.440   4.129  16.078  0.00  0.00    +0.000 C 
BRANCH  17  18
ATOM     18  C   UNL     1       6.597   4.266  14.575  0.00  0.00    +0.000 A 
ATOM     19  C   UNL     1       7.546   5.187  14.091  0.00  0.00    +0.000 A 
ATOM     20  C   UNL     1       7.822   5.294  12.723  0.00  0.00    +0.000 A 
ATOM     21  C   UNL     1       7.158   4.476  11.816  0.00  0.00    +0.000 A 
ATOM     22  C   UNL     1       6.210   3.561  12.275  0.00  0.00    +0.000 A 
ATOM     23  C   UNL     1       5.932   3.454  13.641  0.00  0.00    +0.000 A 
ENDBRANCH  17  18
ENDBRANCH   5  17
TORSDOF 7
ENDMDL
MODEL 3
REMARK VINA RESULT:      -7.7      0.703      1.588
REMARK  Name = 
REMARK  8 active torsions:
REMARK  status: ('A' for Active; 'I' for Inactive)
REMARK    1  A    between atoms: C_1  and  C_2
REMARK    2  A    between atoms: C_2  and  C_3
REMARK    3  A    between atoms: C_3  and  C_4
REMARK    4  A    between atoms: C_4  and  C_5
REMARK    5  A    between atoms: N_7  and  C_8
REMARK    6  A    between atoms: C_8  and  C_9
REMARK    7  A    between atoms: N_16  and  C_17
REMARK    8  A    between atoms: C_17  and  C_18
REMARK                            x       y       z     vdW  Elec       q    Type
REMARK                         _______ _______ _______ _____ _____    ______ ____
ROOT
ATOM      1  C   UNL     1       5.399   6.385  17.125  0.00  0.00    +0.000 A 
ATOM      2  C   UNL     1       4.154   6.735  17.589  0.00  0.00    +0.000 A 
ATOM      3  N   UNL     1       3.379   5.594  17.472  0.00  0.00    +0.000 N 
ATOM      4  N   UNL     1       4.024   4.549  16.972  0.00  0.00    +0.000 NA
ATOM      5  N   UNL     1       5.238   5.040  16.741  0.00  0.00    +0.000 N 
ENDROOT
BRANCH   1   6
ATOM      6  C   UNL     1       6.655   7.167  17.068  0.00  0.00    +0.000 C 
BRANCH   6   7
ATOM      7  C   UNL     1       7.623   6.754  18.168  0.00  0.00    +0.000 C 
BRANCH   7   9
ATOM      8  C   UNL     1       8.119   9.192  17.858  0.00  0.00    +0.000 C 
ATOM      9  C   UNL     1       8.480   7.932  18.626  0.00  0.00    +0.000 C 
ENDBRANCH   7   9
ENDBRANCH   6   7
ENDBRANCH   1   6
BRANCH   3  10
ATOM     10  C   UNL     1       2.001   5.427  17.933  0.00  0.00    +0.000 C 
BRANCH  10  11
ATOM     11  C   UNL     1       1.927   4.494  19.116  0.00  0.00    +0.000 A 
ATOM     12  C   UNL     1       2.404   4.890  20.373  0.00  0.00    +0.000 A 
ATOM     13  C   UNL     1       2.263   4.059  21.486  0.00  0.00    +0.000 A 
ATOM     14  C   UNL     1       1.640   2.820  21.356  0.00  0.00    +0.000 A 
ATOM     15  C   UNL     1       1.163   2.406  20.114  0.00  0.00    +0.000 A 
ATOM     16  C   UNL     1       1.304   3.238  18.998  0.00  0.00    +0.000 A 
ENDBRANCH  10  11
ENDBRANCH   3  10
BRANCH   5  17
ATOM     17  C   UNL     1       6.288   4.099  16.296  0.00  0.00    +0.000 C 
BRANCH  17  18
ATOM     18  C   UNL     1       6.612   4.192  14.816  0.00  0.00    +0.000 A 
ATOM     19  C   UNL     1       5.841   3.426  13.921  0.00  0.00    +0.000 A 
ATOM     20  C   UNL     1       6.011   3.538  12.536  0.00  0.00    +0.000 A 
ATOM     21  C   UNL     1       6.951   4.424  12.023  0.00  0.00    +0.000 A 
ATOM     22  C   UNL     1       7.729   5.188  12.893  0.00  0.00    +0.000 A 
ATOM     23  C   UNL     1       7.561   5.076  14.277  0.00  0.00    +0.000 A 
ENDBRANCH  17  18
ENDBRANCH   5  17
TORSDOF 7
ENDMDL
MODEL 4
REMARK VINA RESULT:      -7.6      0.829      1.385
REMARK  Name = 
REMARK  8 active torsions:
REMARK  status: ('A' for Active; 'I' for Inactive)
REMARK    1  A    between atoms: C_1  and  C_2
REMARK    2  A    between atoms: C_2  and  C_3
REMARK    3  A    between atoms: C_3  and  C_4
REMARK    4  A    between atoms: C_4  and  C_5
REMARK    5  A    between atoms: N_7  and  C_8
REMARK    6  A    between atoms: C_8  and  C_9
REMARK    7  A    between atoms: N_16  and  C_17
REMARK    8  A    between atoms: C_17  and  C_18
REMARK                            x       y       z     vdW  Elec       q    Type
REMARK                         _______ _______ _______ _____ _____    ______ ____
ROOT
ATOM      1  C   UNL     1       6.155   6.669  17.312  0.00  0.00    +0.000 A 
ATOM      2  C   UNL     1       4.975   7.229  17.737  0.00  0.00    +0.000 A 
ATOM      3  N   UNL     1       3.995   6.296  17.449  0.00  0.00    +0.000 N 
ATOM      4  N   UNL     1       4.449   5.190  16.875  0.00  0.00    +0.000 NA
ATOM      5  N   UNL     1       5.753   5.432  16.773  0.00  0.00    +0.000 N 
ENDROOT
BRANCH   1   6
ATOM      6  C   UNL     1       7.545   7.167  17.415  0.00  0.00    +0.000 C 
BRANCH   6   7
ATOM      7  C   UNL     1       7.586   8.679  17.593  0.00  0.00    +0.000 C 
BRANCH   7   9
ATOM      8  C   UNL     1       9.140  10.507  18.322  0.00  0.00    +0.000 C 
ATOM      9  C   UNL     1       8.660   9.092  18.597  0.00  0.00    +0.000 C 
ENDBRANCH   7   9
ENDBRANCH   6   7
ENDBRANCH   1   6
BRANCH   3  10
ATOM     10  C   UNL     1       2.579   6.382  17.806  0.00  0.00    +0.000 C 
BRANCH  10  11
ATOM     11  C   UNL     1       2.181   5.273  18.748  0.00  0.00    +0.000 A 
ATOM     12  C   UNL     1       1.508   4.137  18.276  0.00  0.00    +0.000 A 
ATOM     13  C   UNL     1       1.211   3.074  19.131  0.00  0.00    +0.000 A 
ATOM     14  C   UNL     1       1.587   3.132  20.470  0.00  0.00    +0.000 A 
ATOM     15  C   UNL     1       2.253   4.253  20.961  0.00  0.00    +0.000 A 
ATOM     16  C   UNL     1       2.550   5.320  20.105  0.00  0.00    +0.000 A 
ENDBRANCH  10  11
ENDBRANCH   3  10
BRANCH   5  17
ATOM     17  C   UNL     1       6.619   4.335  16.288  0.00  0.00    +0.000 C 
BRANCH  17  18
ATOM     18  C   UNL     1       6.822   4.328  14.784  0.00  0.00    +0.000 A 
ATOM     19  C   UNL     1       6.001   3.484  14.012  0.00  0.00    +0.000 A 
ATOM     20  C   UNL     1       6.057   3.499  12.613  0.00  0.00    +0.000 A 
ATOM     21  C   UNL     1       6.930   4.364  11.964  0.00  0.00    +0.000 A 
ATOM     22  C   UNL     1       7.756   5.203  12.711  0.00  0.00    +0.000 A 
ATOM     23  C   UNL     1       7.703   5.188  14.109  0.00  0.00    +0.000 A 
ENDBRANCH  17  18
ENDBRANCH   5  17
TORSDOF 7
ENDMDL
MODEL 5
REMARK VINA RESULT:      -7.5      4.610      7.899
REMARK  Name = 
REMARK  8 active torsions:
REMARK  status: ('A' for Active; 'I' for Inactive)
REMARK    1  A    between atoms: C_1  and  C_2
REMARK    2  A    between atoms: C_2  and  C_3
REMARK    3  A    between atoms: C_3  and  C_4
REMARK    4  A    between atoms: C_4  and  C_5
REMARK    5  A    between atoms: N_7  and  C_8
REMARK    6  A    between atoms: C_8  and  C_9
REMARK    7  A    between atoms: N_16  and  C_17
REMARK    8  A    between atoms: C_17  and  C_18
REMARK                            x       y       z     vdW  Elec       q    Type
REMARK                         _______ _______ _______ _____ _____    ______ ____
ROOT
ATOM      1  C   UNL     1       1.618   8.426  20.155  0.00  0.00    +0.000 A 
ATOM      2  C   UNL     1       2.176   7.180  19.996  0.00  0.00    +0.000 A 
ATOM      3  N   UNL     1       2.418   7.051  18.639  0.00  0.00    +0.000 N 
ATOM      4  N   UNL     1       2.062   8.107  17.921  0.00  0.00    +0.000 NA
ATOM      5  N   UNL     1       1.556   8.925  18.840  0.00  0.00    +0.000 N 
ENDROOT
BRANCH   1   6
ATOM      6  C   UNL     1       1.211   9.144  21.384  0.00  0.00    +0.000 C 
BRANCH   6   7
ATOM      7  C   UNL     1      -0.220   8.808  21.781  0.00  0.00    +0.000 C 
BRANCH   7   9
ATOM      8  C   UNL     1      -1.035  10.895  22.907  0.00  0.00    +0.000 C 
ATOM      9  C   UNL     1      -0.594   9.456  23.112  0.00  0.00    +0.000 C 
ENDBRANCH   7   9
ENDBRANCH   6   7
ENDBRANCH   1   6
BRANCH   3  10
ATOM     10  C   UNL     1       3.103   5.939  17.980  0.00  0.00    +0.000 C 
BRANCH  10  11
ATOM     11  C   UNL     1       2.646   4.610  18.528  0.00  0.00    +0.000 A 
ATOM     12  C   UNL     1       1.435   4.040  18.113  0.00  0.00    +0.000 A 
ATOM     13  C   UNL     1       1.049   2.774  18.558  0.00  0.00    +0.000 A 
ATOM     14  C   UNL     1       1.875   2.060  19.424  0.00  0.00    +0.000 A 
ATOM     15  C   UNL     1       3.080   2.610  19.852  0.00  0.00    +0.000 A 
ATOM     16  C   UNL     1       3.467   3.880  19.407  0.00  0.00    +0.000 A 
ENDBRANCH  10  11
ENDBRANCH   3  10
BRANCH   5  17
ATOM     17  C   UNL     1       1.170  10.287  18.411  0.00  0.00    +0.000 C 
BRANCH  17  18
ATOM     18  C   UNL     1      -0.328  10.531  18.407  0.00  0.00    +0.000 A 
ATOM     19  C   UNL     1      -0.837  11.528  19.261  0.00  0.00    +0.000 A 
ATOM     20  C   UNL     1      -2.191  11.881  19.238  0.00  0.00    +0.000 A 
ATOM     21  C   UNL     1      -3.058  11.248  18.355  0.00  0.00    +0.000 A 
ATOM     22  C   UNL     1      -2.575  10.253  17.504  0.00  0.00    +0.000 A 
ATOM     23  C   UNL     1      -1.222   9.898  17.527  0.00  0.00    +0.000 A 
ENDBRANCH  17  18
ENDBRANCH   5  17
TORSDOF 7
ENDMDL
MODEL 6
REMARK VINA RESULT:      -7.5      4.585      7.903
REMARK  Name = 
REMARK  8 active torsions:
REMARK  status: ('A' for Active; 'I' for Inactive)
REMARK    1  A    between atoms: C_1  and  C_2
REMARK    2  A    between atoms: C_2  and  C_3
REMARK    3  A    between atoms: C_3  and  C_4
REMARK    4  A    between atoms: C_4  and  C_5
REMARK    5  A    between atoms: N_7  and  C_8
REMARK    6  A    between atoms: C_8  and  C_9
REMARK    7  A    between atoms: N_16  and  C_17
REMARK    8  A    between atoms: C_17  and  C_18
REMARK                            x       y       z     vdW  Elec       q    Type
REMARK                         _______ _______ _______ _____ _____    ______ ____
ROOT
ATOM      1  C   UNL     1       1.632   8.314  20.237  0.00  0.00    +0.000 A 
ATOM      2  C   UNL     1       2.184   7.080  19.991  0.00  0.00    +0.000 A 
ATOM      3  N   UNL     1       2.406   7.037  18.625  0.00  0.00    +0.000 N 
ATOM      4  N   UNL     1       2.042   8.137  17.981  0.00  0.00    +0.000 NA
ATOM      5  N   UNL     1       1.551   8.896  18.957  0.00  0.00    +0.000 N 
ENDROOT
BRANCH   1   6
ATOM      6  C   UNL     1       1.245   8.953  21.515  0.00  0.00    +0.000 C 
BRANCH   6   7
ATOM      7  C   UNL     1      -0.251   8.833  21.771  0.00  0.00    +0.000 C 
BRANCH   7   9
ATOM      8  C   UNL     1      -0.787  11.074  22.758  0.00  0.00    +0.000 C 
ATOM      9  C   UNL     1      -0.661   9.586  23.035  0.00  0.00    +0.000 C 
ENDBRANCH   7   9
ENDBRANCH   6   7
ENDBRANCH   1   6
BRANCH   3  10
ATOM     10  C   UNL     1       3.078   5.968  17.886  0.00  0.00    +0.000 C 
BRANCH  10  11
ATOM     11  C   UNL     1       2.681   4.609  18.404  0.00  0.00    +0.000 A 
ATOM     12  C   UNL     1       3.498   3.920  19.312  0.00  0.00    +0.000 A 
ATOM     13  C   UNL     1       3.094   2.698  19.854  0.00  0.00    +0.000 A 
ATOM     14  C   UNL     1       1.863   2.151  19.497  0.00  0.00    +0.000 A 
ATOM     15  C   UNL     1       1.039   2.817  18.593  0.00  0.00    +0.000 A 
ATOM     16  C   UNL     1       1.443   4.041  18.048  0.00  0.00    +0.000 A 
ENDBRANCH  10  11
ENDBRANCH   3  10
BRANCH   5  17
ATOM     17  C   UNL     1       1.162  10.282  18.621  0.00  0.00    +0.000 C 
BRANCH  17  18
ATOM     18  C   UNL     1      -0.334  10.484  18.472  0.00  0.00    +0.000 A 
ATOM     19  C   UNL     1      -0.938  11.522  19.208  0.00  0.00    +0.000 A 
ATOM     20  C   UNL     1      -2.292  11.835  19.044  0.00  0.00    +0.000 A 
ATOM     21  C   UNL     1      -3.064  11.121  18.136  0.00  0.00    +0.000 A 
ATOM     22  C   UNL     1      -2.486  10.085  17.401  0.00  0.00    +0.000 A 
ATOM     23  C   UNL     1      -1.133   9.770  17.565  0.00  0.00    +0.000 A 
ENDBRANCH  17  18
ENDBRANCH   5  17
TORSDOF 7
ENDMDL
MODEL 7
REMARK VINA RESULT:      -7.4      1.761      7.198
REMARK  Name = 
REMARK  8 active torsions:
REMARK  status: ('A' for Active; 'I' for Inactive)
REMARK    1  A    between atoms: C_1  and  C_2
REMARK    2  A    between atoms: C_2  and  C_3
REMARK    3  A    between atoms: C_3  and  C_4
REMARK    4  A    between atoms: C_4  and  C_5
REMARK    5  A    between atoms: N_7  and  C_8
REMARK    6  A    between atoms: C_8  and  C_9
REMARK    7  A    between atoms: N_16  and  C_17
REMARK    8  A    between atoms: C_17  and  C_18
REMARK                            x       y       z     vdW  Elec       q    Type
REMARK                         _______ _______ _______ _____ _____    ______ ____
ROOT
ATOM      1  C   UNL     1       3.744   5.444  17.411  0.00  0.00    +0.000 A 
ATOM      2  C   UNL     1       4.833   6.091  16.879  0.00  0.00    +0.000 A 
ATOM      3  N   UNL     1       5.736   5.094  16.554  0.00  0.00    +0.000 N 
ATOM      4  N   UNL     1       5.316   3.868  16.835  0.00  0.00    +0.000 NA
ATOM      5  N   UNL     1       4.121   4.088  17.375  0.00  0.00    +0.000 N 
ENDROOT
BRANCH   1   6
ATOM      6  C   UNL     1       2.444   5.980  17.874  0.00  0.00    +0.000 C 
BRANCH   6   7
ATOM      7  C   UNL     1       2.623   6.988  19.001  0.00  0.00    +0.000 C 
BRANCH   7   9
ATOM      8  C   UNL     1       1.321   7.734  21.009  0.00  0.00    +0.000 C 
ATOM      9  C   UNL     1       1.899   6.540  20.268  0.00  0.00    +0.000 C 
ENDBRANCH   7   9
ENDBRANCH   6   7
ENDBRANCH   1   6
BRANCH   3  10
ATOM     10  C   UNL     1       7.012   5.267  15.861  0.00  0.00    +0.000 C 
BRANCH  10  11
ATOM     11  C   UNL     1       6.936   4.772  14.438  0.00  0.00    +0.000 A 
ATOM     12  C   UNL     1       5.981   3.818  14.061  0.00  0.00    +0.000 A 
ATOM     13  C   UNL     1       5.856   3.418  12.728  0.00  0.00    +0.000 A 
ATOM     14  C   UNL     1       6.684   3.971  11.755  0.00  0.00    +0.000 A 
ATOM     15  C   UNL     1       7.643   4.917  12.109  0.00  0.00    +0.000 A 
ATOM     16  C   UNL     1       7.769   5.318  13.445  0.00  0.00    +0.000 A 
ENDBRANCH  10  11
ENDBRANCH   3  10
BRANCH   5  17
ATOM     17  C   UNL     1       3.283   2.912  17.695  0.00  0.00    +0.000 C 
BRANCH  17  18
ATOM     18  C   UNL     1       2.668   2.952  19.083  0.00  0.00    +0.000 A 
ATOM     19  C   UNL     1       1.271   3.093  19.182  0.00  0.00    +0.000 A 
ATOM     20  C   UNL     1       0.621   3.033  20.420  0.00  0.00    +0.000 A 
ATOM     21  C   UNL     1       1.358   2.825  21.580  0.00  0.00    +0.000 A 
ATOM     22  C   UNL     1       2.745   2.689  21.504  0.00  0.00    +0.000 A 
ATOM     23  C   UNL     1       3.395   2.750  20.267  0.00  0.00    +0.000 A 
ENDBRANCH  17  18
ENDBRANCH   5  17
TORSDOF 7
ENDMDL
MODEL 8
REMARK VINA RESULT:      -7.4      1.783      7.138
REMARK  Name = 
REMARK  8 active torsions:
REMARK  status: ('A' for Active; 'I' for Inactive)
REMARK    1  A    between atoms: C_1  and  C_2
REMARK    2  A    between atoms: C_2  and  C_3
REMARK    3  A    between atoms: C_3  and  C_4
REMARK    4  A    between atoms: C_4  and  C_5
REMARK    5  A    between atoms: N_7  and  C_8
REMARK    6  A    between atoms: C_8  and  C_9
REMARK    7  A    between atoms: N_16  and  C_17
REMARK    8  A    between atoms: C_17  and  C_18
REMARK                            x       y       z     vdW  Elec       q    Type
REMARK                         _______ _______ _______ _____ _____    ______ ____
ROOT
ATOM      1  C   UNL     1       3.672   5.383  17.370  0.00  0.00    +0.000 A 
ATOM      2  C   UNL     1       4.851   5.949  16.948  0.00  0.00    +0.000 A 
ATOM      3  N   UNL     1       5.693   4.888  16.664  0.00  0.00    +0.000 N 
ATOM      4  N   UNL     1       5.151   3.695  16.870  0.00  0.00    +0.000 NA
ATOM      5  N   UNL     1       3.938   4.001  17.320  0.00  0.00    +0.000 N 
ENDROOT
BRANCH   1   6
ATOM      6  C   UNL     1       2.387   6.014  17.746  0.00  0.00    +0.000 C 
BRANCH   6   7
ATOM      7  C   UNL     1       2.570   7.040  18.857  0.00  0.00    +0.000 C 
BRANCH   7   9
ATOM      8  C   UNL     1       1.265   6.823  20.986  0.00  0.00    +0.000 C 
ATOM      9  C   UNL     1       2.510   6.384  20.234  0.00  0.00    +0.000 C 
ENDBRANCH   7   9
ENDBRANCH   6   7
ENDBRANCH   1   6
BRANCH   3  10
ATOM     10  C   UNL     1       7.032   4.971  16.080  0.00  0.00    +0.000 C 
BRANCH  10  11
ATOM     11  C   UNL     1       7.008   4.656  14.605  0.00  0.00    +0.000 A 
ATOM     12  C   UNL     1       6.116   3.705  14.089  0.00  0.00    +0.000 A 
ATOM     13  C   UNL     1       6.038   3.470  12.714  0.00  0.00    +0.000 A 
ATOM     14  C   UNL     1       6.849   4.187  11.838  0.00  0.00    +0.000 A 
ATOM     15  C   UNL     1       7.745   5.132  12.331  0.00  0.00    +0.000 A 
ATOM     16  C   UNL     1       7.825   5.368  13.708  0.00  0.00    +0.000 A 
ENDBRANCH  10  11
ENDBRANCH   3  10
BRANCH   5  17
ATOM     17  C   UNL     1       2.983   2.892  17.533  0.00  0.00    +0.000 C 
BRANCH  17  18
ATOM     18  C   UNL     1       2.439   2.810  18.948  0.00  0.00    +0.000 A 
ATOM     19  C   UNL     1       3.357   2.624  19.999  0.00  0.00    +0.000 A 
ATOM     20  C   UNL     1       2.943   2.643  21.335  0.00  0.00    +0.000 A 
ATOM     21  C   UNL     1       1.604   2.855  21.644  0.00  0.00    +0.000 A 
ATOM     22  C   UNL     1       0.678   3.036  20.616  0.00  0.00    +0.000 A 
ATOM     23  C   UNL     1       1.090   3.016  19.280  0.00  0.00    +0.000 A 
ENDBRANCH  17  18
ENDBRANCH   5  17
TORSDOF 7
ENDMDL
MODEL 9
REMARK VINA RESULT:      -7.3      3.445      6.065
REMARK  Name = 
REMARK  8 active torsions:
REMARK  status: ('A' for Active; 'I' for Inactive)
REMARK    1  A    between atoms: C_1  and  C_2
REMARK    2  A    between atoms: C_2  and  C_3
REMARK    3  A    between atoms: C_3  and  C_4
REMARK    4  A    between atoms: C_4  and  C_5
REMARK    5  A    between atoms: N_7  and  C_8
REMARK    6  A    between atoms: C_8  and  C_9
REMARK    7  A    between atoms: N_16  and  C_17
REMARK    8  A    between atoms: C_17  and  C_18
REMARK                            x       y       z     vdW  Elec       q    Type
REMARK                         _______ _______ _______ _____ _____    ______ ____
ROOT
ATOM      1  C   UNL     1       2.284   6.495  19.678  0.00  0.00    +0.000 A 
ATOM      2  C   UNL     1       1.960   7.829  19.739  0.00  0.00    +0.000 A 
ATOM      3  N   UNL     1       2.276   8.345  18.494  0.00  0.00    +0.000 N 
ATOM      4  N   UNL     1       2.775   7.455  17.648  0.00  0.00    +0.000 NA
ATOM      5  N   UNL     1       2.800   6.343  18.377  0.00  0.00    +0.000 N 
ENDROOT
BRANCH   1   6
ATOM      6  C   UNL     1       2.107   5.420  20.680  0.00  0.00    +0.000 C 
BRANCH   6   7
ATOM      7  C   UNL     1       0.906   4.542  20.355  0.00  0.00    +0.000 C 
BRANCH   7   9
ATOM      8  C   UNL     1       1.682   2.592  21.727  0.00  0.00    +0.000 C 
ATOM      9  C   UNL     1       1.286   3.063  20.338  0.00  0.00    +0.000 C 
ENDBRANCH   7   9
ENDBRANCH   6   7
ENDBRANCH   1   6
BRANCH   3  10
ATOM     10  C   UNL     1       2.018   9.707  18.026  0.00  0.00    +0.000 C 
BRANCH  10  11
ATOM     11  C   UNL     1       0.661  10.193  18.473  0.00  0.00    +0.000 A 
ATOM     12  C   UNL     1       0.540  11.126  19.512  0.00  0.00    +0.000 A 
ATOM     13  C   UNL     1      -0.708  11.637  19.873  0.00  0.00    +0.000 A 
ATOM     14  C   UNL     1      -1.853  11.222  19.195  0.00  0.00    +0.000 A 
ATOM     15  C   UNL     1      -1.754  10.293  18.163  0.00  0.00    +0.000 A 
ATOM     16  C   UNL     1      -0.503   9.779  17.801  0.00  0.00    +0.000 A 
ENDBRANCH  10  11
ENDBRANCH   3  10
BRANCH   5  17
ATOM     17  C   UNL     1       3.183   5.085  17.701  0.00  0.00    +0.000 C 
BRANCH  17  18
ATOM     18  C   UNL     1       4.668   4.968  17.410  0.00  0.00    +0.000 A 
ATOM     19  C   UNL     1       5.569   5.256  18.453  0.00  0.00    +0.000 A 
ATOM     20  C   UNL     1       6.947   5.071  18.293  0.00  0.00    +0.000 A 
ATOM     21  C   UNL     1       7.446   4.587  17.089  0.00  0.00    +0.000 A 
ATOM     22  C   UNL     1       6.570   4.300  16.042  0.00  0.00    +0.000 A 
ATOM     23  C   UNL     1       5.193   4.487  16.200  0.00  0.00    +0.000 A 
ENDBRANCH  17  18
ENDBRANCH   5  17
TORSDOF 7
ENDMDL
