MODEL 1
REMARK VINA RESULT:      -6.7      0.000      0.000
REMARK  Name = 
REMARK  3 active torsions:
REMARK  status: ('A' for Active; 'I' for Inactive)
REMARK    1  A    between atoms: C_1  and  C_2
REMARK    2  A    between atoms: C_5  and  N_6
REMARK    3  A    between atoms: C_13  and  C_14
REMARK                            x       y       z     vdW  Elec       q    Type
REMARK                         _______ _______ _______ _____ _____    ______ ____
ROOT
ATOM      1  C   UNL     1       0.504   2.141  18.944  0.00  0.00    +0.000 C 
ATOM      2  C   UNL     1       1.585   3.056  18.458  0.00  0.00    +0.000 A 
ATOM      3  C   UNL     1       2.536   2.611  17.550  0.00  0.00    +0.000 A 
ATOM      4  C   UNL     1       3.556   3.464  17.126  0.00  0.00    +0.000 A 
ATOM      5  C   UNL     1       3.688   4.780  17.604  0.00  0.00    +0.000 A 
ATOM      6  C   UNL     1       2.683   5.254  18.478  0.00  0.00    +0.000 A 
ATOM      7  C   UNL     1       2.634   6.652  19.042  0.00  0.00    +0.000 C 
ATOM      8  C   UNL     1       1.657   4.380  18.904  0.00  0.00    +0.000 A 
ENDROOT
BRANCH   5   9
ATOM      9  N   UNL     1       4.770   5.596  17.218  0.00  0.00    +0.000 N 
ATOM     10  C   UNL     1       5.946   5.795  17.887  0.00  0.00    +0.000 C 
ATOM     11  N   UNL     1       6.479   5.119  18.843  0.00  0.00    +0.000 NA
ATOM     12  C   UNL     1       7.658   5.645  19.307  0.00  0.00    +0.000 C 
ATOM     13  O   UNL     1       8.295   5.158  20.235  0.00  0.00    +0.000 OA
ATOM     14  C   UNL     1       8.119   6.884  18.585  0.00  0.00    +0.000 C 
ATOM     15  S   UNL     1       6.835   7.212  17.358  0.00  0.00    +0.000 S 
ATOM     16  H   UNL     1       4.548   6.334  16.566  0.00  0.00    +0.000 HD
ENDBRANCH   5   9
TORSDOF 1
ENDMDL
MODEL 2
REMARK VINA RESULT:      -6.6      2.052      2.321
REMARK  Name = 
REMARK  3 active torsions:
REMARK  status: ('A' for Active; 'I' for Inactive)
REMARK    1  A    between atoms: C_1  and  C_2
REMARK    2  A    between atoms: C_5  and  N_6
REMARK    3  A    between atoms: C_13  and  C_14
REMARK                            x       y       z     vdW  Elec       q    Type
REMARK                         _______ _______ _______ _____ _____    ______ ____
ROOT
ATOM      1  C   UNL     1       1.144   2.722  21.654  0.00  0.00    +0.000 C 
ATOM      2  C   UNL     1       1.748   3.061  20.326  0.00  0.00    +0.000 A 
ATOM      3  C   UNL     1       2.116   2.060  19.437  0.00  0.00    +0.000 A 
ATOM      4  C   UNL     1       2.705   2.386  18.215  0.00  0.00    +0.000 A 
ATOM      5  C   UNL     1       2.975   3.713  17.838  0.00  0.00    +0.000 A 
ATOM      6  C   UNL     1       2.543   4.736  18.714  0.00  0.00    +0.000 A 
ATOM      7  C   UNL     1       2.699   6.212  18.444  0.00  0.00    +0.000 C 
ATOM      8  C   UNL     1       1.951   4.393  19.951  0.00  0.00    +0.000 A 
ENDROOT
BRANCH   5   9
ATOM      9  N   UNL     1       3.640   4.012  16.631  0.00  0.00    +0.000 N 
ATOM     10  C   UNL     1       4.973   4.259  16.451  0.00  0.00    +0.000 C 
ATOM     11  N   UNL     1       5.971   4.020  17.227  0.00  0.00    +0.000 NA
ATOM     12  C   UNL     1       7.176   4.451  16.732  0.00  0.00    +0.000 C 
ATOM     13  O   UNL     1       8.234   4.340  17.342  0.00  0.00    +0.000 OA
ATOM     14  C   UNL     1       7.104   5.081  15.367  0.00  0.00    +0.000 C 
ATOM     15  S   UNL     1       5.352   5.046  14.930  0.00  0.00    +0.000 S 
ATOM     16  H   UNL     1       3.059   4.384  15.895  0.00  0.00    +0.000 HD
ENDBRANCH   5   9
TORSDOF 1
ENDMDL
MODEL 3
REMARK VINA RESULT:      -6.5      1.980      2.797
REMARK  Name = 
REMARK  3 active torsions:
REMARK  status: ('A' for Active; 'I' for Inactive)
REMARK    1  A    between atoms: C_1  and  C_2
REMARK    2  A    between atoms: C_5  and  N_6
REMARK    3  A    between atoms: C_13  and  C_14
REMARK                            x       y       z     vdW  Elec       q    Type
REMARK                         _______ _______ _______ _____ _____    ______ ____
ROOT
ATOM      1  C   UNL     1       1.192   2.545  22.188  0.00  0.00    +0.000 C 
ATOM      2  C   UNL     1       1.858   3.170  21.001  0.00  0.00    +0.000 A 
ATOM      3  C   UNL     1       2.236   4.506  21.022  0.00  0.00    +0.000 A 
ATOM      4  C   UNL     1       2.829   5.085  19.900  0.00  0.00    +0.000 A 
ATOM      5  C   UNL     1       3.046   4.372  18.708  0.00  0.00    +0.000 A 
ATOM      6  C   UNL     1       2.721   2.996  18.707  0.00  0.00    +0.000 A 
ATOM      7  C   UNL     1       2.940   2.068  17.539  0.00  0.00    +0.000 C 
ATOM      8  C   UNL     1       2.117   2.421  19.849  0.00  0.00    +0.000 A 
ENDROOT
BRANCH   5   9
ATOM      9  N   UNL     1       3.578   5.001  17.563  0.00  0.00    +0.000 N 
ATOM     10  C   UNL     1       4.887   5.054  17.173  0.00  0.00    +0.000 C 
ATOM     11  N   UNL     1       5.895   4.351  17.555  0.00  0.00    +0.000 NA
ATOM     12  C   UNL     1       7.082   4.718  16.975  0.00  0.00    +0.000 C 
ATOM     13  O   UNL     1       8.155   4.185  17.239  0.00  0.00    +0.000 OA
ATOM     14  C   UNL     1       6.972   5.840  15.977  0.00  0.00    +0.000 C 
ATOM     15  S   UNL     1       5.225   6.298  15.983  0.00  0.00    +0.000 S 
ATOM     16  H   UNL     1       3.009   5.733  17.165  0.00  0.00    +0.000 HD
ENDBRANCH   5   9
TORSDOF 1
ENDMDL
MODEL 4
REMARK VINA RESULT:      -6.5      2.949      5.812
REMARK  Name = 
REMARK  3 active torsions:
REMARK  status: ('A' for Active; 'I' for Inactive)
REMARK    1  A    between atoms: C_1  and  C_2
REMARK    2  A    between atoms: C_5  and  N_6
REMARK    3  A    between atoms: C_13  and  C_14
REMARK                            x       y       z     vdW  Elec       q    Type
REMARK                         _______ _______ _______ _____ _____    ______ ____
ROOT
ATOM      1  C   UNL     1       8.530   8.362  18.256  0.00  0.00    +0.000 C 
ATOM      2  C   UNL     1       7.634   7.168  18.136  0.00  0.00    +0.000 A 
ATOM      3  C   UNL     1       7.621   6.189  19.120  0.00  0.00    +0.000 A 
ATOM      4  C   UNL     1       6.804   5.066  18.984  0.00  0.00    +0.000 A 
ATOM      5  C   UNL     1       5.989   4.858  17.857  0.00  0.00    +0.000 A 
ATOM      6  C   UNL     1       5.953   5.885  16.885  0.00  0.00    +0.000 A 
ATOM      7  C   UNL     1       5.095   5.855  15.645  0.00  0.00    +0.000 C 
ATOM      8  C   UNL     1       6.788   7.016  17.032  0.00  0.00    +0.000 A 
ENDROOT
BRANCH   5   9
ATOM      9  N   UNL     1       5.230   3.679  17.708  0.00  0.00    +0.000 N 
ATOM     10  C   UNL     1       4.001   3.406  18.240  0.00  0.00    +0.000 C 
ATOM     11  N   UNL     1       3.124   4.198  18.749  0.00  0.00    +0.000 NA
ATOM     12  C   UNL     1       2.011   3.559  19.232  0.00  0.00    +0.000 C 
ATOM     13  O   UNL     1       1.083   4.143  19.781  0.00  0.00    +0.000 OA
ATOM     14  C   UNL     1       2.011   2.066  19.038  0.00  0.00    +0.000 C 
ATOM     15  S   UNL     1       3.588   1.701  18.238  0.00  0.00    +0.000 S 
ATOM     16  H   UNL     1       5.753   2.854  17.458  0.00  0.00    +0.000 HD
ENDBRANCH   5   9
TORSDOF 1
ENDMDL
MODEL 5
REMARK VINA RESULT:      -6.3      3.425      5.582
REMARK  Name = 
REMARK  3 active torsions:
REMARK  status: ('A' for Active; 'I' for Inactive)
REMARK    1  A    between atoms: C_1  and  C_2
REMARK    2  A    between atoms: C_5  and  N_6
REMARK    3  A    between atoms: C_13  and  C_14
REMARK                            x       y       z     vdW  Elec       q    Type
REMARK                         _______ _______ _______ _____ _____    ______ ____
ROOT
ATOM      1  C   UNL     1       7.173   4.850  14.108  0.00  0.00    +0.000 C 
ATOM      2  C   UNL     1       6.458   4.728  15.418  0.00  0.00    +0.000 A 
ATOM      3  C   UNL     1       5.189   4.167  15.483  0.00  0.00    +0.000 A 
ATOM      4  C   UNL     1       4.519   4.085  16.705  0.00  0.00    +0.000 A 
ATOM      5  C   UNL     1       5.068   4.579  17.901  0.00  0.00    +0.000 A 
ATOM      6  C   UNL     1       6.385   5.091  17.847  0.00  0.00    +0.000 A 
ATOM      7  C   UNL     1       7.148   5.608  19.040  0.00  0.00    +0.000 C 
ATOM      8  C   UNL     1       7.052   5.173  16.603  0.00  0.00    +0.000 A 
ENDROOT
BRANCH   5   9
ATOM      9  N   UNL     1       4.340   4.552  19.108  0.00  0.00    +0.000 N 
ATOM     10  C   UNL     1       3.088   4.043  19.317  0.00  0.00    +0.000 C 
ATOM     11  N   UNL     1       2.388   3.243  18.592  0.00  0.00    +0.000 NA
ATOM     12  C   UNL     1       1.141   2.981  19.098  0.00  0.00    +0.000 C 
ATOM     13  O   UNL     1       0.320   2.266  18.532  0.00  0.00    +0.000 OA
ATOM     14  C   UNL     1       0.847   3.644  20.418  0.00  0.00    +0.000 C 
ATOM     15  S   UNL     1       2.330   4.603  20.796  0.00  0.00    +0.000 S 
ATOM     16  H   UNL     1       4.618   5.233  19.799  0.00  0.00    +0.000 HD
ENDBRANCH   5   9
TORSDOF 1
ENDMDL
MODEL 6
REMARK VINA RESULT:      -6.2      3.595      5.425
REMARK  Name = 
REMARK  3 active torsions:
REMARK  status: ('A' for Active; 'I' for Inactive)
REMARK    1  A    between atoms: C_1  and  C_2
REMARK    2  A    between atoms: C_5  and  N_6
REMARK    3  A    between atoms: C_13  and  C_14
REMARK                            x       y       z     vdW  Elec       q    Type
REMARK                         _______ _______ _______ _____ _____    ______ ____
ROOT
ATOM      1  C   UNL     1       6.580   4.663  13.542  0.00  0.00    +0.000 C 
ATOM      2  C   UNL     1       5.983   4.703  14.915  0.00  0.00    +0.000 A 
ATOM      3  C   UNL     1       5.981   3.572  15.721  0.00  0.00    +0.000 A 
ATOM      4  C   UNL     1       5.396   3.612  16.988  0.00  0.00    +0.000 A 
ATOM      5  C   UNL     1       4.769   4.765  17.492  0.00  0.00    +0.000 A 
ATOM      6  C   UNL     1       4.827   5.934  16.700  0.00  0.00    +0.000 A 
ATOM      7  C   UNL     1       4.259   7.270  17.108  0.00  0.00    +0.000 C 
ATOM      8  C   UNL     1       5.419   5.880  15.417  0.00  0.00    +0.000 A 
ENDROOT
BRANCH   5   9
ATOM      9  N   UNL     1       4.119   4.758  18.744  0.00  0.00    +0.000 N 
ATOM     10  C   UNL     1       2.922   4.176  19.059  0.00  0.00    +0.000 C 
ATOM     11  N   UNL     1       2.240   3.289  18.425  0.00  0.00    +0.000 NA
ATOM     12  C   UNL     1       1.048   2.970  19.024  0.00  0.00    +0.000 C 
ATOM     13  O   UNL     1       0.248   2.170  18.551  0.00  0.00    +0.000 OA
ATOM     14  C   UNL     1       0.787   3.687  20.322  0.00  0.00    +0.000 C 
ATOM     15  S   UNL     1       2.216   4.766  20.553  0.00  0.00    +0.000 S 
ATOM     16  H   UNL     1       4.388   5.494  19.378  0.00  0.00    +0.000 HD
ENDBRANCH   5   9
TORSDOF 1
ENDMDL
MODEL 7
REMARK VINA RESULT:      -6.1      2.763      3.153
REMARK  Name = 
REMARK  3 active torsions:
REMARK  status: ('A' for Active; 'I' for Inactive)
REMARK    1  A    between atoms: C_1  and  C_2
REMARK    2  A    between atoms: C_5  and  N_6
REMARK    3  A    between atoms: C_13  and  C_14
REMARK                            x       y       z     vdW  Elec       q    Type
REMARK                         _______ _______ _______ _____ _____    ______ ____
ROOT
ATOM      1  C   UNL     1       1.140   2.821  21.323  0.00  0.00    +0.000 C 
ATOM      2  C   UNL     1       2.210   3.414  20.459  0.00  0.00    +0.000 A 
ATOM      3  C   UNL     1       3.412   2.747  20.261  0.00  0.00    +0.000 A 
ATOM      4  C   UNL     1       4.414   3.322  19.478  0.00  0.00    +0.000 A 
ATOM      5  C   UNL     1       4.273   4.588  18.883  0.00  0.00    +0.000 A 
ATOM      6  C   UNL     1       3.027   5.238  19.030  0.00  0.00    +0.000 A 
ATOM      7  C   UNL     1       2.682   6.571  18.414  0.00  0.00    +0.000 C 
ATOM      8  C   UNL     1       2.021   4.648  19.830  0.00  0.00    +0.000 A 
ENDROOT
BRANCH   5   9
ATOM      9  N   UNL     1       5.329   5.179  18.159  0.00  0.00    +0.000 N 
ATOM     10  C   UNL     1       5.653   4.982  16.845  0.00  0.00    +0.000 C 
ATOM     11  N   UNL     1       4.964   4.462  15.891  0.00  0.00    +0.000 NA
ATOM     12  C   UNL     1       5.636   4.383  14.698  0.00  0.00    +0.000 C 
ATOM     13  O   UNL     1       5.154   3.889  13.684  0.00  0.00    +0.000 OA
ATOM     14  C   UNL     1       7.029   4.953  14.724  0.00  0.00    +0.000 C 
ATOM     15  S   UNL     1       7.274   5.504  16.426  0.00  0.00    +0.000 S 
ATOM     16  H   UNL     1       6.094   5.530  18.714  0.00  0.00    +0.000 HD
ENDBRANCH   5   9
TORSDOF 1
ENDMDL
MODEL 8
REMARK VINA RESULT:      -6.1      1.561      1.654
REMARK  Name = 
REMARK  3 active torsions:
REMARK  status: ('A' for Active; 'I' for Inactive)
REMARK    1  A    between atoms: C_1  and  C_2
REMARK    2  A    between atoms: C_5  and  N_6
REMARK    3  A    between atoms: C_13  and  C_14
REMARK                            x       y       z     vdW  Elec       q    Type
REMARK                         _______ _______ _______ _____ _____    ______ ____
ROOT
ATOM      1  C   UNL     1       1.135   2.481  22.021  0.00  0.00    +0.000 C 
ATOM      2  C   UNL     1       1.834   3.172  20.892  0.00  0.00    +0.000 A 
ATOM      3  C   UNL     1       2.525   2.443  19.933  0.00  0.00    +0.000 A 
ATOM      4  C   UNL     1       3.198   3.099  18.901  0.00  0.00    +0.000 A 
ATOM      5  C   UNL     1       3.234   4.500  18.795  0.00  0.00    +0.000 A 
ATOM      6  C   UNL     1       2.478   5.241  19.732  0.00  0.00    +0.000 A 
ATOM      7  C   UNL     1       2.357   6.744  19.733  0.00  0.00    +0.000 C 
ATOM      8  C   UNL     1       1.804   4.566  20.776  0.00  0.00    +0.000 A 
ENDROOT
BRANCH   5   9
ATOM      9  N   UNL     1       3.984   5.140  17.787  0.00  0.00    +0.000 N 
ATOM     10  C   UNL     1       5.271   5.595  17.866  0.00  0.00    +0.000 C 
ATOM     11  N   UNL     1       6.193   5.328  18.722  0.00  0.00    +0.000 NA
ATOM     12  C   UNL     1       7.363   6.012  18.513  0.00  0.00    +0.000 C 
ATOM     13  O   UNL     1       8.343   5.912  19.245  0.00  0.00    +0.000 OA
ATOM     14  C   UNL     1       7.357   6.909  17.304  0.00  0.00    +0.000 C 
ATOM     15  S   UNL     1       5.701   6.737  16.606  0.00  0.00    +0.000 S 
ATOM     16  H   UNL     1       3.445   5.583  17.058  0.00  0.00    +0.000 HD
ENDBRANCH   5   9
TORSDOF 1
ENDMDL
MODEL 9
REMARK VINA RESULT:      -6.0      2.098      3.590
REMARK  Name = 
REMARK  3 active torsions:
REMARK  status: ('A' for Active; 'I' for Inactive)
REMARK    1  A    between atoms: C_1  and  C_2
REMARK    2  A    between atoms: C_5  and  N_6
REMARK    3  A    between atoms: C_13  and  C_14
REMARK                            x       y       z     vdW  Elec       q    Type
REMARK                         _______ _______ _______ _____ _____    ______ ____
ROOT
ATOM      1  C   UNL     1       0.490   9.034  21.266  0.00  0.00    +0.000 C 
ATOM      2  C   UNL     1       1.315   8.156  20.376  0.00  0.00    +0.000 A 
ATOM      3  C   UNL     1       1.814   8.636  19.172  0.00  0.00    +0.000 A 
ATOM      4  C   UNL     1       2.557   7.801  18.336  0.00  0.00    +0.000 A 
ATOM      5  C   UNL     1       2.812   6.454  18.649  0.00  0.00    +0.000 A 
ATOM      6  C   UNL     1       2.360   5.983  19.903  0.00  0.00    +0.000 A 
ATOM      7  C   UNL     1       2.593   4.587  20.425  0.00  0.00    +0.000 C 
ATOM      8  C   UNL     1       1.605   6.837  20.739  0.00  0.00    +0.000 A 
ENDROOT
BRANCH   5   9
ATOM      9  N   UNL     1       3.500   5.610  17.753  0.00  0.00    +0.000 N 
ATOM     10  C   UNL     1       4.833   5.306  17.751  0.00  0.00    +0.000 C 
ATOM     11  N   UNL     1       5.719   5.459  18.670  0.00  0.00    +0.000 NA
ATOM     12  C   UNL     1       6.982   5.079  18.296  0.00  0.00    +0.000 C 
ATOM     13  O   UNL     1       7.962   5.182  19.026  0.00  0.00    +0.000 OA
ATOM     14  C   UNL     1       7.081   4.520  16.901  0.00  0.00    +0.000 C 
ATOM     15  S   UNL     1       5.404   4.623  16.239  0.00  0.00    +0.000 S 
ATOM     16  H   UNL     1       3.053   5.466  16.860  0.00  0.00    +0.000 HD
ENDBRANCH   5   9
TORSDOF 1
ENDMDL
