MODEL 1
REMARK VINA RESULT:      -6.5      0.000      0.000
REMARK  Name = 
REMARK  11 active torsions:
REMARK  status: ('A' for Active; 'I' for Inactive)
REMARK    1  A    between atoms: C_1  and  C_2
REMARK    2  A    between atoms: C_2  and  C_3
REMARK    3  A    between atoms: C_3  and  C_4
REMARK    4  A    between atoms: C_4  and  C_5
REMARK    5  A    between atoms: C_5  and  C_6
REMARK    6  A    between atoms: C_6  and  C_7
REMARK    7  A    between atoms: C_7  and  C_8
REMARK    8  A    between atoms: C_8  and  C_9
REMARK    9  A    between atoms: C_17  and  C_18
REMARK   10  A    between atoms: C_21  and  C_22
REMARK   11  A    between atoms: C_29  and  O_30
REMARK                            x       y       z     vdW  Elec       q    Type
REMARK                         _______ _______ _______ _____ _____    ______ ____
ROOT
ATOM      1  C   UNL     1       0.630  10.972  19.338  0.00  0.00    +0.000 C 
ATOM      2  C   UNL     1       1.714  11.953  18.842  0.00  0.00    +0.000 C 
ATOM      3  S   UNL     1       2.157  13.315  19.869  0.00  0.00    +0.000 S 
ATOM      4  O   UNL     1       3.379  13.850  19.291  0.00  0.00    +0.000 OA
ATOM      5  O   UNL     1       2.125  12.969  21.275  0.00  0.00    +0.000 OA
ATOM      6  C   UNL     1       0.887  14.531  19.626  0.00  0.00    +0.000 A 
ATOM      7  C   UNL     1       1.352  15.811  19.268  0.00  0.00    +0.000 A 
ATOM      8  C   UNL     1       0.467  16.859  19.072  0.00  0.00    +0.000 A 
ATOM      9  C   UNL     1      -0.896  16.640  19.224  0.00  0.00    +0.000 A 
ATOM     10  C   UNL     1      -1.862  17.773  19.028  0.00  0.00    +0.000 C 
ATOM     11  C   UNL     1      -1.357  15.361  19.595  0.00  0.00    +0.000 A 
ATOM     12  C   UNL     1      -0.485  14.264  19.814  0.00  0.00    +0.000 A 
ATOM     13  C   UNL     1      -1.030  12.895  20.293  0.00  0.00    +0.000 C 
ATOM     14  C   UNL     1      -0.778  11.680  19.318  0.00  0.00    +0.000 C 
ENDROOT
BRANCH  13  15
ATOM     15  C   UNL     1      -2.521  12.933  20.738  0.00  0.00    +0.000 A 
ATOM     16  C   UNL     1      -3.583  12.537  19.897  0.00  0.00    +0.000 A 
ATOM     17  C   UNL     1      -4.914  12.641  20.325  0.00  0.00    +0.000 A 
ATOM     18  C   UNL     1      -5.194  13.133  21.594  0.00  0.00    +0.000 A 
ATOM     19  F   UNL     1      -6.469  13.241  21.996  0.00  0.00    +0.000 F 
ATOM     20  C   UNL     1      -4.171  13.522  22.445  0.00  0.00    +0.000 A 
ATOM     21  C   UNL     1      -2.843  13.428  22.019  0.00  0.00    +0.000 A 
ENDBRANCH  13  15
BRANCH  14  22
ATOM     22  O   UNL     1      -1.099  12.036  17.960  0.00  0.00    +0.000 OA
ATOM     23  H   UNL     1      -0.867  12.966  17.790  0.00  0.00    +0.000 HD
ENDBRANCH  14  22
BRANCH   1  24
ATOM     24  C   UNL     1       0.660   9.817  18.252  0.00  0.00    +0.000 C 
BRANCH  24  25
ATOM     25  C   UNL     1       2.029   9.323  17.769  0.00  0.00    +0.000 C 
BRANCH  25  27
ATOM     26  C   UNL     1       3.556   7.306  17.672  0.00  0.00    +0.000 C 
ATOM     27  C   UNL     1       2.203   7.838  18.110  0.00  0.00    +0.000 C 
ENDBRANCH  25  27
ENDBRANCH  24  25
ENDBRANCH   1  24
BRANCH   1  28
ATOM     28  C   UNL     1       0.972  10.343  20.743  0.00  0.00    +0.000 C 
BRANCH  28  29
ATOM     29  C   UNL     1       0.076   9.141  21.118  0.00  0.00    +0.000 C 
BRANCH  29  30
ATOM     30  C   UNL     1      -0.459   9.105  22.549  0.00  0.00    +0.000 C 
ATOM     31  C   UNL     1      -0.891  10.456  23.088  0.00  0.00    +0.000 C 
ENDBRANCH  29  30
ENDBRANCH  28  29
ENDBRANCH   1  28
TORSDOF 8
ENDMDL
MODEL 2
REMARK VINA RESULT:      -6.5      0.613      1.091
REMARK  Name = 
REMARK  11 active torsions:
REMARK  status: ('A' for Active; 'I' for Inactive)
REMARK    1  A    between atoms: C_1  and  C_2
REMARK    2  A    between atoms: C_2  and  C_3
REMARK    3  A    between atoms: C_3  and  C_4
REMARK    4  A    between atoms: C_4  and  C_5
REMARK    5  A    between atoms: C_5  and  C_6
REMARK    6  A    between atoms: C_6  and  C_7
REMARK    7  A    between atoms: C_7  and  C_8
REMARK    8  A    between atoms: C_8  and  C_9
REMARK    9  A    between atoms: C_17  and  C_18
REMARK   10  A    between atoms: C_21  and  C_22
REMARK   11  A    between atoms: C_29  and  O_30
REMARK                            x       y       z     vdW  Elec       q    Type
REMARK                         _______ _______ _______ _____ _____    ______ ____
ROOT
ATOM      1  C   UNL     1       0.703  11.163  19.411  0.00  0.00    +0.000 C 
ATOM      2  C   UNL     1       1.849  12.022  18.833  0.00  0.00    +0.000 C 
ATOM      3  S   UNL     1       2.360  13.457  19.720  0.00  0.00    +0.000 S 
ATOM      4  O   UNL     1       3.618  13.857  19.110  0.00  0.00    +0.000 OA
ATOM      5  O   UNL     1       2.294  13.263  21.153  0.00  0.00    +0.000 OA
ATOM      6  C   UNL     1       1.167  14.711  19.331  0.00  0.00    +0.000 A 
ATOM      7  C   UNL     1       1.710  15.919  18.849  0.00  0.00    +0.000 A 
ATOM      8  C   UNL     1       0.891  16.989  18.530  0.00  0.00    +0.000 A 
ATOM      9  C   UNL     1      -0.485  16.866  18.682  0.00  0.00    +0.000 A 
ATOM     10  C   UNL     1      -1.380  18.026  18.353  0.00  0.00    +0.000 C 
ATOM     11  C   UNL     1      -1.024  15.662  19.176  0.00  0.00    +0.000 A 
ATOM     12  C   UNL     1      -0.221  14.546  19.523  0.00  0.00    +0.000 A 
ATOM     13  C   UNL     1      -0.851  13.268  20.132  0.00  0.00    +0.000 C 
ATOM     14  C   UNL     1      -0.660  11.945  19.294  0.00  0.00    +0.000 C 
ENDROOT
BRANCH  13  15
ATOM     15  C   UNL     1      -2.341  13.438  20.547  0.00  0.00    +0.000 A 
ATOM     16  C   UNL     1      -2.760  14.332  21.554  0.00  0.00    +0.000 A 
ATOM     17  C   UNL     1      -4.108  14.410  21.930  0.00  0.00    +0.000 A 
ATOM     18  C   UNL     1      -5.046  13.601  21.301  0.00  0.00    +0.000 A 
ATOM     19  F   UNL     1      -6.335  13.670  21.670  0.00  0.00    +0.000 F 
ATOM     20  C   UNL     1      -4.666  12.718  20.302  0.00  0.00    +0.000 A 
ATOM     21  C   UNL     1      -3.321  12.632  19.930  0.00  0.00    +0.000 A 
ENDBRANCH  13  15
BRANCH  14  22
ATOM     22  O   UNL     1      -0.945  12.175  17.901  0.00  0.00    +0.000 OA
ATOM     23  H   UNL     1      -0.434  12.934  17.571  0.00  0.00    +0.000 HD
ENDBRANCH  14  22
BRANCH   1  24
ATOM     24  C   UNL     1       0.676   9.900  18.452  0.00  0.00    +0.000 C 
BRANCH  24  25
ATOM     25  C   UNL     1       1.993   9.474  17.791  0.00  0.00    +0.000 C 
BRANCH  25  27
ATOM     26  C   UNL     1       2.207   7.547  19.420  0.00  0.00    +0.000 C 
ATOM     27  C   UNL     1       2.200   7.963  17.959  0.00  0.00    +0.000 C 
ENDBRANCH  25  27
ENDBRANCH  24  25
ENDBRANCH   1  24
BRANCH   1  28
ATOM     28  C   UNL     1       0.993  10.667  20.879  0.00  0.00    +0.000 C 
BRANCH  28  29
ATOM     29  C   UNL     1      -0.126   9.773  21.463  0.00  0.00    +0.000 C 
BRANCH  29  30
ATOM     30  C   UNL     1      -0.485   9.996  22.931  0.00  0.00    +0.000 C 
ATOM     31  C   UNL     1      -1.454  11.139  23.171  0.00  0.00    +0.000 C 
ENDBRANCH  29  30
ENDBRANCH  28  29
ENDBRANCH   1  28
TORSDOF 8
ENDMDL
MODEL 3
REMARK VINA RESULT:      -6.2      2.764      5.271
REMARK  Name = 
REMARK  11 active torsions:
REMARK  status: ('A' for Active; 'I' for Inactive)
REMARK    1  A    between atoms: C_1  and  C_2
REMARK    2  A    between atoms: C_2  and  C_3
REMARK    3  A    between atoms: C_3  and  C_4
REMARK    4  A    between atoms: C_4  and  C_5
REMARK    5  A    between atoms: C_5  and  C_6
REMARK    6  A    between atoms: C_6  and  C_7
REMARK    7  A    between atoms: C_7  and  C_8
REMARK    8  A    between atoms: C_8  and  C_9
REMARK    9  A    between atoms: C_17  and  C_18
REMARK   10  A    between atoms: C_21  and  C_22
REMARK   11  A    between atoms: C_29  and  O_30
REMARK                            x       y       z     vdW  Elec       q    Type
REMARK                         _______ _______ _______ _____ _____    ______ ____
ROOT
ATOM      1  C   UNL     1       0.718  12.348  19.505  0.00  0.00    +0.000 C 
ATOM      2  C   UNL     1       0.363  12.902  20.902  0.00  0.00    +0.000 C 
ATOM      3  S   UNL     1      -0.727  11.972  21.929  0.00  0.00    +0.000 S 
ATOM      4  O   UNL     1      -0.617  12.573  23.248  0.00  0.00    +0.000 OA
ATOM      5  O   UNL     1      -0.532  10.545  21.777  0.00  0.00    +0.000 OA
ATOM      6  C   UNL     1      -2.361  12.318  21.330  0.00  0.00    +0.000 A 
ATOM      7  C   UNL     1      -3.271  12.763  22.309  0.00  0.00    +0.000 A 
ATOM      8  C   UNL     1      -4.587  13.045  21.981  0.00  0.00    +0.000 A 
ATOM      9  C   UNL     1      -5.011  12.893  20.667  0.00  0.00    +0.000 A 
ATOM     10  C   UNL     1      -6.439  13.182  20.305  0.00  0.00    +0.000 C 
ATOM     11  C   UNL     1      -4.102  12.436  19.692  0.00  0.00    +0.000 A 
ATOM     12  C   UNL     1      -2.750  12.126  19.988  0.00  0.00    +0.000 A 
ATOM     13  C   UNL     1      -1.806  11.556  18.900  0.00  0.00    +0.000 C 
ATOM     14  C   UNL     1      -0.541  12.436  18.561  0.00  0.00    +0.000 C 
ENDROOT
BRANCH  13  15
ATOM     15  C   UNL     1      -2.537  11.132  17.593  0.00  0.00    +0.000 A 
ATOM     16  C   UNL     1      -3.796  11.646  17.216  0.00  0.00    +0.000 A 
ATOM     17  C   UNL     1      -4.439  11.192  16.056  0.00  0.00    +0.000 A 
ATOM     18  C   UNL     1      -3.830  10.228  15.263  0.00  0.00    +0.000 A 
ATOM     19  F   UNL     1      -4.453   9.787  14.159  0.00  0.00    +0.000 F 
ATOM     20  C   UNL     1      -2.591   9.709  15.604  0.00  0.00    +0.000 A 
ATOM     21  C   UNL     1      -1.949  10.154  16.764  0.00  0.00    +0.000 A 
ENDBRANCH  13  15
BRANCH  14  22
ATOM     22  O   UNL     1      -0.907  13.821  18.403  0.00  0.00    +0.000 OA
ATOM     23  H   UNL     1      -0.243  14.287  17.866  0.00  0.00    +0.000 HD
ENDBRANCH  14  22
BRANCH   1  24
ATOM     24  C   UNL     1       1.838  13.346  18.992  0.00  0.00    +0.000 C 
BRANCH  24  25
ATOM     25  C   UNL     1       2.151  14.576  19.854  0.00  0.00    +0.000 C 
BRANCH  25  27
ATOM     26  C   UNL     1       3.009  15.920  17.887  0.00  0.00    +0.000 C 
ATOM     27  C   UNL     1       1.999  15.854  19.020  0.00  0.00    +0.000 C 
ENDBRANCH  25  27
ENDBRANCH  24  25
ENDBRANCH   1  24
BRANCH   1  28
ATOM     28  C   UNL     1       1.333  10.897  19.562  0.00  0.00    +0.000 C 
BRANCH  28  29
ATOM     29  C   UNL     1       1.779  10.360  18.183  0.00  0.00    +0.000 C 
BRANCH  29  30
ATOM     30  C   UNL     1       1.530   8.876  17.912  0.00  0.00    +0.000 C 
ATOM     31  C   UNL     1       2.788   8.028  17.879  0.00  0.00    +0.000 C 
ENDBRANCH  29  30
ENDBRANCH  28  29
ENDBRANCH   1  28
TORSDOF 8
ENDMDL
MODEL 4
REMARK VINA RESULT:      -6.1      2.058      2.880
REMARK  Name = 
REMARK  11 active torsions:
REMARK  status: ('A' for Active; 'I' for Inactive)
REMARK    1  A    between atoms: C_1  and  C_2
REMARK    2  A    between atoms: C_2  and  C_3
REMARK    3  A    between atoms: C_3  and  C_4
REMARK    4  A    between atoms: C_4  and  C_5
REMARK    5  A    between atoms: C_5  and  C_6
REMARK    6  A    between atoms: C_6  and  C_7
REMARK    7  A    between atoms: C_7  and  C_8
REMARK    8  A    between atoms: C_8  and  C_9
REMARK    9  A    between atoms: C_17  and  C_18
REMARK   10  A    between atoms: C_21  and  C_22
REMARK   11  A    between atoms: C_29  and  O_30
REMARK                            x       y       z     vdW  Elec       q    Type
REMARK                         _______ _______ _______ _____ _____    ______ ____
ROOT
ATOM      1  C   UNL     1      -0.771  11.189  19.353  0.00  0.00    +0.000 C 
ATOM      2  C   UNL     1       0.383  12.158  19.015  0.00  0.00    +0.000 C 
ATOM      3  S   UNL     1       1.299  12.877  20.339  0.00  0.00    +0.000 S 
ATOM      4  O   UNL     1       2.472  13.468  19.716  0.00  0.00    +0.000 OA
ATOM      5  O   UNL     1       1.466  11.959  21.446  0.00  0.00    +0.000 OA
ATOM      6  C   UNL     1       0.299  14.211  20.944  0.00  0.00    +0.000 A 
ATOM      7  C   UNL     1       0.950  15.459  21.012  0.00  0.00    +0.000 A 
ATOM      8  C   UNL     1       0.292  16.580  21.490  0.00  0.00    +0.000 A 
ATOM      9  C   UNL     1      -1.031  16.472  21.901  0.00  0.00    +0.000 A 
ATOM     10  C   UNL     1      -1.748  17.678  22.435  0.00  0.00    +0.000 C 
ATOM     11  C   UNL     1      -1.676  15.220  21.844  0.00  0.00    +0.000 A 
ATOM     12  C   UNL     1      -1.035  14.047  21.371  0.00  0.00    +0.000 A 
ATOM     13  C   UNL     1      -1.760  12.678  21.396  0.00  0.00    +0.000 C 
ATOM     14  C   UNL     1      -1.969  11.989  19.991  0.00  0.00    +0.000 C 
ENDROOT
BRANCH  13  15
ATOM     15  C   UNL     1      -3.092  12.685  22.200  0.00  0.00    +0.000 A 
ATOM     16  C   UNL     1      -4.345  12.942  21.605  0.00  0.00    +0.000 A 
ATOM     17  C   UNL     1      -5.511  12.992  22.381  0.00  0.00    +0.000 A 
ATOM     18  C   UNL     1      -5.436  12.781  23.752  0.00  0.00    +0.000 A 
ATOM     19  F   UNL     1      -6.553  12.840  24.494  0.00  0.00    +0.000 F 
ATOM     20  C   UNL     1      -4.220  12.519  24.364  0.00  0.00    +0.000 A 
ATOM     21  C   UNL     1      -3.054  12.476  23.594  0.00  0.00    +0.000 A 
ENDBRANCH  13  15
BRANCH  14  22
ATOM     22  O   UNL     1      -2.462  12.936  19.024  0.00  0.00    +0.000 OA
ATOM     23  H   UNL     1      -3.087  12.504  18.416  0.00  0.00    +0.000 HD
ENDBRANCH  14  22
BRANCH   1  24
ATOM     24  C   UNL     1      -1.202  10.627  17.934  0.00  0.00    +0.000 C 
BRANCH  24  25
ATOM     25  C   UNL     1      -2.500   9.814  17.850  0.00  0.00    +0.000 C 
BRANCH  25  27
ATOM     26  C   UNL     1      -2.869  10.057  15.357  0.00  0.00    +0.000 C 
ATOM     27  C   UNL     1      -3.401  10.377  16.744  0.00  0.00    +0.000 C 
ENDBRANCH  25  27
ENDBRANCH  24  25
ENDBRANCH   1  24
BRANCH   1  28
ATOM     28  C   UNL     1      -0.306   9.976  20.248  0.00  0.00    +0.000 C 
BRANCH  28  29
ATOM     29  C   UNL     1       0.894   9.199  19.661  0.00  0.00    +0.000 C 
BRANCH  29  30
ATOM     30  C   UNL     1       1.511   8.118  20.549  0.00  0.00    +0.000 C 
ATOM     31  C   UNL     1       2.266   7.043  19.790  0.00  0.00    +0.000 C 
ENDBRANCH  29  30
ENDBRANCH  28  29
ENDBRANCH   1  28
TORSDOF 8
ENDMDL
MODEL 5
REMARK VINA RESULT:      -6.1      2.856      5.148
REMARK  Name = 
REMARK  11 active torsions:
REMARK  status: ('A' for Active; 'I' for Inactive)
REMARK    1  A    between atoms: C_1  and  C_2
REMARK    2  A    between atoms: C_2  and  C_3
REMARK    3  A    between atoms: C_3  and  C_4
REMARK    4  A    between atoms: C_4  and  C_5
REMARK    5  A    between atoms: C_5  and  C_6
REMARK    6  A    between atoms: C_6  and  C_7
REMARK    7  A    between atoms: C_7  and  C_8
REMARK    8  A    between atoms: C_8  and  C_9
REMARK    9  A    between atoms: C_17  and  C_18
REMARK   10  A    between atoms: C_21  and  C_22
REMARK   11  A    between atoms: C_29  and  O_30
REMARK                            x       y       z     vdW  Elec       q    Type
REMARK                         _______ _______ _______ _____ _____    ______ ____
ROOT
ATOM      1  C   UNL     1       0.462  12.778  20.048  0.00  0.00    +0.000 C 
ATOM      2  C   UNL     1      -0.036  13.382  21.378  0.00  0.00    +0.000 C 
ATOM      3  S   UNL     1      -1.116  12.425  22.392  0.00  0.00    +0.000 S 
ATOM      4  O   UNL     1      -1.149  13.113  23.672  0.00  0.00    +0.000 OA
ATOM      5  O   UNL     1      -0.793  11.014  22.348  0.00  0.00    +0.000 OA
ATOM      6  C   UNL     1      -2.726  12.591  21.666  0.00  0.00    +0.000 A 
ATOM      7  C   UNL     1      -3.736  13.014  22.551  0.00  0.00    +0.000 A 
ATOM      8  C   UNL     1      -5.044  13.161  22.120  0.00  0.00    +0.000 A 
ATOM      9  C   UNL     1      -5.361  12.893  20.794  0.00  0.00    +0.000 A 
ATOM     10  C   UNL     1      -6.779  13.035  20.321  0.00  0.00    +0.000 C 
ATOM     11  C   UNL     1      -4.350  12.458  19.914  0.00  0.00    +0.000 A 
ATOM     12  C   UNL     1      -3.002  12.286  20.316  0.00  0.00    +0.000 A 
ATOM     13  C   UNL     1      -1.940  11.734  19.333  0.00  0.00    +0.000 C 
ATOM     14  C   UNL     1      -0.730  12.698  19.020  0.00  0.00    +0.000 C 
ENDROOT
BRANCH  13  15
ATOM     15  C   UNL     1      -2.539  11.170  18.012  0.00  0.00    +0.000 A 
ATOM     16  C   UNL     1      -1.905  10.166  17.250  0.00  0.00    +0.000 A 
ATOM     17  C   UNL     1      -2.457   9.728  16.038  0.00  0.00    +0.000 A 
ATOM     18  C   UNL     1      -3.645  10.284  15.582  0.00  0.00    +0.000 A 
ATOM     19  F   UNL     1      -4.166   9.871  14.415  0.00  0.00    +0.000 F 
ATOM     20  C   UNL     1      -4.295  11.267  16.312  0.00  0.00    +0.000 A 
ATOM     21  C   UNL     1      -3.743  11.712  17.518  0.00  0.00    +0.000 A 
ENDBRANCH  13  15
BRANCH  14  22
ATOM     22  O   UNL     1      -1.197  14.034  18.747  0.00  0.00    +0.000 OA
ATOM     23  H   UNL     1      -0.495  14.558  18.324  0.00  0.00    +0.000 HD
ENDBRANCH  14  22
BRANCH   1  24
ATOM     24  C   UNL     1       1.529  13.836  19.543  0.00  0.00    +0.000 C 
BRANCH  24  25
ATOM     25  C   UNL     1       2.260  13.545  18.227  0.00  0.00    +0.000 C 
BRANCH  25  27
ATOM     26  C   UNL     1       3.527  15.594  17.448  0.00  0.00    +0.000 C 
ATOM     27  C   UNL     1       3.608  14.277  18.201  0.00  0.00    +0.000 C 
ENDBRANCH  25  27
ENDBRANCH  24  25
ENDBRANCH   1  24
BRANCH   1  28
ATOM     28  C   UNL     1       1.188  11.391  20.241  0.00  0.00    +0.000 C 
BRANCH  28  29
ATOM     29  C   UNL     1       0.778  10.328  19.197  0.00  0.00    +0.000 C 
BRANCH  29  30
ATOM     30  C   UNL     1       1.799  10.010  18.105  0.00  0.00    +0.000 C 
ATOM     31  C   UNL     1       1.951   8.530  17.804  0.00  0.00    +0.000 C 
ENDBRANCH  29  30
ENDBRANCH  28  29
ENDBRANCH   1  28
TORSDOF 8
ENDMDL
MODEL 6
REMARK VINA RESULT:      -5.9      2.077      2.919
REMARK  Name = 
REMARK  11 active torsions:
REMARK  status: ('A' for Active; 'I' for Inactive)
REMARK    1  A    between atoms: C_1  and  C_2
REMARK    2  A    between atoms: C_2  and  C_3
REMARK    3  A    between atoms: C_3  and  C_4
REMARK    4  A    between atoms: C_4  and  C_5
REMARK    5  A    between atoms: C_5  and  C_6
REMARK    6  A    between atoms: C_6  and  C_7
REMARK    7  A    between atoms: C_7  and  C_8
REMARK    8  A    between atoms: C_8  and  C_9
REMARK    9  A    between atoms: C_17  and  C_18
REMARK   10  A    between atoms: C_21  and  C_22
REMARK   11  A    between atoms: C_29  and  O_30
REMARK                            x       y       z     vdW  Elec       q    Type
REMARK                         _______ _______ _______ _____ _____    ______ ____
ROOT
ATOM      1  C   UNL     1      -0.885  11.309  19.319  0.00  0.00    +0.000 C 
ATOM      2  C   UNL     1       0.265  12.270  18.953  0.00  0.00    +0.000 C 
ATOM      3  S   UNL     1       1.250  12.946  20.249  0.00  0.00    +0.000 S 
ATOM      4  O   UNL     1       2.403  13.536  19.588  0.00  0.00    +0.000 OA
ATOM      5  O   UNL     1       1.454  12.000  21.326  0.00  0.00    +0.000 OA
ATOM      6  C   UNL     1       0.297  14.279  20.930  0.00  0.00    +0.000 A 
ATOM      7  C   UNL     1       0.968  15.516  20.996  0.00  0.00    +0.000 A 
ATOM      8  C   UNL     1       0.348  16.634  21.529  0.00  0.00    +0.000 A 
ATOM      9  C   UNL     1      -0.957  16.534  21.996  0.00  0.00    +0.000 A 
ATOM     10  C   UNL     1      -1.632  17.737  22.589  0.00  0.00    +0.000 C 
ATOM     11  C   UNL     1      -1.621  15.293  21.940  0.00  0.00    +0.000 A 
ATOM     12  C   UNL     1      -1.019  14.122  21.412  0.00  0.00    +0.000 A 
ATOM     13  C   UNL     1      -1.761  12.762  21.438  0.00  0.00    +0.000 C 
ATOM     14  C   UNL     1      -2.043  12.109  20.029  0.00  0.00    +0.000 C 
ENDROOT
BRANCH  13  15
ATOM     15  C   UNL     1      -3.056  12.769  22.301  0.00  0.00    +0.000 A 
ATOM     16  C   UNL     1      -3.054  12.512  23.688  0.00  0.00    +0.000 A 
ATOM     17  C   UNL     1      -4.253  12.475  24.413  0.00  0.00    +0.000 A 
ATOM     18  C   UNL     1      -5.460  12.699  23.761  0.00  0.00    +0.000 A 
ATOM     19  F   UNL     1      -6.607  12.652  24.456  0.00  0.00    +0.000 F 
ATOM     20  C   UNL     1      -5.493  12.961  22.400  0.00  0.00    +0.000 A 
ATOM     21  C   UNL     1      -4.299  12.991  21.672  0.00  0.00    +0.000 A 
ENDBRANCH  13  15
BRANCH  14  22
ATOM     22  O   UNL     1      -2.565  13.085  19.106  0.00  0.00    +0.000 OA
ATOM     23  H   UNL     1      -2.057  13.912  19.165  0.00  0.00    +0.000 HD
ENDBRANCH  14  22
BRANCH   1  24
ATOM     24  C   UNL     1      -1.387  10.786  17.909  0.00  0.00    +0.000 C 
BRANCH  24  25
ATOM     25  C   UNL     1      -2.642   9.904  17.877  0.00  0.00    +0.000 C 
BRANCH  25  27
ATOM     26  C   UNL     1      -2.809  10.283  15.379  0.00  0.00    +0.000 C 
ATOM     27  C   UNL     1      -3.545  10.318  16.708  0.00  0.00    +0.000 C 
ENDBRANCH  25  27
ENDBRANCH  24  25
ENDBRANCH   1  24
BRANCH   1  28
ATOM     28  C   UNL     1      -0.399  10.070  20.165  0.00  0.00    +0.000 C 
BRANCH  28  29
ATOM     29  C   UNL     1       0.745   9.274  19.494  0.00  0.00    +0.000 C 
BRANCH  29  30
ATOM     30  C   UNL     1       1.532   8.318  20.390  0.00  0.00    +0.000 C 
ATOM     31  C   UNL     1       1.351   8.565  21.877  0.00  0.00    +0.000 C 
ENDBRANCH  29  30
ENDBRANCH  28  29
ENDBRANCH   1  28
TORSDOF 8
ENDMDL
MODEL 7
REMARK VINA RESULT:      -5.8      1.755      2.403
REMARK  Name = 
REMARK  11 active torsions:
REMARK  status: ('A' for Active; 'I' for Inactive)
REMARK    1  A    between atoms: C_1  and  C_2
REMARK    2  A    between atoms: C_2  and  C_3
REMARK    3  A    between atoms: C_3  and  C_4
REMARK    4  A    between atoms: C_4  and  C_5
REMARK    5  A    between atoms: C_5  and  C_6
REMARK    6  A    between atoms: C_6  and  C_7
REMARK    7  A    between atoms: C_7  and  C_8
REMARK    8  A    between atoms: C_8  and  C_9
REMARK    9  A    between atoms: C_17  and  C_18
REMARK   10  A    between atoms: C_21  and  C_22
REMARK   11  A    between atoms: C_29  and  O_30
REMARK                            x       y       z     vdW  Elec       q    Type
REMARK                         _______ _______ _______ _____ _____    ______ ____
ROOT
ATOM      1  C   UNL     1      -0.315  11.469  19.508  0.00  0.00    +0.000 C 
ATOM      2  C   UNL     1       0.554  12.594  18.906  0.00  0.00    +0.000 C 
ATOM      3  S   UNL     1       1.255  13.794  19.991  0.00  0.00    +0.000 S 
ATOM      4  O   UNL     1       2.241  14.504  19.192  0.00  0.00    +0.000 OA
ATOM      5  O   UNL     1       1.648  13.217  21.259  0.00  0.00    +0.000 OA
ATOM      6  C   UNL     1      -0.052  14.939  20.348  0.00  0.00    +0.000 A 
ATOM      7  C   UNL     1       0.260  16.291  20.109  0.00  0.00    +0.000 A 
ATOM      8  C   UNL     1      -0.662  17.291  20.369  0.00  0.00    +0.000 A 
ATOM      9  C   UNL     1      -1.915  16.953  20.865  0.00  0.00    +0.000 A 
ATOM     10  C   UNL     1      -2.917  18.031  21.164  0.00  0.00    +0.000 C 
ATOM     11  C   UNL     1      -2.221  15.600  21.115  0.00  0.00    +0.000 A 
ATOM     12  C   UNL     1      -1.302  14.547  20.872  0.00  0.00    +0.000 A 
ATOM     13  C   UNL     1      -1.655  13.082  21.232  0.00  0.00    +0.000 C 
ATOM     14  C   UNL     1      -1.679  12.068  20.023  0.00  0.00    +0.000 C 
ENDROOT
BRANCH  13  15
ATOM     15  C   UNL     1      -2.947  12.938  22.087  0.00  0.00    +0.000 A 
ATOM     16  C   UNL     1      -4.242  12.950  21.527  0.00  0.00    +0.000 A 
ATOM     17  C   UNL     1      -5.378  12.872  22.345  0.00  0.00    +0.000 A 
ATOM     18  C   UNL     1      -5.230  12.775  23.723  0.00  0.00    +0.000 A 
ATOM     19  F   UNL     1      -6.320  12.711  24.504  0.00  0.00    +0.000 F 
ATOM     20  C   UNL     1      -3.970  12.754  24.301  0.00  0.00    +0.000 A 
ATOM     21  C   UNL     1      -2.835  12.839  23.489  0.00  0.00    +0.000 A 
ENDBRANCH  13  15
BRANCH  14  22
ATOM     22  O   UNL     1      -2.395  12.623  18.902  0.00  0.00    +0.000 OA
ATOM     23  H   UNL     1      -3.338  12.721  19.118  0.00  0.00    +0.000 HD
ENDBRANCH  14  22
BRANCH   1  24
ATOM     24  C   UNL     1      -0.587  10.517  18.270  0.00  0.00    +0.000 C 
BRANCH  24  25
ATOM     25  C   UNL     1      -2.024  10.032  18.040  0.00  0.00    +0.000 C 
BRANCH  25  27
ATOM     26  C   UNL     1      -3.623  10.676  16.186  0.00  0.00    +0.000 C 
ATOM     27  C   UNL     1      -2.324   9.971  16.537  0.00  0.00    +0.000 C 
ENDBRANCH  25  27
ENDBRANCH  24  25
ENDBRANCH   1  24
BRANCH   1  28
ATOM     28  C   UNL     1       0.440  10.641  20.617  0.00  0.00    +0.000 C 
BRANCH  28  29
ATOM     29  C   UNL     1      -0.127   9.217  20.819  0.00  0.00    +0.000 C 
BRANCH  29  30
ATOM     30  C   UNL     1      -0.535   8.837  22.243  0.00  0.00    +0.000 C 
ATOM     31  C   UNL     1      -0.501   9.989  23.230  0.00  0.00    +0.000 C 
ENDBRANCH  29  30
ENDBRANCH  28  29
ENDBRANCH   1  28
TORSDOF 8
ENDMDL
MODEL 8
REMARK VINA RESULT:      -5.8      2.759      5.031
REMARK  Name = 
REMARK  11 active torsions:
REMARK  status: ('A' for Active; 'I' for Inactive)
REMARK    1  A    between atoms: C_1  and  C_2
REMARK    2  A    between atoms: C_2  and  C_3
REMARK    3  A    between atoms: C_3  and  C_4
REMARK    4  A    between atoms: C_4  and  C_5
REMARK    5  A    between atoms: C_5  and  C_6
REMARK    6  A    between atoms: C_6  and  C_7
REMARK    7  A    between atoms: C_7  and  C_8
REMARK    8  A    between atoms: C_8  and  C_9
REMARK    9  A    between atoms: C_17  and  C_18
REMARK   10  A    between atoms: C_21  and  C_22
REMARK   11  A    between atoms: C_29  and  O_30
REMARK                            x       y       z     vdW  Elec       q    Type
REMARK                         _______ _______ _______ _____ _____    ______ ____
ROOT
ATOM      1  C   UNL     1       0.764  13.242  19.676  0.00  0.00    +0.000 C 
ATOM      2  C   UNL     1       0.384  13.743  21.086  0.00  0.00    +0.000 C 
ATOM      3  S   UNL     1      -0.460  12.645  22.176  0.00  0.00    +0.000 S 
ATOM      4  O   UNL     1      -0.395  13.277  23.483  0.00  0.00    +0.000 OA
ATOM      5  O   UNL     1      -0.010  11.277  22.024  0.00  0.00    +0.000 OA
ATOM      6  C   UNL     1      -2.158  12.671  21.664  0.00  0.00    +0.000 A 
ATOM      7  C   UNL     1      -3.083  12.956  22.687  0.00  0.00    +0.000 A 
ATOM      8  C   UNL     1      -4.443  12.984  22.428  0.00  0.00    +0.000 A 
ATOM      9  C   UNL     1      -4.899  12.734  21.140  0.00  0.00    +0.000 A 
ATOM     10  C   UNL     1      -6.373  12.748  20.853  0.00  0.00    +0.000 C 
ATOM     11  C   UNL     1      -3.972  12.437  20.121  0.00  0.00    +0.000 A 
ATOM     12  C   UNL     1      -2.573  12.389  20.345  0.00  0.00    +0.000 A 
ATOM     13  C   UNL     1      -1.597  11.985  19.212  0.00  0.00    +0.000 C 
ATOM     14  C   UNL     1      -0.537  13.079  18.800  0.00  0.00    +0.000 C 
ENDROOT
BRANCH  13  15
ATOM     15  C   UNL     1      -2.302  11.411  17.949  0.00  0.00    +0.000 A 
ATOM     16  C   UNL     1      -3.578  11.837  17.523  0.00  0.00    +0.000 A 
ATOM     17  C   UNL     1      -4.196  11.251  16.410  0.00  0.00    +0.000 A 
ATOM     18  C   UNL     1      -3.544  10.241  15.712  0.00  0.00    +0.000 A 
ATOM     19  F   UNL     1      -4.143   9.675  14.653  0.00  0.00    +0.000 F 
ATOM     20  C   UNL     1      -2.287   9.807  16.103  0.00  0.00    +0.000 A 
ATOM     21  C   UNL     1      -1.671  10.384  17.218  0.00  0.00    +0.000 A 
ENDBRANCH  13  15
BRANCH  14  22
ATOM     22  O   UNL     1      -1.161  14.369  18.653  0.00  0.00    +0.000 OA
ATOM     23  H   UNL     1      -0.606  14.954  18.109  0.00  0.00    +0.000 HD
ENDBRANCH  14  22
BRANCH   1  24
ATOM     24  C   UNL     1       1.650  14.422  19.096  0.00  0.00    +0.000 C 
BRANCH  24  25
ATOM     25  C   UNL     1       3.176  14.278  19.176  0.00  0.00    +0.000 C 
BRANCH  25  27
ATOM     26  C   UNL     1       5.342  14.791  17.971  0.00  0.00    +0.000 C 
ATOM     27  C   UNL     1       3.830  14.934  17.954  0.00  0.00    +0.000 C 
ENDBRANCH  25  27
ENDBRANCH  24  25
ENDBRANCH   1  24
BRANCH   1  28
ATOM     28  C   UNL     1       1.640  11.931  19.710  0.00  0.00    +0.000 C 
BRANCH  28  29
ATOM     29  C   UNL     1       1.743  11.221  18.340  0.00  0.00    +0.000 C 
BRANCH  29  30
ATOM     30  C   UNL     1       1.800   9.694  18.362  0.00  0.00    +0.000 C 
ATOM     31  C   UNL     1       1.114   9.061  19.560  0.00  0.00    +0.000 C 
ENDBRANCH  29  30
ENDBRANCH  28  29
ENDBRANCH   1  28
TORSDOF 8
ENDMDL
MODEL 9
REMARK VINA RESULT:      -5.8      3.236      6.678
REMARK  Name = 
REMARK  11 active torsions:
REMARK  status: ('A' for Active; 'I' for Inactive)
REMARK    1  A    between atoms: C_1  and  C_2
REMARK    2  A    between atoms: C_2  and  C_3
REMARK    3  A    between atoms: C_3  and  C_4
REMARK    4  A    between atoms: C_4  and  C_5
REMARK    5  A    between atoms: C_5  and  C_6
REMARK    6  A    between atoms: C_6  and  C_7
REMARK    7  A    between atoms: C_7  and  C_8
REMARK    8  A    between atoms: C_8  and  C_9
REMARK    9  A    between atoms: C_17  and  C_18
REMARK   10  A    between atoms: C_21  and  C_22
REMARK   11  A    between atoms: C_29  and  O_30
REMARK                            x       y       z     vdW  Elec       q    Type
REMARK                         _______ _______ _______ _____ _____    ______ ____
ROOT
ATOM      1  C   UNL     1      -1.141  13.736  21.322  0.00  0.00    +0.000 C 
ATOM      2  C   UNL     1      -2.479  14.223  20.723  0.00  0.00    +0.000 C 
ATOM      3  S   UNL     1      -3.825  13.088  20.623  0.00  0.00    +0.000 S 
ATOM      4  O   UNL     1      -4.991  13.902  20.323  0.00  0.00    +0.000 OA
ATOM      5  O   UNL     1      -3.859  12.184  21.754  0.00  0.00    +0.000 OA
ATOM      6  C   UNL     1      -3.502  12.088  19.194  0.00  0.00    +0.000 A 
ATOM      7  C   UNL     1      -4.556  12.025  18.262  0.00  0.00    +0.000 A 
ATOM      8  C   UNL     1      -4.445  11.260  17.113  0.00  0.00    +0.000 A 
ATOM      9  C   UNL     1      -3.275  10.550  16.875  0.00  0.00    +0.000 A 
ATOM     10  C   UNL     1      -3.151   9.705  15.640  0.00  0.00    +0.000 C 
ATOM     11  C   UNL     1      -2.227  10.604  17.816  0.00  0.00    +0.000 A 
ATOM     12  C   UNL     1      -2.303  11.367  19.008  0.00  0.00    +0.000 A 
ATOM     13  C   UNL     1      -1.156  11.339  20.049  0.00  0.00    +0.000 C 
ATOM     14  C   UNL     1      -0.452  12.723  20.330  0.00  0.00    +0.000 C 
ENDROOT
BRANCH  13  15
ATOM     15  C   UNL     1      -0.092  10.234  19.782  0.00  0.00    +0.000 A 
ATOM     16  C   UNL     1       0.304   9.299  20.760  0.00  0.00    +0.000 A 
ATOM     17  C   UNL     1       1.306   8.357  20.489  0.00  0.00    +0.000 A 
ATOM     18  C   UNL     1       1.915   8.339  19.240  0.00  0.00    +0.000 A 
ATOM     19  F   UNL     1       2.881   7.443  18.987  0.00  0.00    +0.000 F 
ATOM     20  C   UNL     1       1.541   9.240  18.256  0.00  0.00    +0.000 A 
ATOM     21  C   UNL     1       0.547  10.186  18.526  0.00  0.00    +0.000 A 
ENDBRANCH  13  15
BRANCH  14  22
ATOM     22  O   UNL     1      -0.157  13.408  19.098  0.00  0.00    +0.000 OA
ATOM     23  H   UNL     1      -0.709  13.061  18.377  0.00  0.00    +0.000 HD
ENDBRANCH  14  22
BRANCH   1  24
ATOM     24  C   UNL     1      -0.278  15.063  21.412  0.00  0.00    +0.000 C 
BRANCH  24  25
ATOM     25  C   UNL     1      -0.931  16.374  20.957  0.00  0.00    +0.000 C 
BRANCH  25  27
ATOM     26  C   UNL     1      -0.664  16.850  18.484  0.00  0.00    +0.000 C 
ATOM     27  C   UNL     1      -0.074  17.038  19.871  0.00  0.00    +0.000 C 
ENDBRANCH  25  27
ENDBRANCH  24  25
ENDBRANCH   1  24
BRANCH   1  28
ATOM     28  C   UNL     1      -1.302  13.147  22.776  0.00  0.00    +0.000 C 
BRANCH  28  29
ATOM     29  C   UNL     1      -1.550  14.225  23.856  0.00  0.00    +0.000 C 
BRANCH  29  30
ATOM     30  C   UNL     1      -2.965  14.306  24.430  0.00  0.00    +0.000 C 
ATOM     31  C   UNL     1      -3.756  15.517  23.969  0.00  0.00    +0.000 C 
ENDBRANCH  29  30
ENDBRANCH  28  29
ENDBRANCH   1  28
TORSDOF 8
ENDMDL
