MODEL 1
REMARK VINA RESULT:      -8.1      0.000      0.000
REMARK  Name = 
REMARK  16 active torsions:
REMARK  status: ('A' for Active; 'I' for Inactive)
REMARK    1  A    between atoms: C_1  and  C_2
REMARK    2  A    between atoms: C_2  and  C_3
REMARK    3  A    between atoms: C_3  and  C_4
REMARK    4  A    between atoms: C_4  and  N_5
REMARK    5  A    between atoms: N_5  and  C_6
REMARK    6  A    between atoms: C_6  and  C_7
REMARK    7  A    between atoms: C_7  and  O_9
REMARK    8  A    between atoms: C_10  and  C_12
REMARK    9  A    between atoms: C_12  and  C_13
REMARK   10  A    between atoms: C_12  and  N_20
REMARK   11  A    between atoms: C_13  and  C_14
REMARK   12  A    between atoms: C_14  and  C_15
REMARK   13  A    between atoms: C_15  and  N_16
REMARK   14  A    between atoms: N_20  and  S_21
REMARK   15  A    between atoms: S_21  and  C_24
REMARK   16  A    between atoms: C_30  and  C_31
REMARK                            x       y       z     vdW  Elec       q    Type
REMARK                         _______ _______ _______ _____ _____    ______ ____
ROOT
ATOM      1  C   UNL     1       2.897   6.246  19.760  0.00  0.00    +0.000 C 
ENDROOT
BRANCH   1   3
ATOM      2  N   UNL     1       1.612   8.532  19.725  0.00  0.00    +0.000 N 
ATOM      3  C   UNL     1       2.367   7.551  19.036  0.00  0.00    +0.000 C 
ATOM      4  O   UNL     1       2.677   7.717  17.843  0.00  0.00    +0.000 OA
BRANCH   2   5
ATOM      5  C   UNL     1       1.087   9.661  18.928  0.00  0.00    +0.000 C 
BRANCH   5   6
ATOM      6  C   UNL     1      -0.350  10.091  19.250  0.00  0.00    +0.000 C 
BRANCH   6   8
ATOM      7  C   UNL     1      -0.769  12.464  18.432  0.00  0.00    +0.000 C 
ATOM      8  C   UNL     1      -1.022  10.984  18.209  0.00  0.00    +0.000 C 
ENDBRANCH   6   8
ENDBRANCH   5   6
ENDBRANCH   2   5
BRANCH   2   9
ATOM      9  C   UNL     1       1.144   8.331  21.108  0.00  0.00    +0.000 C 
BRANCH   9  10
ATOM     10  C   UNL     1       1.332   9.213  22.353  0.00  0.00    +0.000 C 
ATOM     11  O   UNL     1       0.456   9.973  22.751  0.00  0.00    +0.000 OA
BRANCH  10  12
ATOM     12  O   UNL     1       2.579   9.273  22.866  0.00  0.00    +0.000 OA
ATOM     13  H   UNL     1       3.171   9.927  22.459  0.00  0.00    +0.000 HD
ENDBRANCH  10  12
ENDBRANCH   9  10
ENDBRANCH   2   9
ENDBRANCH   1   3
BRANCH   1  14
ATOM     14  N   UNL     1       3.649   5.464  18.746  0.00  0.00    +0.000 NA
ATOM     15  H   UNL     1       3.306   5.541  17.783  0.00  0.00    +0.000 HD
BRANCH  14  16
ATOM     16  S   UNL     1       5.159   4.781  18.940  0.00  0.00    +0.000 S 
ATOM     17  O   UNL     1       5.996   5.600  19.785  0.00  0.00    +0.000 OA
ATOM     18  O   UNL     1       4.940   3.381  19.248  0.00  0.00    +0.000 OA
BRANCH  16  19
ATOM     19  C   UNL     1       5.804   4.870  17.309  0.00  0.00    +0.000 A 
ATOM     20  C   UNL     1       6.930   5.661  17.088  0.00  0.00    +0.000 A 
ATOM     21  C   UNL     1       7.486   5.708  15.817  0.00  0.00    +0.000 A 
ATOM     22  C   UNL     1       6.909   4.975  14.767  0.00  0.00    +0.000 A 
ATOM     23  C   UNL     1       7.479   4.990  13.489  0.00  0.00    +0.000 A 
ATOM     24  C   UNL     1       6.906   4.258  12.447  0.00  0.00    +0.000 A 
ATOM     25  C   UNL     1       5.743   3.513  12.658  0.00  0.00    +0.000 A 
ATOM     26  C   UNL     1       5.114   2.725  11.551  0.00  0.00    +0.000 C 
ATOM     27  C   UNL     1       5.162   3.498  13.931  0.00  0.00    +0.000 A 
ATOM     28  C   UNL     1       5.740   4.213  14.991  0.00  0.00    +0.000 A 
ATOM     29  C   UNL     1       5.184   4.174  16.272  0.00  0.00    +0.000 A 
ENDBRANCH  16  19
ENDBRANCH  14  16
ENDBRANCH   1  14
BRANCH   1  30
ATOM     30  C   UNL     1       1.785   5.379  20.363  0.00  0.00    +0.000 C 
BRANCH  30  31
ATOM     31  C   UNL     1       2.199   4.339  21.412  0.00  0.00    +0.000 C 
BRANCH  31  32
ATOM     32  C   UNL     1       1.590   2.940  21.285  0.00  0.00    +0.000 C 
BRANCH  32  33
ATOM     33  N   UNL     1       2.376   2.202  20.298  0.00  0.00    +0.000 NA
ATOM     34  C   UNL     1       1.864   2.046  19.131  0.00  0.00    +0.000 C 
ATOM     35  N   UNL     1       0.688   2.487  18.638  0.00  0.00    +0.000 N 
ATOM     36  N   UNL     1       2.582   1.383  18.201  0.00  0.00    +0.000 N 
ATOM     37  H   UNL     1       0.027   2.891  19.291  0.00  0.00    +0.000 HD
ATOM     38  H   UNL     1       0.258   1.971  17.885  0.00  0.00    +0.000 HD
ATOM     39  H   UNL     1       3.383   0.937  18.633  0.00  0.00    +0.000 HD
ATOM     40  H   UNL     1       2.069   0.762  17.597  0.00  0.00    +0.000 HD
ENDBRANCH  32  33
ENDBRANCH  31  32
ENDBRANCH  30  31
ENDBRANCH   1  30
TORSDOF 14
ENDMDL
MODEL 2
REMARK VINA RESULT:      -7.9      2.572      8.472
REMARK  Name = 
REMARK  16 active torsions:
REMARK  status: ('A' for Active; 'I' for Inactive)
REMARK    1  A    between atoms: C_1  and  C_2
REMARK    2  A    between atoms: C_2  and  C_3
REMARK    3  A    between atoms: C_3  and  C_4
REMARK    4  A    between atoms: C_4  and  N_5
REMARK    5  A    between atoms: N_5  and  C_6
REMARK    6  A    between atoms: C_6  and  C_7
REMARK    7  A    between atoms: C_7  and  O_9
REMARK    8  A    between atoms: C_10  and  C_12
REMARK    9  A    between atoms: C_12  and  C_13
REMARK   10  A    between atoms: C_12  and  N_20
REMARK   11  A    between atoms: C_13  and  C_14
REMARK   12  A    between atoms: C_14  and  C_15
REMARK   13  A    between atoms: C_15  and  N_16
REMARK   14  A    between atoms: N_20  and  S_21
REMARK   15  A    between atoms: S_21  and  C_24
REMARK   16  A    between atoms: C_30  and  C_31
REMARK                            x       y       z     vdW  Elec       q    Type
REMARK                         _______ _______ _______ _____ _____    ______ ____
ROOT
ATOM      1  C   UNL     1       2.549   5.595  17.785  0.00  0.00    +0.000 C 
ENDROOT
BRANCH   1   3
ATOM      2  N   UNL     1       5.105   5.015  17.870  0.00  0.00    +0.000 N 
ATOM      3  C   UNL     1       3.903   5.313  18.557  0.00  0.00    +0.000 C 
ATOM      4  O   UNL     1       3.892   5.411  19.796  0.00  0.00    +0.000 OA
BRANCH   2   5
ATOM      5  C   UNL     1       6.285   4.675  18.693  0.00  0.00    +0.000 C 
BRANCH   5   6
ATOM      6  C   UNL     1       7.631   5.200  18.175  0.00  0.00    +0.000 C 
BRANCH   6   8
ATOM      7  C   UNL     1       7.626   7.675  17.583  0.00  0.00    +0.000 C 
ATOM      8  C   UNL     1       7.998   6.618  18.608  0.00  0.00    +0.000 C 
ENDBRANCH   6   8
ENDBRANCH   5   6
ENDBRANCH   2   5
BRANCH   2   9
ATOM      9  C   UNL     1       5.141   4.799  16.412  0.00  0.00    +0.000 C 
BRANCH   9  10
ATOM     10  C   UNL     1       5.657   5.714  15.290  0.00  0.00    +0.000 C 
ATOM     11  O   UNL     1       6.626   5.415  14.600  0.00  0.00    +0.000 OA
BRANCH  10  12
ATOM     12  O   UNL     1       5.131   6.955  15.235  0.00  0.00    +0.000 OA
ATOM     13  H   UNL     1       4.294   7.037  14.749  0.00  0.00    +0.000 HD
ENDBRANCH  10  12
ENDBRANCH   9  10
ENDBRANCH   2   9
ENDBRANCH   1   3
BRANCH   1  14
ATOM     14  N   UNL     1       1.835   6.659  18.537  0.00  0.00    +0.000 NA
ATOM     15  H   UNL     1       1.356   6.352  19.390  0.00  0.00    +0.000 HD
BRANCH  14  16
ATOM     16  S   UNL     1       2.022   8.305  18.344  0.00  0.00    +0.000 S 
ATOM     17  O   UNL     1       3.408   8.690  18.469  0.00  0.00    +0.000 OA
ATOM     18  O   UNL     1       1.253   8.671  17.170  0.00  0.00    +0.000 OA
BRANCH  16  19
ATOM     19  C   UNL     1       1.172   8.927  19.750  0.00  0.00    +0.000 A 
ATOM     20  C   UNL     1       1.409   8.325  20.984  0.00  0.00    +0.000 A 
ATOM     21  C   UNL     1       0.787   8.831  22.116  0.00  0.00    +0.000 A 
ATOM     22  C   UNL     1      -0.082   9.929  22.013  0.00  0.00    +0.000 A 
ATOM     23  C   UNL     1      -0.691  10.467  23.152  0.00  0.00    +0.000 A 
ATOM     24  C   UNL     1      -1.552  11.563  23.047  0.00  0.00    +0.000 A 
ATOM     25  C   UNL     1      -1.833  12.128  21.800  0.00  0.00    +0.000 A 
ATOM     26  C   UNL     1      -2.756  13.300  21.670  0.00  0.00    +0.000 C 
ATOM     27  C   UNL     1      -1.234  11.591  20.655  0.00  0.00    +0.000 A 
ATOM     28  C   UNL     1      -0.352  10.504  20.750  0.00  0.00    +0.000 A 
ATOM     29  C   UNL     1       0.275   9.987  19.615  0.00  0.00    +0.000 A 
ENDBRANCH  16  19
ENDBRANCH  14  16
ENDBRANCH   1  14
BRANCH   1  30
ATOM     30  C   UNL     1       1.648   4.362  17.647  0.00  0.00    +0.000 C 
BRANCH  30  31
ATOM     31  C   UNL     1       2.332   3.026  17.332  0.00  0.00    +0.000 C 
BRANCH  31  32
ATOM     32  C   UNL     1       2.215   1.918  18.381  0.00  0.00    +0.000 C 
BRANCH  32  33
ATOM     33  N   UNL     1       3.569   1.513  18.754  0.00  0.00    +0.000 NA
ATOM     34  C   UNL     1       4.007   1.895  19.898  0.00  0.00    +0.000 C 
ATOM     35  N   UNL     1       3.393   2.613  20.862  0.00  0.00    +0.000 N 
ATOM     36  N   UNL     1       5.247   1.517  20.267  0.00  0.00    +0.000 N 
ATOM     37  H   UNL     1       2.504   3.044  20.632  0.00  0.00    +0.000 HD
ATOM     38  H   UNL     1       3.962   3.158  21.493  0.00  0.00    +0.000 HD
ATOM     39  H   UNL     1       5.737   1.113  19.478  0.00  0.00    +0.000 HD
ATOM     40  H   UNL     1       5.798   2.202  20.758  0.00  0.00    +0.000 HD
ENDBRANCH  32  33
ENDBRANCH  31  32
ENDBRANCH  30  31
ENDBRANCH   1  30
TORSDOF 14
ENDMDL
MODEL 3
REMARK VINA RESULT:      -7.8      0.830      1.027
REMARK  Name = 
REMARK  16 active torsions:
REMARK  status: ('A' for Active; 'I' for Inactive)
REMARK    1  A    between atoms: C_1  and  C_2
REMARK    2  A    between atoms: C_2  and  C_3
REMARK    3  A    between atoms: C_3  and  C_4
REMARK    4  A    between atoms: C_4  and  N_5
REMARK    5  A    between atoms: N_5  and  C_6
REMARK    6  A    between atoms: C_6  and  C_7
REMARK    7  A    between atoms: C_7  and  O_9
REMARK    8  A    between atoms: C_10  and  C_12
REMARK    9  A    between atoms: C_12  and  C_13
REMARK   10  A    between atoms: C_12  and  N_20
REMARK   11  A    between atoms: C_13  and  C_14
REMARK   12  A    between atoms: C_14  and  C_15
REMARK   13  A    between atoms: C_15  and  N_16
REMARK   14  A    between atoms: N_20  and  S_21
REMARK   15  A    between atoms: S_21  and  C_24
REMARK   16  A    between atoms: C_30  and  C_31
REMARK                            x       y       z     vdW  Elec       q    Type
REMARK                         _______ _______ _______ _____ _____    ______ ____
ROOT
ATOM      1  C   UNL     1       2.797   6.527  19.499  0.00  0.00    +0.000 C 
ENDROOT
BRANCH   1   3
ATOM      2  N   UNL     1       1.447   8.737  19.914  0.00  0.00    +0.000 N 
ATOM      3  C   UNL     1       2.068   7.845  19.006  0.00  0.00    +0.000 C 
ATOM      4  O   UNL     1       2.100   8.102  17.791  0.00  0.00    +0.000 OA
BRANCH   2   5
ATOM      5  C   UNL     1       0.714   9.884  19.336  0.00  0.00    +0.000 C 
BRANCH   5   6
ATOM      6  C   UNL     1       1.268  11.271  19.688  0.00  0.00    +0.000 C 
BRANCH   6   8
ATOM      7  C   UNL     1      -1.137  11.720  20.386  0.00  0.00    +0.000 C 
ATOM      8  C   UNL     1       0.302  12.202  20.417  0.00  0.00    +0.000 C 
ENDBRANCH   6   8
ENDBRANCH   5   6
ENDBRANCH   2   5
BRANCH   2   9
ATOM      9  C   UNL     1       1.305   8.423  21.347  0.00  0.00    +0.000 C 
BRANCH   9  10
ATOM     10  C   UNL     1       0.352   9.014  22.399  0.00  0.00    +0.000 C 
ATOM     11  O   UNL     1       0.722   9.848  23.218  0.00  0.00    +0.000 OA
BRANCH  10  12
ATOM     12  O   UNL     1      -0.854   8.421  22.520  0.00  0.00    +0.000 OA
ATOM     13  H   UNL     1      -0.911   7.510  22.188  0.00  0.00    +0.000 HD
ENDBRANCH  10  12
ENDBRANCH   9  10
ENDBRANCH   2   9
ENDBRANCH   1   3
BRANCH   1  14
ATOM     14  N   UNL     1       3.861   6.224  18.508  0.00  0.00    +0.000 NA
ATOM     15  H   UNL     1       3.954   6.897  17.739  0.00  0.00    +0.000 HD
BRANCH  14  16
ATOM     16  S   UNL     1       5.115   5.140  18.699  0.00  0.00    +0.000 S 
ATOM     17  O   UNL     1       6.130   5.668  19.578  0.00  0.00    +0.000 OA
ATOM     18  O   UNL     1       4.505   3.850  18.960  0.00  0.00    +0.000 OA
BRANCH  16  19
ATOM     19  C   UNL     1       5.791   5.088  17.079  0.00  0.00    +0.000 A 
ATOM     20  C   UNL     1       6.988   5.762  16.843  0.00  0.00    +0.000 A 
ATOM     21  C   UNL     1       7.567   5.694  15.583  0.00  0.00    +0.000 A 
ATOM     22  C   UNL     1       6.942   4.965  14.558  0.00  0.00    +0.000 A 
ATOM     23  C   UNL     1       7.532   4.864  13.293  0.00  0.00    +0.000 A 
ATOM     24  C   UNL     1       6.911   4.135  12.276  0.00  0.00    +0.000 A 
ATOM     25  C   UNL     1       5.682   3.509  12.499  0.00  0.00    +0.000 A 
ATOM     26  C   UNL     1       5.001   2.728  11.419  0.00  0.00    +0.000 C 
ATOM     27  C   UNL     1       5.081   3.612  13.759  0.00  0.00    +0.000 A 
ATOM     28  C   UNL     1       5.705   4.324  14.794  0.00  0.00    +0.000 A 
ATOM     29  C   UNL     1       5.127   4.400  16.064  0.00  0.00    +0.000 A 
ENDBRANCH  16  19
ENDBRANCH  14  16
ENDBRANCH   1  14
BRANCH   1  30
ATOM     30  C   UNL     1       1.862   5.320  19.642  0.00  0.00    +0.000 C 
BRANCH  30  31
ATOM     31  C   UNL     1       1.758   4.674  21.030  0.00  0.00    +0.000 C 
BRANCH  31  32
ATOM     32  C   UNL     1       1.323   3.207  21.085  0.00  0.00    +0.000 C 
BRANCH  32  33
ATOM     33  N   UNL     1       2.305   2.425  20.337  0.00  0.00    +0.000 NA
ATOM     34  C   UNL     1       1.932   1.922  19.217  0.00  0.00    +0.000 C 
ATOM     35  N   UNL     1       0.747   2.021  18.577  0.00  0.00    +0.000 N 
ATOM     36  N   UNL     1       2.829   1.212  18.503  0.00  0.00    +0.000 N 
ATOM     37  H   UNL     1      -0.027   2.433  19.086  0.00  0.00    +0.000 HD
ATOM     38  H   UNL     1       0.477   1.281  17.947  0.00  0.00    +0.000 HD
ATOM     39  H   UNL     1       3.652   1.027  19.065  0.00  0.00    +0.000 HD
ATOM     40  H   UNL     1       2.482   0.389  18.038  0.00  0.00    +0.000 HD
ENDBRANCH  32  33
ENDBRANCH  31  32
ENDBRANCH  30  31
ENDBRANCH   1  30
TORSDOF 14
ENDMDL
MODEL 4
REMARK VINA RESULT:      -7.8      0.971      1.528
REMARK  Name = 
REMARK  16 active torsions:
REMARK  status: ('A' for Active; 'I' for Inactive)
REMARK    1  A    between atoms: C_1  and  C_2
REMARK    2  A    between atoms: C_2  and  C_3
REMARK    3  A    between atoms: C_3  and  C_4
REMARK    4  A    between atoms: C_4  and  N_5
REMARK    5  A    between atoms: N_5  and  C_6
REMARK    6  A    between atoms: C_6  and  C_7
REMARK    7  A    between atoms: C_7  and  O_9
REMARK    8  A    between atoms: C_10  and  C_12
REMARK    9  A    between atoms: C_12  and  C_13
REMARK   10  A    between atoms: C_12  and  N_20
REMARK   11  A    between atoms: C_13  and  C_14
REMARK   12  A    between atoms: C_14  and  C_15
REMARK   13  A    between atoms: C_15  and  N_16
REMARK   14  A    between atoms: N_20  and  S_21
REMARK   15  A    between atoms: S_21  and  C_24
REMARK   16  A    between atoms: C_30  and  C_31
REMARK                            x       y       z     vdW  Elec       q    Type
REMARK                         _______ _______ _______ _____ _____    ______ ____
ROOT
ATOM      1  C   UNL     1       2.623   6.279  19.140  0.00  0.00    +0.000 C 
ENDROOT
BRANCH   1   3
ATOM      2  N   UNL     1       1.585   8.615  19.725  0.00  0.00    +0.000 N 
ATOM      3  C   UNL     1       2.180   7.755  18.770  0.00  0.00    +0.000 C 
ATOM      4  O   UNL     1       2.418   8.158  17.619  0.00  0.00    +0.000 OA
BRANCH   2   5
ATOM      5  C   UNL     1       1.123   9.936  19.245  0.00  0.00    +0.000 C 
BRANCH   5   6
ATOM      6  C   UNL     1      -0.398  10.132  19.199  0.00  0.00    +0.000 C 
BRANCH   6   8
ATOM      7  C   UNL     1      -2.328  10.915  17.737  0.00  0.00    +0.000 C 
ATOM      8  C   UNL     1      -1.020  10.147  17.805  0.00  0.00    +0.000 C 
ENDBRANCH   6   8
ENDBRANCH   5   6
ENDBRANCH   2   5
BRANCH   2   9
ATOM      9  C   UNL     1       1.202   8.148  21.069  0.00  0.00    +0.000 C 
BRANCH   9  10
ATOM     10  C   UNL     1       0.681   8.940  22.280  0.00  0.00    +0.000 C 
ATOM     11  O   UNL     1       1.424   9.611  22.988  0.00  0.00    +0.000 OA
BRANCH  10  12
ATOM     12  O   UNL     1      -0.591   8.697  22.656  0.00  0.00    +0.000 OA
ATOM     13  H   UNL     1      -1.278   8.985  22.032  0.00  0.00    +0.000 HD
ENDBRANCH  10  12
ENDBRANCH   9  10
ENDBRANCH   2   9
ENDBRANCH   1   3
BRANCH   1  14
ATOM     14  N   UNL     1       3.633   5.865  18.132  0.00  0.00    +0.000 NA
ATOM     15  H   UNL     1       3.506   6.255  17.192  0.00  0.00    +0.000 HD
BRANCH  14  16
ATOM     16  S   UNL     1       5.107   5.146  18.443  0.00  0.00    +0.000 S 
ATOM     17  O   UNL     1       5.966   6.026  19.198  0.00  0.00    +0.000 OA
ATOM     18  O   UNL     1       4.818   3.806  18.915  0.00  0.00    +0.000 OA
BRANCH  16  19
ATOM     19  C   UNL     1       5.781   5.005  16.827  0.00  0.00    +0.000 A 
ATOM     20  C   UNL     1       7.057   5.517  16.598  0.00  0.00    +0.000 A 
ATOM     21  C   UNL     1       7.630   5.373  15.342  0.00  0.00    +0.000 A 
ATOM     22  C   UNL     1       6.923   4.729  14.315  0.00  0.00    +0.000 A 
ATOM     23  C   UNL     1       7.503   4.549  13.053  0.00  0.00    +0.000 A 
ATOM     24  C   UNL     1       6.800   3.905  12.033  0.00  0.00    +0.000 A 
ATOM     25  C   UNL     1       5.498   3.444  12.249  0.00  0.00    +0.000 A 
ATOM     26  C   UNL     1       4.730   2.754  11.165  0.00  0.00    +0.000 C 
ATOM     27  C   UNL     1       4.908   3.625  13.504  0.00  0.00    +0.000 A 
ATOM     28  C   UNL     1       5.612   4.253  14.543  0.00  0.00    +0.000 A 
ATOM     29  C   UNL     1       5.041   4.406  15.809  0.00  0.00    +0.000 A 
ENDBRANCH  16  19
ENDBRANCH  14  16
ENDBRANCH   1  14
BRANCH   1  30
ATOM     30  C   UNL     1       1.467   5.273  19.159  0.00  0.00    +0.000 C 
BRANCH  30  31
ATOM     31  C   UNL     1       1.525   4.119  18.150  0.00  0.00    +0.000 C 
BRANCH  31  32
ATOM     32  C   UNL     1       1.221   2.715  18.678  0.00  0.00    +0.000 C 
BRANCH  32  33
ATOM     33  N   UNL     1       0.943   2.829  20.108  0.00  0.00    +0.000 NA
ATOM     34  C   UNL     1       1.916   2.618  20.918  0.00  0.00    +0.000 C 
ATOM     35  N   UNL     1       3.208   2.323  20.659  0.00  0.00    +0.000 N 
ATOM     36  N   UNL     1       1.685   2.736  22.241  0.00  0.00    +0.000 N 
ATOM     37  H   UNL     1       3.454   2.096  19.702  0.00  0.00    +0.000 HD
ATOM     38  H   UNL     1       3.733   1.809  21.351  0.00  0.00    +0.000 HD
ATOM     39  H   UNL     1       0.689   2.808  22.415  0.00  0.00    +0.000 HD
ATOM     40  H   UNL     1       2.136   2.062  22.838  0.00  0.00    +0.000 HD
ENDBRANCH  32  33
ENDBRANCH  31  32
ENDBRANCH  30  31
ENDBRANCH   1  30
TORSDOF 14
ENDMDL
MODEL 5
REMARK VINA RESULT:      -7.5      2.517      7.502
REMARK  Name = 
REMARK  16 active torsions:
REMARK  status: ('A' for Active; 'I' for Inactive)
REMARK    1  A    between atoms: C_1  and  C_2
REMARK    2  A    between atoms: C_2  and  C_3
REMARK    3  A    between atoms: C_3  and  C_4
REMARK    4  A    between atoms: C_4  and  N_5
REMARK    5  A    between atoms: N_5  and  C_6
REMARK    6  A    between atoms: C_6  and  C_7
REMARK    7  A    between atoms: C_7  and  O_9
REMARK    8  A    between atoms: C_10  and  C_12
REMARK    9  A    between atoms: C_12  and  C_13
REMARK   10  A    between atoms: C_12  and  N_20
REMARK   11  A    between atoms: C_13  and  C_14
REMARK   12  A    between atoms: C_14  and  C_15
REMARK   13  A    between atoms: C_15  and  N_16
REMARK   14  A    between atoms: N_20  and  S_21
REMARK   15  A    between atoms: S_21  and  C_24
REMARK   16  A    between atoms: C_30  and  C_31
REMARK                            x       y       z     vdW  Elec       q    Type
REMARK                         _______ _______ _______ _____ _____    ______ ____
ROOT
ATOM      1  C   UNL     1       4.909   4.662  18.064  0.00  0.00    +0.000 C 
ENDROOT
BRANCH   1   3
ATOM      2  N   UNL     1       6.958   6.252  17.674  0.00  0.00    +0.000 N 
ATOM      3  C   UNL     1       6.094   5.581  18.574  0.00  0.00    +0.000 C 
ATOM      4  O   UNL     1       6.217   5.738  19.801  0.00  0.00    +0.000 OA
BRANCH   2   5
ATOM      5  C   UNL     1       8.089   7.004  18.260  0.00  0.00    +0.000 C 
BRANCH   5   6
ATOM      6  C   UNL     1       8.143   8.499  17.914  0.00  0.00    +0.000 C 
BRANCH   6   8
ATOM      7  C   UNL     1       9.350  10.702  18.318  0.00  0.00    +0.000 C 
ATOM      8  C   UNL     1       8.895   9.380  18.909  0.00  0.00    +0.000 C 
ENDBRANCH   6   8
ENDBRANCH   5   6
ENDBRANCH   2   5
BRANCH   2   9
ATOM      9  C   UNL     1       6.907   6.020  16.220  0.00  0.00    +0.000 C 
BRANCH   9  10
ATOM     10  C   UNL     1       5.709   6.048  15.256  0.00  0.00    +0.000 C 
ATOM     11  O   UNL     1       4.902   6.971  15.246  0.00  0.00    +0.000 OA
BRANCH  10  12
ATOM     12  O   UNL     1       5.463   4.914  14.568  0.00  0.00    +0.000 OA
ATOM     13  H   UNL     1       5.723   4.088  15.010  0.00  0.00    +0.000 HD
ENDBRANCH  10  12
ENDBRANCH   9  10
ENDBRANCH   2   9
ENDBRANCH   1   3
BRANCH   1  14
ATOM     14  N   UNL     1       3.704   5.526  17.964  0.00  0.00    +0.000 NA
ATOM     15  H   UNL     1       3.519   5.921  17.036  0.00  0.00    +0.000 HD
BRANCH  14  16
ATOM     16  S   UNL     1       2.463   5.628  19.075  0.00  0.00    +0.000 S 
ATOM     17  O   UNL     1       1.300   4.902  18.624  0.00  0.00    +0.000 OA
ATOM     18  O   UNL     1       3.051   5.357  20.373  0.00  0.00    +0.000 OA
BRANCH  16  19
ATOM     19  C   UNL     1       2.074   7.340  19.017  0.00  0.00    +0.000 A 
ATOM     20  C   UNL     1       2.380   8.047  17.855  0.00  0.00    +0.000 A 
ATOM     21  C   UNL     1       2.036   9.389  17.768  0.00  0.00    +0.000 A 
ATOM     22  C   UNL     1       1.401  10.025  18.845  0.00  0.00    +0.000 A 
ATOM     23  C   UNL     1       1.022  11.370  18.757  0.00  0.00    +0.000 A 
ATOM     24  C   UNL     1       0.386  12.001  19.829  0.00  0.00    +0.000 A 
ATOM     25  C   UNL     1       0.134  11.305  21.015  0.00  0.00    +0.000 A 
ATOM     26  C   UNL     1      -0.543  11.968  22.174  0.00  0.00    +0.000 C 
ATOM     27  C   UNL     1       0.516   9.963  21.114  0.00  0.00    +0.000 A 
ATOM     28  C   UNL     1       1.137   9.313  20.037  0.00  0.00    +0.000 A 
ATOM     29  C   UNL     1       1.489   7.963  20.118  0.00  0.00    +0.000 A 
ENDBRANCH  16  19
ENDBRANCH  14  16
ENDBRANCH   1  14
BRANCH   1  30
ATOM     30  C   UNL     1       4.617   3.466  18.977  0.00  0.00    +0.000 C 
BRANCH  30  31
ATOM     31  C   UNL     1       3.934   2.248  18.341  0.00  0.00    +0.000 C 
BRANCH  31  32
ATOM     32  C   UNL     1       2.554   1.862  18.878  0.00  0.00    +0.000 C 
BRANCH  32  33
ATOM     33  N   UNL     1       2.599   1.968  20.335  0.00  0.00    +0.000 NA
ATOM     34  C   UNL     1       1.574   2.468  20.924  0.00  0.00    +0.000 C 
ATOM     35  N   UNL     1       0.407   2.905  20.404  0.00  0.00    +0.000 N 
ATOM     36  N   UNL     1       1.589   2.558  22.269  0.00  0.00    +0.000 N 
ATOM     37  H   UNL     1       0.345   2.989  19.396  0.00  0.00    +0.000 HD
ATOM     38  H   UNL     1      -0.111   3.609  20.908  0.00  0.00    +0.000 HD
ATOM     39  H   UNL     1       2.520   2.367  22.620  0.00  0.00    +0.000 HD
ATOM     40  H   UNL     1       1.185   3.389  22.669  0.00  0.00    +0.000 HD
ENDBRANCH  32  33
ENDBRANCH  31  32
ENDBRANCH  30  31
ENDBRANCH   1  30
TORSDOF 14
ENDMDL
MODEL 6
REMARK VINA RESULT:      -7.4      1.910      5.491
REMARK  Name = 
REMARK  16 active torsions:
REMARK  status: ('A' for Active; 'I' for Inactive)
REMARK    1  A    between atoms: C_1  and  C_2
REMARK    2  A    between atoms: C_2  and  C_3
REMARK    3  A    between atoms: C_3  and  C_4
REMARK    4  A    between atoms: C_4  and  N_5
REMARK    5  A    between atoms: N_5  and  C_6
REMARK    6  A    between atoms: C_6  and  C_7
REMARK    7  A    between atoms: C_7  and  O_9
REMARK    8  A    between atoms: C_10  and  C_12
REMARK    9  A    between atoms: C_12  and  C_13
REMARK   10  A    between atoms: C_12  and  N_20
REMARK   11  A    between atoms: C_13  and  C_14
REMARK   12  A    between atoms: C_14  and  C_15
REMARK   13  A    between atoms: C_15  and  N_16
REMARK   14  A    between atoms: N_20  and  S_21
REMARK   15  A    between atoms: S_21  and  C_24
REMARK   16  A    between atoms: C_30  and  C_31
REMARK                            x       y       z     vdW  Elec       q    Type
REMARK                         _______ _______ _______ _____ _____    ______ ____
ROOT
ATOM      1  C   UNL     1       3.452   6.337  18.240  0.00  0.00    +0.000 C 
ENDROOT
BRANCH   1   3
ATOM      2  N   UNL     1       1.713   4.740  19.383  0.00  0.00    +0.000 N 
ATOM      3  C   UNL     1       2.498   5.918  19.434  0.00  0.00    +0.000 C 
ATOM      4  O   UNL     1       2.495   6.636  20.449  0.00  0.00    +0.000 OA
BRANCH   2   5
ATOM      5  C   UNL     1       0.788   4.499  20.511  0.00  0.00    +0.000 C 
BRANCH   5   6
ATOM      6  C   UNL     1       1.039   3.215  21.314  0.00  0.00    +0.000 C 
BRANCH   6   8
ATOM      7  C   UNL     1       3.339   2.133  21.200  0.00  0.00    +0.000 C 
ATOM      8  C   UNL     1       2.426   3.091  21.943  0.00  0.00    +0.000 C 
ENDBRANCH   6   8
ENDBRANCH   5   6
ENDBRANCH   2   5
BRANCH   2   9
ATOM      9  C   UNL     1       1.617   3.915  18.166  0.00  0.00    +0.000 C 
BRANCH   9  10
ATOM     10  C   UNL     1       1.403   2.400  18.013  0.00  0.00    +0.000 C 
ATOM     11  O   UNL     1       0.328   1.866  18.259  0.00  0.00    +0.000 OA
BRANCH  10  12
ATOM     12  O   UNL     1       2.508   1.655  17.802  0.00  0.00    +0.000 OA
ATOM     13  H   UNL     1       3.339   2.026  18.142  0.00  0.00    +0.000 HD
ENDBRANCH  10  12
ENDBRANCH   9  10
ENDBRANCH   2   9
ENDBRANCH   1   3
BRANCH   1  14
ATOM     14  N   UNL     1       4.846   6.109  18.700  0.00  0.00    +0.000 NA
ATOM     15  H   UNL     1       5.209   6.797  19.368  0.00  0.00    +0.000 HD
BRANCH  14  16
ATOM     16  S   UNL     1       5.729   4.704  18.529  0.00  0.00    +0.000 S 
ATOM     17  O   UNL     1       6.930   4.744  19.329  0.00  0.00    +0.000 OA
ATOM     18  O   UNL     1       4.788   3.609  18.660  0.00  0.00    +0.000 OA
BRANCH  16  19
ATOM     19  C   UNL     1       6.213   4.790  16.843  0.00  0.00    +0.000 A 
ATOM     20  C   UNL     1       7.245   5.660  16.497  0.00  0.00    +0.000 A 
ATOM     21  C   UNL     1       7.677   5.708  15.179  0.00  0.00    +0.000 A 
ATOM     22  C   UNL     1       7.070   4.897  14.207  0.00  0.00    +0.000 A 
ATOM     23  C   UNL     1       7.517   4.914  12.881  0.00  0.00    +0.000 A 
ATOM     24  C   UNL     1       6.915   4.104  11.916  0.00  0.00    +0.000 A 
ATOM     25  C   UNL     1       5.841   3.275  12.256  0.00  0.00    +0.000 A 
ATOM     26  C   UNL     1       5.181   2.403  11.233  0.00  0.00    +0.000 C 
ATOM     27  C   UNL     1       5.382   3.257  13.577  0.00  0.00    +0.000 A 
ATOM     28  C   UNL     1       5.993   4.051  14.559  0.00  0.00    +0.000 A 
ATOM     29  C   UNL     1       5.561   4.012  15.887  0.00  0.00    +0.000 A 
ENDBRANCH  16  19
ENDBRANCH  14  16
ENDBRANCH   1  14
BRANCH   1  30
ATOM     30  C   UNL     1       3.283   7.794  17.796  0.00  0.00    +0.000 C 
BRANCH  30  31
ATOM     31  C   UNL     1       1.866   8.381  17.840  0.00  0.00    +0.000 C 
BRANCH  31  32
ATOM     32  C   UNL     1       1.745   9.906  17.891  0.00  0.00    +0.000 C 
BRANCH  32  33
ATOM     33  N   UNL     1       0.909  10.247  19.041  0.00  0.00    +0.000 NA
ATOM     34  C   UNL     1      -0.322  10.531  18.814  0.00  0.00    +0.000 C 
ATOM     35  N   UNL     1      -1.006  10.542  17.651  0.00  0.00    +0.000 N 
ATOM     36  N   UNL     1      -1.113  10.831  19.864  0.00  0.00    +0.000 N 
ATOM     37  H   UNL     1      -0.474  10.448  16.793  0.00  0.00    +0.000 HD
ATOM     38  H   UNL     1      -1.810  11.147  17.570  0.00  0.00    +0.000 HD
ATOM     39  H   UNL     1      -0.551  10.962  20.697  0.00  0.00    +0.000 HD
ATOM     40  H   UNL     1      -1.782  11.571  19.726  0.00  0.00    +0.000 HD
ENDBRANCH  32  33
ENDBRANCH  31  32
ENDBRANCH  30  31
ENDBRANCH   1  30
TORSDOF 14
ENDMDL
MODEL 7
REMARK VINA RESULT:      -7.4      3.208      9.071
REMARK  Name = 
REMARK  16 active torsions:
REMARK  status: ('A' for Active; 'I' for Inactive)
REMARK    1  A    between atoms: C_1  and  C_2
REMARK    2  A    between atoms: C_2  and  C_3
REMARK    3  A    between atoms: C_3  and  C_4
REMARK    4  A    between atoms: C_4  and  N_5
REMARK    5  A    between atoms: N_5  and  C_6
REMARK    6  A    between atoms: C_6  and  C_7
REMARK    7  A    between atoms: C_7  and  O_9
REMARK    8  A    between atoms: C_10  and  C_12
REMARK    9  A    between atoms: C_12  and  C_13
REMARK   10  A    between atoms: C_12  and  N_20
REMARK   11  A    between atoms: C_13  and  C_14
REMARK   12  A    between atoms: C_14  and  C_15
REMARK   13  A    between atoms: C_15  and  N_16
REMARK   14  A    between atoms: N_20  and  S_21
REMARK   15  A    between atoms: S_21  and  C_24
REMARK   16  A    between atoms: C_30  and  C_31
REMARK                            x       y       z     vdW  Elec       q    Type
REMARK                         _______ _______ _______ _____ _____    ______ ____
ROOT
ATOM      1  C   UNL     1       5.384   6.273  17.341  0.00  0.00    +0.000 C 
ENDROOT
BRANCH   1   3
ATOM      2  N   UNL     1       5.511   4.167  15.783  0.00  0.00    +0.000 N 
ATOM      3  C   UNL     1       5.684   5.562  15.957  0.00  0.00    +0.000 C 
ATOM      4  O   UNL     1       6.032   6.279  15.003  0.00  0.00    +0.000 OA
BRANCH   2   5
ATOM      5  C   UNL     1       5.912   3.596  14.479  0.00  0.00    +0.000 C 
BRANCH   5   6
ATOM      6  C   UNL     1       4.878   3.722  13.352  0.00  0.00    +0.000 C 
BRANCH   6   8
ATOM      7  C   UNL     1       4.157   3.070  11.001  0.00  0.00    +0.000 C 
ATOM      8  C   UNL     1       5.291   3.128  12.008  0.00  0.00    +0.000 C 
ENDBRANCH   6   8
ENDBRANCH   5   6
ENDBRANCH   2   5
BRANCH   2   9
ATOM      9  C   UNL     1       5.192   3.271  16.909  0.00  0.00    +0.000 C 
BRANCH   9  10
ATOM     10  C   UNL     1       3.831   2.753  17.404  0.00  0.00    +0.000 C 
ATOM     11  O   UNL     1       3.739   1.888  18.268  0.00  0.00    +0.000 OA
BRANCH  10  12
ATOM     12  O   UNL     1       2.748   3.138  16.699  0.00  0.00    +0.000 OA
ATOM     13  H   UNL     1       1.897   3.075  17.164  0.00  0.00    +0.000 HD
ENDBRANCH  10  12
ENDBRANCH   9  10
ENDBRANCH   2   9
ENDBRANCH   1   3
BRANCH   1  14
ATOM     14  N   UNL     1       3.912   6.445  17.429  0.00  0.00    +0.000 NA
ATOM     15  H   UNL     1       3.429   6.587  16.536  0.00  0.00    +0.000 HD
BRANCH  14  16
ATOM     16  S   UNL     1       2.948   6.087  18.744  0.00  0.00    +0.000 S 
ATOM     17  O   UNL     1       1.912   5.147  18.388  0.00  0.00    +0.000 OA
ATOM     18  O   UNL     1       3.847   5.817  19.850  0.00  0.00    +0.000 OA
BRANCH  16  19
ATOM     19  C   UNL     1       2.177   7.635  19.052  0.00  0.00    +0.000 A 
ATOM     20  C   UNL     1       2.210   8.599  18.047  0.00  0.00    +0.000 A 
ATOM     21  C   UNL     1       1.565   9.811  18.250  0.00  0.00    +0.000 A 
ATOM     22  C   UNL     1       0.899  10.063  19.460  0.00  0.00    +0.000 A 
ATOM     23  C   UNL     1       0.219  11.268  19.664  0.00  0.00    +0.000 A 
ATOM     24  C   UNL     1      -0.446  11.515  20.868  0.00  0.00    +0.000 A 
ATOM     25  C   UNL     1      -0.427  10.569  21.896  0.00  0.00    +0.000 A 
ATOM     26  C   UNL     1      -1.131  10.819  23.194  0.00  0.00    +0.000 C 
ATOM     27  C   UNL     1       0.257   9.363  21.704  0.00  0.00    +0.000 A 
ATOM     28  C   UNL     1       0.911   9.096  20.491  0.00  0.00    +0.000 A 
ATOM     29  C   UNL     1       1.566   7.880  20.281  0.00  0.00    +0.000 A 
ENDBRANCH  16  19
ENDBRANCH  14  16
ENDBRANCH   1  14
BRANCH   1  30
ATOM     30  C   UNL     1       6.077   7.631  17.500  0.00  0.00    +0.000 C 
BRANCH  30  31
ATOM     31  C   UNL     1       7.581   7.621  17.800  0.00  0.00    +0.000 C 
BRANCH  31  32
ATOM     32  C   UNL     1       8.330   8.948  17.656  0.00  0.00    +0.000 C 
BRANCH  32  33
ATOM     33  N   UNL     1       8.821   9.328  18.979  0.00  0.00    +0.000 NA
ATOM     34  C   UNL     1       9.247  10.529  19.130  0.00  0.00    +0.000 C 
ATOM     35  N   UNL     1       9.297  11.546  18.244  0.00  0.00    +0.000 N 
ATOM     36  N   UNL     1       9.687  10.904  20.348  0.00  0.00    +0.000 N 
ATOM     37  H   UNL     1       9.101  11.331  17.272  0.00  0.00    +0.000 HD
ATOM     38  H   UNL     1       9.994  12.264  18.373  0.00  0.00    +0.000 HD
ATOM     39  H   UNL     1       9.780  10.093  20.949  0.00  0.00    +0.000 HD
ATOM     40  H   UNL     1      10.499  11.499  20.369  0.00  0.00    +0.000 HD
ENDBRANCH  32  33
ENDBRANCH  31  32
ENDBRANCH  30  31
ENDBRANCH   1  30
TORSDOF 14
ENDMDL
MODEL 8
REMARK VINA RESULT:      -7.3      2.550      8.639
REMARK  Name = 
REMARK  16 active torsions:
REMARK  status: ('A' for Active; 'I' for Inactive)
REMARK    1  A    between atoms: C_1  and  C_2
REMARK    2  A    between atoms: C_2  and  C_3
REMARK    3  A    between atoms: C_3  and  C_4
REMARK    4  A    between atoms: C_4  and  N_5
REMARK    5  A    between atoms: N_5  and  C_6
REMARK    6  A    between atoms: C_6  and  C_7
REMARK    7  A    between atoms: C_7  and  O_9
REMARK    8  A    between atoms: C_10  and  C_12
REMARK    9  A    between atoms: C_12  and  C_13
REMARK   10  A    between atoms: C_12  and  N_20
REMARK   11  A    between atoms: C_13  and  C_14
REMARK   12  A    between atoms: C_14  and  C_15
REMARK   13  A    between atoms: C_15  and  N_16
REMARK   14  A    between atoms: N_20  and  S_21
REMARK   15  A    between atoms: S_21  and  C_24
REMARK   16  A    between atoms: C_30  and  C_31
REMARK                            x       y       z     vdW  Elec       q    Type
REMARK                         _______ _______ _______ _____ _____    ______ ____
ROOT
ATOM      1  C   UNL     1       2.830   6.440  18.490  0.00  0.00    +0.000 C 
ENDROOT
BRANCH   1   3
ATOM      2  N   UNL     1       5.322   5.908  17.869  0.00  0.00    +0.000 N 
ATOM      3  C   UNL     1       4.300   5.968  18.848  0.00  0.00    +0.000 C 
ATOM      4  O   UNL     1       4.546   5.697  20.036  0.00  0.00    +0.000 OA
BRANCH   2   5
ATOM      5  C   UNL     1       6.629   5.362  18.294  0.00  0.00    +0.000 C 
BRANCH   5   6
ATOM      6  C   UNL     1       7.750   6.393  18.485  0.00  0.00    +0.000 C 
BRANCH   6   8
ATOM      7  C   UNL     1       8.289   8.860  18.172  0.00  0.00    +0.000 C 
ATOM      8  C   UNL     1       7.696   7.604  17.557  0.00  0.00    +0.000 C 
ENDBRANCH   6   8
ENDBRANCH   5   6
ENDBRANCH   2   5
BRANCH   2   9
ATOM      9  C   UNL     1       5.050   6.130  16.438  0.00  0.00    +0.000 C 
BRANCH   9  10
ATOM     10  C   UNL     1       5.460   5.296  15.213  0.00  0.00    +0.000 C 
ATOM     11  O   UNL     1       5.079   4.141  15.054  0.00  0.00    +0.000 OA
BRANCH  10  12
ATOM     12  O   UNL     1       6.427   5.815  14.428  0.00  0.00    +0.000 OA
ATOM     13  H   UNL     1       6.396   6.777  14.301  0.00  0.00    +0.000 HD
ENDBRANCH  10  12
ENDBRANCH   9  10
ENDBRANCH   2   9
ENDBRANCH   1   3
BRANCH   1  14
ATOM     14  N   UNL     1       2.750   7.888  18.811  0.00  0.00    +0.000 NA
ATOM     15  H   UNL     1       3.556   8.275  19.315  0.00  0.00    +0.000 HD
BRANCH  14  16
ATOM     16  S   UNL     1       1.690   8.994  18.150  0.00  0.00    +0.000 S 
ATOM     17  O   UNL     1       2.396  10.121  17.589  0.00  0.00    +0.000 OA
ATOM     18  O   UNL     1       0.751   8.233  17.348  0.00  0.00    +0.000 OA
BRANCH  16  19
ATOM     19  C   UNL     1       0.833   9.561  19.574  0.00  0.00    +0.000 A 
ATOM     20  C   UNL     1       1.064   8.912  20.785  0.00  0.00    +0.000 A 
ATOM     21  C   UNL     1       0.436   9.374  21.934  0.00  0.00    +0.000 A 
ATOM     22  C   UNL     1      -0.432  10.476  21.868  0.00  0.00    +0.000 A 
ATOM     23  C   UNL     1      -1.047  10.970  23.023  0.00  0.00    +0.000 A 
ATOM     24  C   UNL     1      -1.907  12.069  22.957  0.00  0.00    +0.000 A 
ATOM     25  C   UNL     1      -2.183  12.681  21.731  0.00  0.00    +0.000 A 
ATOM     26  C   UNL     1      -3.105  13.857  21.641  0.00  0.00    +0.000 C 
ATOM     27  C   UNL     1      -1.578  12.189  20.569  0.00  0.00    +0.000 A 
ATOM     28  C   UNL     1      -0.696  11.099  20.627  0.00  0.00    +0.000 A 
ATOM     29  C   UNL     1      -0.063  10.625  19.475  0.00  0.00    +0.000 A 
ENDBRANCH  16  19
ENDBRANCH  14  16
ENDBRANCH   1  14
BRANCH   1  30
ATOM     30  C   UNL     1       1.735   5.679  19.246  0.00  0.00    +0.000 C 
BRANCH  30  31
ATOM     31  C   UNL     1       1.911   4.162  19.395  0.00  0.00    +0.000 C 
BRANCH  31  32
ATOM     32  C   UNL     1       1.767   3.316  18.127  0.00  0.00    +0.000 C 
BRANCH  32  33
ATOM     33  N   UNL     1       2.311   1.990  18.414  0.00  0.00    +0.000 NA
ATOM     34  C   UNL     1       3.543   1.781  18.123  0.00  0.00    +0.000 C 
ATOM     35  N   UNL     1       4.463   2.620  17.601  0.00  0.00    +0.000 N 
ATOM     36  N   UNL     1       4.069   0.569  18.397  0.00  0.00    +0.000 N 
ATOM     37  H   UNL     1       4.137   3.514  17.252  0.00  0.00    +0.000 HD
ATOM     38  H   UNL     1       5.229   2.228  17.074  0.00  0.00    +0.000 HD
ATOM     39  H   UNL     1       3.332  -0.081  18.644  0.00  0.00    +0.000 HD
ATOM     40  H   UNL     1       4.708   0.193  17.716  0.00  0.00    +0.000 HD
ENDBRANCH  32  33
ENDBRANCH  31  32
ENDBRANCH  30  31
ENDBRANCH   1  30
TORSDOF 14
ENDMDL
MODEL 9
REMARK VINA RESULT:      -7.3      2.421      7.944
REMARK  Name = 
REMARK  16 active torsions:
REMARK  status: ('A' for Active; 'I' for Inactive)
REMARK    1  A    between atoms: C_1  and  C_2
REMARK    2  A    between atoms: C_2  and  C_3
REMARK    3  A    between atoms: C_3  and  C_4
REMARK    4  A    between atoms: C_4  and  N_5
REMARK    5  A    between atoms: N_5  and  C_6
REMARK    6  A    between atoms: C_6  and  C_7
REMARK    7  A    between atoms: C_7  and  O_9
REMARK    8  A    between atoms: C_10  and  C_12
REMARK    9  A    between atoms: C_12  and  C_13
REMARK   10  A    between atoms: C_12  and  N_20
REMARK   11  A    between atoms: C_13  and  C_14
REMARK   12  A    between atoms: C_14  and  C_15
REMARK   13  A    between atoms: C_15  and  N_16
REMARK   14  A    between atoms: N_20  and  S_21
REMARK   15  A    between atoms: S_21  and  C_24
REMARK   16  A    between atoms: C_30  and  C_31
REMARK                            x       y       z     vdW  Elec       q    Type
REMARK                         _______ _______ _______ _____ _____    ______ ____
ROOT
ATOM      1  C   UNL     1       4.961   5.241  19.329  0.00  0.00    +0.000 C 
ENDROOT
BRANCH   1   3
ATOM      2  N   UNL     1       3.778   2.910  19.113  0.00  0.00    +0.000 N 
ATOM      3  C   UNL     1       4.435   4.002  18.494  0.00  0.00    +0.000 C 
ATOM      4  O   UNL     1       4.573   4.037  17.259  0.00  0.00    +0.000 OA
BRANCH   2   5
ATOM      5  C   UNL     1       3.416   1.765  18.251  0.00  0.00    +0.000 C 
BRANCH   5   6
ATOM      6  C   UNL     1       1.992   1.790  17.677  0.00  0.00    +0.000 C 
BRANCH   6   8
ATOM      7  C   UNL     1       0.284   3.134  18.999  0.00  0.00    +0.000 C 
ATOM      8  C   UNL     1       0.865   1.762  18.707  0.00  0.00    +0.000 C 
ENDBRANCH   6   8
ENDBRANCH   5   6
ENDBRANCH   2   5
BRANCH   2   9
ATOM      9  C   UNL     1       3.677   2.786  20.578  0.00  0.00    +0.000 C 
BRANCH   9  10
ATOM     10  C   UNL     1       2.570   3.255  21.536  0.00  0.00    +0.000 C 
ATOM     11  O   UNL     1       2.344   4.443  21.739  0.00  0.00    +0.000 OA
BRANCH  10  12
ATOM     12  O   UNL     1       1.999   2.306  22.307  0.00  0.00    +0.000 OA
ATOM     13  H   UNL     1       2.384   2.193  23.191  0.00  0.00    +0.000 HD
ENDBRANCH  10  12
ENDBRANCH   9  10
ENDBRANCH   2   9
ENDBRANCH   1   3
BRANCH   1  14
ATOM     14  N   UNL     1       3.789   6.117  19.589  0.00  0.00    +0.000 NA
ATOM     15  H   UNL     1       3.713   6.481  20.545  0.00  0.00    +0.000 HD
BRANCH  14  16
ATOM     16  S   UNL     1       2.816   6.837  18.441  0.00  0.00    +0.000 S 
ATOM     17  O   UNL     1       3.600   7.594  17.495  0.00  0.00    +0.000 OA
ATOM     18  O   UNL     1       1.890   5.816  17.990  0.00  0.00    +0.000 OA
BRANCH  16  19
ATOM     19  C   UNL     1       1.907   7.983  19.414  0.00  0.00    +0.000 A 
ATOM     20  C   UNL     1       1.654   7.663  20.746  0.00  0.00    +0.000 A 
ATOM     21  C   UNL     1       0.981   8.575  21.547  0.00  0.00    +0.000 A 
ATOM     22  C   UNL     1       0.551   9.800  21.012  0.00  0.00    +0.000 A 
ATOM     23  C   UNL     1      -0.101  10.740  21.817  0.00  0.00    +0.000 A 
ATOM     24  C   UNL     1      -0.525  11.960  21.285  0.00  0.00    +0.000 A 
ATOM     25  C   UNL     1      -0.321  12.254  19.933  0.00  0.00    +0.000 A 
ATOM     26  C   UNL     1      -0.772  13.555  19.346  0.00  0.00    +0.000 C 
ATOM     27  C   UNL     1       0.323  11.316  19.119  0.00  0.00    +0.000 A 
ATOM     28  C   UNL     1       0.772  10.096  19.648  0.00  0.00    +0.000 A 
ATOM     29  C   UNL     1       1.446   9.171  18.847  0.00  0.00    +0.000 A 
ENDBRANCH  16  19
ENDBRANCH  14  16
ENDBRANCH   1  14
BRANCH   1  30
ATOM     30  C   UNL     1       6.060   6.042  18.622  0.00  0.00    +0.000 C 
BRANCH  30  31
ATOM     31  C   UNL     1       7.460   5.414  18.567  0.00  0.00    +0.000 C 
BRANCH  31  32
ATOM     32  C   UNL     1       7.749   4.456  17.409  0.00  0.00    +0.000 C 
BRANCH  32  33
ATOM     33  N   UNL     1       7.634   5.215  16.165  0.00  0.00    +0.000 NA
ATOM     34  C   UNL     1       7.010   4.661  15.190  0.00  0.00    +0.000 C 
ATOM     35  N   UNL     1       6.397   3.460  15.128  0.00  0.00    +0.000 N 
ATOM     36  N   UNL     1       6.877   5.352  14.040  0.00  0.00    +0.000 N 
ATOM     37  H   UNL     1       6.543   2.818  15.899  0.00  0.00    +0.000 HD
ATOM     38  H   UNL     1       6.312   3.008  14.229  0.00  0.00    +0.000 HD
ATOM     39  H   UNL     1       7.466   6.176  14.059  0.00  0.00    +0.000 HD
ATOM     40  H   UNL     1       6.972   4.826  13.186  0.00  0.00    +0.000 HD
ENDBRANCH  32  33
ENDBRANCH  31  32
ENDBRANCH  30  31
ENDBRANCH   1  30
TORSDOF 14
ENDMDL
