MODEL 1
REMARK VINA RESULT:      -9.0      0.000      0.000
REMARK  Name = 
REMARK  7 active torsions:
REMARK  status: ('A' for Active; 'I' for Inactive)
REMARK    1  A    between atoms: C_2  and  C_3
REMARK    2  A    between atoms: C_3  and  S_4
REMARK    3  A    between atoms: S_4  and  C_5
REMARK    4  A    between atoms: C_8  and  C_9
REMARK    5  A    between atoms: C_10  and  C_11
REMARK    6  A    between atoms: N_19  and  C_20
REMARK    7  A    between atoms: N_19  and  C_26
REMARK                            x       y       z     vdW  Elec       q    Type
REMARK                         _______ _______ _______ _____ _____    ______ ____
ROOT
ATOM      1  C   UNL     1       5.879   5.552  19.581  0.00  0.00    +0.000 C 
ENDROOT
BRANCH   1   3
ATOM      2  O   UNL     1       5.494   3.282  18.964  0.00  0.00    +0.000 OA
ATOM      3  C   UNL     1       4.991   4.409  19.054  0.00  0.00    +0.000 C 
ATOM      4  N   UNL     1       3.682   4.677  18.601  0.00  0.00    +0.000 N 
BRANCH   4   5
ATOM      5  C   UNL     1       3.093   5.973  18.797  0.00  0.00    +0.000 A 
ATOM      6  C   UNL     1       2.432   6.310  19.986  0.00  0.00    +0.000 A 
ATOM      7  C   UNL     1       1.836   7.567  20.138  0.00  0.00    +0.000 A 
ATOM      8  C   UNL     1       1.900   8.506  19.111  0.00  0.00    +0.000 A 
ATOM      9  C   UNL     1       2.584   8.198  17.939  0.00  0.00    +0.000 A 
ATOM     10  C   UNL     1       3.190   6.946  17.788  0.00  0.00    +0.000 A 
ENDBRANCH   4   5
BRANCH   4  11
ATOM     11  C   UNL     1       3.009   3.758  17.604  0.00  0.00    +0.000 C 
ATOM     12  C   UNL     1       3.155   2.227  17.825  0.00  0.00    +0.000 C 
ATOM     13  C   UNL     1       2.432   1.754  19.087  0.00  0.00    +0.000 C 
ATOM     14  C   UNL     1       0.944   2.062  19.005  0.00  0.00    +0.000 C 
ATOM     15  C   UNL     1       0.683   3.528  18.667  0.00  0.00    +0.000 C 
ATOM     16  C   UNL     1       1.481   3.998  17.450  0.00  0.00    +0.000 C 
ENDBRANCH   4  11
ENDBRANCH   1   3
BRANCH   1  17
ATOM     17  S   UNL     1       7.584   5.436  18.936  0.00  0.00    +0.000 S 
BRANCH  17  18
ATOM     18  C   UNL     1       7.848   6.987  18.232  0.00  0.00    +0.000 A 
ATOM     19  N   UNL     1       7.295   7.483  17.153  0.00  0.00    +0.000 NA
ATOM     20  N   UNL     1       7.677   8.810  17.075  0.00  0.00    +0.000 NA
ATOM     21  C   UNL     1       8.441   9.094  18.116  0.00  0.00    +0.000 A 
ATOM     22  N   UNL     1       8.584   7.950  18.856  0.00  0.00    +0.000 N 
ATOM     23  H   UNL     1       9.155   7.793  19.675  0.00  0.00    +0.000 HD
BRANCH  21  24
ATOM     24  C   UNL     1       9.022  10.336  18.482  0.00  0.00    +0.000 C 
ATOM     25  C   UNL     1       9.311  10.734  19.732  0.00  0.00    +0.000 C 
BRANCH  25  26
ATOM     26  C   UNL     1       9.909  12.047  20.051  0.00  0.00    +0.000 A 
ATOM     27  C   UNL     1       9.499  12.815  21.154  0.00  0.00    +0.000 A 
ATOM     28  C   UNL     1      10.096  14.051  21.429  0.00  0.00    +0.000 A 
ATOM     29  C   UNL     1      11.121  14.512  20.613  0.00  0.00    +0.000 A 
ATOM     30  F   UNL     1      11.693  15.695  20.876  0.00  0.00    +0.000 F 
ATOM     31  C   UNL     1      11.562  13.760  19.531  0.00  0.00    +0.000 A 
ATOM     32  C   UNL     1      10.962  12.528  19.255  0.00  0.00    +0.000 A 
ENDBRANCH  25  26
ENDBRANCH  21  24
ENDBRANCH  17  18
ENDBRANCH   1  17
TORSDOF 7
ENDMDL
MODEL 2
REMARK VINA RESULT:      -9.0      0.646      1.345
REMARK  Name = 
REMARK  7 active torsions:
REMARK  status: ('A' for Active; 'I' for Inactive)
REMARK    1  A    between atoms: C_2  and  C_3
REMARK    2  A    between atoms: C_3  and  S_4
REMARK    3  A    between atoms: S_4  and  C_5
REMARK    4  A    between atoms: C_8  and  C_9
REMARK    5  A    between atoms: C_10  and  C_11
REMARK    6  A    between atoms: N_19  and  C_20
REMARK    7  A    between atoms: N_19  and  C_26
REMARK                            x       y       z     vdW  Elec       q    Type
REMARK                         _______ _______ _______ _____ _____    ______ ____
ROOT
ATOM      1  C   UNL     1       5.831   5.595  19.438  0.00  0.00    +0.000 C 
ENDROOT
BRANCH   1   3
ATOM      2  O   UNL     1       5.412   3.316  18.879  0.00  0.00    +0.000 OA
ATOM      3  C   UNL     1       4.921   4.449  18.958  0.00  0.00    +0.000 C 
ATOM      4  N   UNL     1       3.603   4.719  18.532  0.00  0.00    +0.000 N 
BRANCH   4   5
ATOM      5  C   UNL     1       3.030   6.024  18.716  0.00  0.00    +0.000 A 
ATOM      6  C   UNL     1       3.079   6.998  17.711  0.00  0.00    +0.000 A 
ATOM      7  C   UNL     1       2.545   8.274  17.928  0.00  0.00    +0.000 A 
ATOM      8  C   UNL     1       1.947   8.589  19.146  0.00  0.00    +0.000 A 
ATOM      9  C   UNL     1       1.859   7.619  20.140  0.00  0.00    +0.000 A 
ATOM     10  C   UNL     1       2.383   6.340  19.922  0.00  0.00    +0.000 A 
ENDBRANCH   4   5
BRANCH   4  11
ATOM     11  C   UNL     1       2.898   3.785  17.572  0.00  0.00    +0.000 C 
ATOM     12  C   UNL     1       3.122   2.259  17.758  0.00  0.00    +0.000 C 
ATOM     13  C   UNL     1       2.513   1.740  19.060  0.00  0.00    +0.000 C 
ATOM     14  C   UNL     1       1.011   1.986  19.091  0.00  0.00    +0.000 C 
ATOM     15  C   UNL     1       0.666   3.443  18.796  0.00  0.00    +0.000 C 
ATOM     16  C   UNL     1       1.354   3.963  17.533  0.00  0.00    +0.000 C 
ENDBRANCH   4  11
ENDBRANCH   1   3
BRANCH   1  17
ATOM     17  S   UNL     1       7.523   5.443  18.765  0.00  0.00    +0.000 S 
BRANCH  17  18
ATOM     18  C   UNL     1       7.865   7.033  18.192  0.00  0.00    +0.000 A 
ATOM     19  N   UNL     1       7.389   7.621  17.123  0.00  0.00    +0.000 NA
ATOM     20  N   UNL     1       7.807   8.938  17.165  0.00  0.00    +0.000 NA
ATOM     21  C   UNL     1       8.515   9.125  18.265  0.00  0.00    +0.000 A 
ATOM     22  N   UNL     1       8.586   7.927  18.927  0.00  0.00    +0.000 N 
ATOM     23  H   UNL     1       9.104   7.695  19.763  0.00  0.00    +0.000 HD
BRANCH  21  24
ATOM     24  C   UNL     1       9.103  10.321  18.754  0.00  0.00    +0.000 C 
ATOM     25  C   UNL     1       9.430  11.397  18.019  0.00  0.00    +0.000 C 
BRANCH  25  26
ATOM     26  C   UNL     1      10.049  12.612  18.586  0.00  0.00    +0.000 A 
ATOM     27  C   UNL     1      10.264  13.774  17.826  0.00  0.00    +0.000 A 
ATOM     28  C   UNL     1      10.845  14.911  18.400  0.00  0.00    +0.000 A 
ATOM     29  C   UNL     1      11.194  14.895  19.744  0.00  0.00    +0.000 A 
ATOM     30  F   UNL     1      11.751  15.982  20.295  0.00  0.00    +0.000 F 
ATOM     31  C   UNL     1      10.969  13.768  20.525  0.00  0.00    +0.000 A 
ATOM     32  C   UNL     1      10.392  12.632  19.948  0.00  0.00    +0.000 A 
ENDBRANCH  25  26
ENDBRANCH  21  24
ENDBRANCH  17  18
ENDBRANCH   1  17
TORSDOF 7
ENDMDL
MODEL 3
REMARK VINA RESULT:      -8.0      1.028      1.425
REMARK  Name = 
REMARK  7 active torsions:
REMARK  status: ('A' for Active; 'I' for Inactive)
REMARK    1  A    between atoms: C_2  and  C_3
REMARK    2  A    between atoms: C_3  and  S_4
REMARK    3  A    between atoms: S_4  and  C_5
REMARK    4  A    between atoms: C_8  and  C_9
REMARK    5  A    between atoms: C_10  and  C_11
REMARK    6  A    between atoms: N_19  and  C_20
REMARK    7  A    between atoms: N_19  and  C_26
REMARK                            x       y       z     vdW  Elec       q    Type
REMARK                         _______ _______ _______ _____ _____    ______ ____
ROOT
ATOM      1  C   UNL     1       5.835   5.856  18.086  0.00  0.00    +0.000 C 
ENDROOT
BRANCH   1   3
ATOM      2  O   UNL     1       5.719   3.528  18.582  0.00  0.00    +0.000 OA
ATOM      3  C   UNL     1       5.092   4.595  18.563  0.00  0.00    +0.000 C 
ATOM      4  N   UNL     1       3.715   4.653  18.869  0.00  0.00    +0.000 N 
BRANCH   4   5
ATOM      5  C   UNL     1       3.033   5.917  18.923  0.00  0.00    +0.000 A 
ATOM      6  C   UNL     1       2.653   6.497  20.141  0.00  0.00    +0.000 A 
ATOM      7  C   UNL     1       1.957   7.712  20.165  0.00  0.00    +0.000 A 
ATOM      8  C   UNL     1       1.643   8.367  18.977  0.00  0.00    +0.000 A 
ATOM      9  C   UNL     1       2.047   7.820  17.762  0.00  0.00    +0.000 A 
ATOM     10  C   UNL     1       2.750   6.611  17.736  0.00  0.00    +0.000 A 
ENDBRANCH   4   5
BRANCH   4  11
ATOM     11  C   UNL     1       2.857   3.409  18.795  0.00  0.00    +0.000 C 
ATOM     12  C   UNL     1       3.141   2.277  19.820  0.00  0.00    +0.000 C 
ATOM     13  C   UNL     1       2.802   2.696  21.251  0.00  0.00    +0.000 C 
ATOM     14  C   UNL     1       1.329   3.062  21.373  0.00  0.00    +0.000 C 
ATOM     15  C   UNL     1       0.908   4.087  20.323  0.00  0.00    +0.000 C 
ATOM     16  C   UNL     1       1.331   3.683  18.910  0.00  0.00    +0.000 C 
ENDBRANCH   4  11
ENDBRANCH   1   3
BRANCH   1  17
ATOM     17  S   UNL     1       7.533   5.935  18.754  0.00  0.00    +0.000 S 
BRANCH  17  18
ATOM     18  C   UNL     1       8.053   7.524  18.330  0.00  0.00    +0.000 A 
ATOM     19  N   UNL     1       7.766   8.199  17.246  0.00  0.00    +0.000 NA
ATOM     20  N   UNL     1       8.258   9.479  17.423  0.00  0.00    +0.000 NA
ATOM     21  C   UNL     1       8.820   9.557  18.617  0.00  0.00    +0.000 A 
ATOM     22  N   UNL     1       8.722   8.325  19.208  0.00  0.00    +0.000 N 
ATOM     23  H   UNL     1       9.105   8.013  20.089  0.00  0.00    +0.000 HD
BRANCH  21  24
ATOM     24  C   UNL     1       9.411  10.680  19.252  0.00  0.00    +0.000 C 
ATOM     25  C   UNL     1       9.521  11.914  18.731  0.00  0.00    +0.000 C 
BRANCH  25  26
ATOM     26  C   UNL     1      10.157  13.043  19.440  0.00  0.00    +0.000 A 
ATOM     27  C   UNL     1      11.284  13.713  18.935  0.00  0.00    +0.000 A 
ATOM     28  C   UNL     1      11.853  14.786  19.630  0.00  0.00    +0.000 A 
ATOM     29  C   UNL     1      11.283  15.205  20.825  0.00  0.00    +0.000 A 
ATOM     30  F   UNL     1      11.827  16.232  21.493  0.00  0.00    +0.000 F 
ATOM     31  C   UNL     1      10.153  14.577  21.334  0.00  0.00    +0.000 A 
ATOM     32  C   UNL     1       9.588  13.502  20.640  0.00  0.00    +0.000 A 
ENDBRANCH  25  26
ENDBRANCH  21  24
ENDBRANCH  17  18
ENDBRANCH   1  17
TORSDOF 7
ENDMDL
MODEL 4
REMARK VINA RESULT:      -8.0      1.328      1.877
REMARK  Name = 
REMARK  7 active torsions:
REMARK  status: ('A' for Active; 'I' for Inactive)
REMARK    1  A    between atoms: C_2  and  C_3
REMARK    2  A    between atoms: C_3  and  S_4
REMARK    3  A    between atoms: S_4  and  C_5
REMARK    4  A    between atoms: C_8  and  C_9
REMARK    5  A    between atoms: C_10  and  C_11
REMARK    6  A    between atoms: N_19  and  C_20
REMARK    7  A    between atoms: N_19  and  C_26
REMARK                            x       y       z     vdW  Elec       q    Type
REMARK                         _______ _______ _______ _____ _____    ______ ____
ROOT
ATOM      1  C   UNL     1       4.390   5.348  16.819  0.00  0.00    +0.000 C 
ENDROOT
BRANCH   1   3
ATOM      2  O   UNL     1       5.067   3.541  18.217  0.00  0.00    +0.000 OA
ATOM      3  C   UNL     1       4.412   4.590  18.159  0.00  0.00    +0.000 C 
ATOM      4  N   UNL     1       3.627   5.036  19.243  0.00  0.00    +0.000 N 
BRANCH   4   5
ATOM      5  C   UNL     1       2.947   6.301  19.177  0.00  0.00    +0.000 A 
ATOM      6  C   UNL     1       2.342   6.871  20.306  0.00  0.00    +0.000 A 
ATOM      7  C   UNL     1       1.654   8.087  20.208  0.00  0.00    +0.000 A 
ATOM      8  C   UNL     1       1.571   8.752  18.987  0.00  0.00    +0.000 A 
ATOM      9  C   UNL     1       2.198   8.215  17.867  0.00  0.00    +0.000 A 
ATOM     10  C   UNL     1       2.894   7.005  17.964  0.00  0.00    +0.000 A 
ENDBRANCH   4   5
BRANCH   4  11
ATOM     11  C   UNL     1       3.191   4.074  20.326  0.00  0.00    +0.000 C 
ATOM     12  C   UNL     1       1.763   4.251  20.913  0.00  0.00    +0.000 C 
ATOM     13  C   UNL     1       0.674   3.937  19.886  0.00  0.00    +0.000 C 
ATOM     14  C   UNL     1       0.791   2.500  19.396  0.00  0.00    +0.000 C 
ATOM     15  C   UNL     1       2.200   2.178  18.906  0.00  0.00    +0.000 C 
ATOM     16  C   UNL     1       3.276   2.577  19.918  0.00  0.00    +0.000 C 
ENDBRANCH   4  11
ENDBRANCH   1   3
BRANCH   1  17
ATOM     17  S   UNL     1       6.054   5.454  16.073  0.00  0.00    +0.000 S 
BRANCH  17  18
ATOM     18  C   UNL     1       6.943   6.388  17.218  0.00  0.00    +0.000 A 
ATOM     19  N   UNL     1       7.648   5.954  18.232  0.00  0.00    +0.000 NA
ATOM     20  N   UNL     1       8.315   7.045  18.758  0.00  0.00    +0.000 NA
ATOM     21  C   UNL     1       8.012   8.114  18.042  0.00  0.00    +0.000 A 
ATOM     22  N   UNL     1       7.126   7.731  17.070  0.00  0.00    +0.000 N 
ATOM     23  H   UNL     1       6.639   8.304  16.395  0.00  0.00    +0.000 HD
BRANCH  21  24
ATOM     24  C   UNL     1       8.494   9.443  18.176  0.00  0.00    +0.000 C 
ATOM     25  C   UNL     1       9.374   9.873  19.095  0.00  0.00    +0.000 C 
BRANCH  25  26
ATOM     26  C   UNL     1       9.833  11.275  19.189  0.00  0.00    +0.000 A 
ATOM     27  C   UNL     1      10.114  11.895  20.418  0.00  0.00    +0.000 A 
ATOM     28  C   UNL     1      10.555  13.222  20.468  0.00  0.00    +0.000 A 
ATOM     29  C   UNL     1      10.737  13.927  19.285  0.00  0.00    +0.000 A 
ATOM     30  F   UNL     1      11.159  15.198  19.330  0.00  0.00    +0.000 F 
ATOM     31  C   UNL     1      10.490  13.329  18.055  0.00  0.00    +0.000 A 
ATOM     32  C   UNL     1      10.045  12.004  18.008  0.00  0.00    +0.000 A 
ENDBRANCH  25  26
ENDBRANCH  21  24
ENDBRANCH  17  18
ENDBRANCH   1  17
TORSDOF 7
ENDMDL
MODEL 5
REMARK VINA RESULT:      -7.9      1.361      1.830
REMARK  Name = 
REMARK  7 active torsions:
REMARK  status: ('A' for Active; 'I' for Inactive)
REMARK    1  A    between atoms: C_2  and  C_3
REMARK    2  A    between atoms: C_3  and  S_4
REMARK    3  A    between atoms: S_4  and  C_5
REMARK    4  A    between atoms: C_8  and  C_9
REMARK    5  A    between atoms: C_10  and  C_11
REMARK    6  A    between atoms: N_19  and  C_20
REMARK    7  A    between atoms: N_19  and  C_26
REMARK                            x       y       z     vdW  Elec       q    Type
REMARK                         _______ _______ _______ _____ _____    ______ ____
ROOT
ATOM      1  C   UNL     1       4.906   5.835  16.566  0.00  0.00    +0.000 C 
ENDROOT
BRANCH   1   3
ATOM      2  O   UNL     1       4.711   3.466  16.729  0.00  0.00    +0.000 OA
ATOM      3  C   UNL     1       4.243   4.551  17.097  0.00  0.00    +0.000 C 
ATOM      4  N   UNL     1       3.081   4.627  17.894  0.00  0.00    +0.000 N 
BRANCH   4   5
ATOM      5  C   UNL     1       2.610   5.896  18.378  0.00  0.00    +0.000 A 
ATOM      6  C   UNL     1       2.067   6.857  17.515  0.00  0.00    +0.000 A 
ATOM      7  C   UNL     1       1.649   8.100  18.006  0.00  0.00    +0.000 A 
ATOM      8  C   UNL     1       1.758   8.393  19.364  0.00  0.00    +0.000 A 
ATOM      9  C   UNL     1       2.263   7.434  20.237  0.00  0.00    +0.000 A 
ATOM     10  C   UNL     1       2.672   6.188  19.750  0.00  0.00    +0.000 A 
ENDBRANCH   4   5
BRANCH   4  11
ATOM     11  C   UNL     1       2.118   3.462  17.964  0.00  0.00    +0.000 C 
ATOM     12  C   UNL     1       2.620   2.152  18.632  0.00  0.00    +0.000 C 
ATOM     13  C   UNL     1       2.867   2.326  20.131  0.00  0.00    +0.000 C 
ATOM     14  C   UNL     1       1.588   2.740  20.846  0.00  0.00    +0.000 C 
ATOM     15  C   UNL     1       0.937   3.956  20.191  0.00  0.00    +0.000 C 
ATOM     16  C   UNL     1       0.777   3.789  18.679  0.00  0.00    +0.000 C 
ENDBRANCH   4  11
ENDBRANCH   1   3
BRANCH   1  17
ATOM     17  S   UNL     1       6.699   5.611  16.296  0.00  0.00    +0.000 S 
BRANCH  17  18
ATOM     18  C   UNL     1       7.409   6.705  17.424  0.00  0.00    +0.000 A 
ATOM     19  N   UNL     1       7.943   6.425  18.587  0.00  0.00    +0.000 NA
ATOM     20  N   UNL     1       8.532   7.585  19.053  0.00  0.00    +0.000 NA
ATOM     21  C   UNL     1       8.355   8.541  18.156  0.00  0.00    +0.000 A 
ATOM     22  N   UNL     1       7.628   8.016  17.121  0.00  0.00    +0.000 N 
ATOM     23  H   UNL     1       7.257   8.484  16.306  0.00  0.00    +0.000 HD
BRANCH  21  24
ATOM     24  C   UNL     1       8.825   9.880  18.177  0.00  0.00    +0.000 C 
ATOM     25  C   UNL     1       9.159  10.582  19.273  0.00  0.00    +0.000 C 
BRANCH  25  26
ATOM     26  C   UNL     1       9.635  11.980  19.231  0.00  0.00    +0.000 A 
ATOM     27  C   UNL     1       9.026  12.961  18.430  0.00  0.00    +0.000 A 
ATOM     28  C   UNL     1       9.499  14.278  18.423  0.00  0.00    +0.000 A 
ATOM     29  C   UNL     1      10.572  14.623  19.235  0.00  0.00    +0.000 A 
ATOM     30  F   UNL     1      11.027  15.883  19.230  0.00  0.00    +0.000 F 
ATOM     31  C   UNL     1      11.176  13.678  20.056  0.00  0.00    +0.000 A 
ATOM     32  C   UNL     1      10.704  12.362  20.058  0.00  0.00    +0.000 A 
ENDBRANCH  25  26
ENDBRANCH  21  24
ENDBRANCH  17  18
ENDBRANCH   1  17
TORSDOF 7
ENDMDL
MODEL 6
REMARK VINA RESULT:      -7.9      1.340      2.229
REMARK  Name = 
REMARK  7 active torsions:
REMARK  status: ('A' for Active; 'I' for Inactive)
REMARK    1  A    between atoms: C_2  and  C_3
REMARK    2  A    between atoms: C_3  and  S_4
REMARK    3  A    between atoms: S_4  and  C_5
REMARK    4  A    between atoms: C_8  and  C_9
REMARK    5  A    between atoms: C_10  and  C_11
REMARK    6  A    between atoms: N_19  and  C_20
REMARK    7  A    between atoms: N_19  and  C_26
REMARK                            x       y       z     vdW  Elec       q    Type
REMARK                         _______ _______ _______ _____ _____    ______ ____
ROOT
ATOM      1  C   UNL     1       4.505   5.206  16.821  0.00  0.00    +0.000 C 
ENDROOT
BRANCH   1   3
ATOM      2  O   UNL     1       5.114   3.428  18.286  0.00  0.00    +0.000 OA
ATOM      3  C   UNL     1       4.455   4.469  18.172  0.00  0.00    +0.000 C 
ATOM      4  N   UNL     1       3.603   4.925  19.201  0.00  0.00    +0.000 N 
BRANCH   4   5
ATOM      5  C   UNL     1       2.917   6.181  19.075  0.00  0.00    +0.000 A 
ATOM      6  C   UNL     1       2.717   6.790  17.829  0.00  0.00    +0.000 A 
ATOM      7  C   UNL     1       2.078   8.032  17.737  0.00  0.00    +0.000 A 
ATOM      8  C   UNL     1       1.620   8.675  18.885  0.00  0.00    +0.000 A 
ATOM      9  C   UNL     1       1.780   8.064  20.126  0.00  0.00    +0.000 A 
ATOM     10  C   UNL     1       2.409   6.819  20.219  0.00  0.00    +0.000 A 
ENDBRANCH   4   5
BRANCH   4  11
ATOM     11  C   UNL     1       3.113   3.975  20.272  0.00  0.00    +0.000 C 
ATOM     12  C   UNL     1       1.644   4.131  20.754  0.00  0.00    +0.000 C 
ATOM     13  C   UNL     1       0.637   3.772  19.661  0.00  0.00    +0.000 C 
ATOM     14  C   UNL     1       0.817   2.329  19.212  0.00  0.00    +0.000 C 
ATOM     15  C   UNL     1       2.264   2.028  18.829  0.00  0.00    +0.000 C 
ATOM     16  C   UNL     1       3.258   2.472  19.903  0.00  0.00    +0.000 C 
ENDBRANCH   4  11
ENDBRANCH   1   3
BRANCH   1  17
ATOM     17  S   UNL     1       6.200   5.265  16.144  0.00  0.00    +0.000 S 
BRANCH  17  18
ATOM     18  C   UNL     1       7.030   6.304  17.242  0.00  0.00    +0.000 A 
ATOM     19  N   UNL     1       7.740   5.963  18.287  0.00  0.00    +0.000 NA
ATOM     20  N   UNL     1       8.350   7.112  18.756  0.00  0.00    +0.000 NA
ATOM     21  C   UNL     1       8.007   8.123  17.976  0.00  0.00    +0.000 A 
ATOM     22  N   UNL     1       7.153   7.643  17.018  0.00  0.00    +0.000 N 
ATOM     23  H   UNL     1       6.649   8.153  16.306  0.00  0.00    +0.000 HD
BRANCH  21  24
ATOM     24  C   UNL     1       8.425   9.478  18.038  0.00  0.00    +0.000 C 
ATOM     25  C   UNL     1       9.354   9.979  18.869  0.00  0.00    +0.000 C 
BRANCH  25  26
ATOM     26  C   UNL     1       9.742  11.405  18.891  0.00  0.00    +0.000 A 
ATOM     27  C   UNL     1      10.370  12.034  17.802  0.00  0.00    +0.000 A 
ATOM     28  C   UNL     1      10.714  13.389  17.857  0.00  0.00    +0.000 A 
ATOM     29  C   UNL     1      10.411  14.126  18.995  0.00  0.00    +0.000 A 
ATOM     30  F   UNL     1      10.740  15.424  19.048  0.00  0.00    +0.000 F 
ATOM     31  C   UNL     1       9.767  13.535  20.075  0.00  0.00    +0.000 A 
ATOM     32  C   UNL     1       9.428  12.179  20.020  0.00  0.00    +0.000 A 
ENDBRANCH  25  26
ENDBRANCH  21  24
ENDBRANCH  17  18
ENDBRANCH   1  17
TORSDOF 7
ENDMDL
MODEL 7
REMARK VINA RESULT:      -7.9      5.669      8.215
REMARK  Name = 
REMARK  7 active torsions:
REMARK  status: ('A' for Active; 'I' for Inactive)
REMARK    1  A    between atoms: C_2  and  C_3
REMARK    2  A    between atoms: C_3  and  S_4
REMARK    3  A    between atoms: S_4  and  C_5
REMARK    4  A    between atoms: C_8  and  C_9
REMARK    5  A    between atoms: C_10  and  C_11
REMARK    6  A    between atoms: N_19  and  C_20
REMARK    7  A    between atoms: N_19  and  C_26
REMARK                            x       y       z     vdW  Elec       q    Type
REMARK                         _______ _______ _______ _____ _____    ______ ____
ROOT
ATOM      1  C   UNL     1       3.180   7.237  18.269  0.00  0.00    +0.000 C 
ENDROOT
BRANCH   1   3
ATOM      2  O   UNL     1       1.352   5.807  17.730  0.00  0.00    +0.000 OA
ATOM      3  C   UNL     1       2.575   5.868  17.906  0.00  0.00    +0.000 C 
ATOM      4  N   UNL     1       3.388   4.715  17.878  0.00  0.00    +0.000 N 
BRANCH   4   5
ATOM      5  C   UNL     1       4.816   4.827  17.999  0.00  0.00    +0.000 A 
ATOM      6  C   UNL     1       5.421   5.297  19.172  0.00  0.00    +0.000 A 
ATOM      7  C   UNL     1       6.812   5.430  19.252  0.00  0.00    +0.000 A 
ATOM      8  C   UNL     1       7.616   5.087  18.168  0.00  0.00    +0.000 A 
ATOM      9  C   UNL     1       7.030   4.585  17.009  0.00  0.00    +0.000 A 
ATOM     10  C   UNL     1       5.641   4.441  16.930  0.00  0.00    +0.000 A 
ENDBRANCH   4   5
BRANCH   4  11
ATOM     11  C   UNL     1       2.785   3.342  18.078  0.00  0.00    +0.000 C 
ATOM     12  C   UNL     1       3.686   2.246  18.709  0.00  0.00    +0.000 C 
ATOM     13  C   UNL     1       4.032   2.551  20.167  0.00  0.00    +0.000 C 
ATOM     14  C   UNL     1       2.771   2.646  21.014  0.00  0.00    +0.000 C 
ATOM     15  C   UNL     1       1.753   3.614  20.414  0.00  0.00    +0.000 C 
ATOM     16  C   UNL     1       1.487   3.338  18.933  0.00  0.00    +0.000 C 
ENDBRANCH   4  11
ENDBRANCH   1   3
BRANCH   1  17
ATOM     17  S   UNL     1       1.939   8.574  18.171  0.00  0.00    +0.000 S 
BRANCH  17  18
ATOM     18  C   UNL     1       1.334   8.671  19.783  0.00  0.00    +0.000 A 
ATOM     19  N   UNL     1       1.657   7.921  20.808  0.00  0.00    +0.000 NA
ATOM     20  N   UNL     1       1.053   8.475  21.921  0.00  0.00    +0.000 NA
ATOM     21  C   UNL     1       0.389   9.557  21.551  0.00  0.00    +0.000 A 
ATOM     22  N   UNL     1       0.533   9.694  20.195  0.00  0.00    +0.000 N 
ATOM     23  H   UNL     1       0.103  10.368  19.578  0.00  0.00    +0.000 HD
BRANCH  21  24
ATOM     24  C   UNL     1      -0.340  10.473  22.353  0.00  0.00    +0.000 C 
ATOM     25  C   UNL     1      -0.915  11.610  21.927  0.00  0.00    +0.000 C 
BRANCH  25  26
ATOM     26  C   UNL     1      -1.656  12.530  22.815  0.00  0.00    +0.000 A 
ATOM     27  C   UNL     1      -2.944  12.239  23.297  0.00  0.00    +0.000 A 
ATOM     28  C   UNL     1      -3.612  13.131  24.144  0.00  0.00    +0.000 A 
ATOM     29  C   UNL     1      -2.984  14.308  24.529  0.00  0.00    +0.000 A 
ATOM     30  F   UNL     1      -3.621  15.163  25.340  0.00  0.00    +0.000 F 
ATOM     31  C   UNL     1      -1.701  14.608  24.087  0.00  0.00    +0.000 A 
ATOM     32  C   UNL     1      -1.037  13.718  23.237  0.00  0.00    +0.000 A 
ENDBRANCH  25  26
ENDBRANCH  21  24
ENDBRANCH  17  18
ENDBRANCH   1  17
TORSDOF 7
ENDMDL
MODEL 8
REMARK VINA RESULT:      -7.9      7.619     10.648
REMARK  Name = 
REMARK  7 active torsions:
REMARK  status: ('A' for Active; 'I' for Inactive)
REMARK    1  A    between atoms: C_2  and  C_3
REMARK    2  A    between atoms: C_3  and  S_4
REMARK    3  A    between atoms: S_4  and  C_5
REMARK    4  A    between atoms: C_8  and  C_9
REMARK    5  A    between atoms: C_10  and  C_11
REMARK    6  A    between atoms: N_19  and  C_20
REMARK    7  A    between atoms: N_19  and  C_26
REMARK                            x       y       z     vdW  Elec       q    Type
REMARK                         _______ _______ _______ _____ _____    ______ ____
ROOT
ATOM      1  C   UNL     1      -1.639  12.456  20.032  0.00  0.00    +0.000 C 
ENDROOT
BRANCH   1   3
ATOM      2  O   UNL     1      -3.268  11.704  18.463  0.00  0.00    +0.000 OA
ATOM      3  C   UNL     1      -3.091  12.251  19.559  0.00  0.00    +0.000 C 
ATOM      4  N   UNL     1      -4.165  12.766  20.315  0.00  0.00    +0.000 N 
BRANCH   4   5
ATOM      5  C   UNL     1      -3.938  13.317  21.623  0.00  0.00    +0.000 A 
ATOM      6  C   UNL     1      -3.855  12.504  22.761  0.00  0.00    +0.000 A 
ATOM      7  C   UNL     1      -3.669  13.069  24.029  0.00  0.00    +0.000 A 
ATOM      8  C   UNL     1      -3.553  14.450  24.174  0.00  0.00    +0.000 A 
ATOM      9  C   UNL     1      -3.597  15.266  23.047  0.00  0.00    +0.000 A 
ATOM     10  C   UNL     1      -3.773  14.703  21.779  0.00  0.00    +0.000 A 
ENDBRANCH   4   5
BRANCH   4  11
ATOM     11  C   UNL     1      -5.491  13.078  19.657  0.00  0.00    +0.000 C 
ATOM     12  C   UNL     1      -6.074  12.022  18.677  0.00  0.00    +0.000 C 
ATOM     13  C   UNL     1      -6.479  10.732  19.392  0.00  0.00    +0.000 C 
ATOM     14  C   UNL     1      -7.541  11.010  20.446  0.00  0.00    +0.000 C 
ATOM     15  C   UNL     1      -7.121  12.127  21.398  0.00  0.00    +0.000 C 
ATOM     16  C   UNL     1      -6.642  13.377  20.657  0.00  0.00    +0.000 C 
ENDBRANCH   4  11
ENDBRANCH   1   3
BRANCH   1  17
ATOM     17  S   UNL     1      -0.457  12.383  18.641  0.00  0.00    +0.000 S 
BRANCH  17  18
ATOM     18  C   UNL     1       0.462  10.963  18.976  0.00  0.00    +0.000 A 
ATOM     19  N   UNL     1       0.402  10.201  20.040  0.00  0.00    +0.000 NA
ATOM     20  N   UNL     1       1.191   9.093  19.790  0.00  0.00    +0.000 NA
ATOM     21  C   UNL     1       1.700   9.200  18.574  0.00  0.00    +0.000 A 
ATOM     22  N   UNL     1       1.271  10.387  18.042  0.00  0.00    +0.000 N 
ATOM     23  H   UNL     1       1.523  10.815  17.162  0.00  0.00    +0.000 HD
BRANCH  21  24
ATOM     24  C   UNL     1       2.525   8.284  17.870  0.00  0.00    +0.000 C 
ATOM     25  C   UNL     1       2.791   7.019  18.237  0.00  0.00    +0.000 C 
BRANCH  25  26
ATOM     26  C   UNL     1       3.667   6.115  17.464  0.00  0.00    +0.000 A 
ATOM     27  C   UNL     1       4.665   6.590  16.596  0.00  0.00    +0.000 A 
ATOM     28  C   UNL     1       5.482   5.703  15.887  0.00  0.00    +0.000 A 
ATOM     29  C   UNL     1       5.317   4.334  16.060  0.00  0.00    +0.000 A 
ATOM     30  F   UNL     1       6.098   3.483  15.382  0.00  0.00    +0.000 F 
ATOM     31  C   UNL     1       4.355   3.838  16.931  0.00  0.00    +0.000 A 
ATOM     32  C   UNL     1       3.536   4.727  17.635  0.00  0.00    +0.000 A 
ENDBRANCH  25  26
ENDBRANCH  21  24
ENDBRANCH  17  18
ENDBRANCH   1  17
TORSDOF 7
ENDMDL
MODEL 9
REMARK VINA RESULT:      -7.8      5.918      8.064
REMARK  Name = 
REMARK  7 active torsions:
REMARK  status: ('A' for Active; 'I' for Inactive)
REMARK    1  A    between atoms: C_2  and  C_3
REMARK    2  A    between atoms: C_3  and  S_4
REMARK    3  A    between atoms: S_4  and  C_5
REMARK    4  A    between atoms: C_8  and  C_9
REMARK    5  A    between atoms: C_10  and  C_11
REMARK    6  A    between atoms: N_19  and  C_20
REMARK    7  A    between atoms: N_19  and  C_26
REMARK                            x       y       z     vdW  Elec       q    Type
REMARK                         _______ _______ _______ _____ _____    ______ ____
ROOT
ATOM      1  C   UNL     1       3.456   7.399  18.656  0.00  0.00    +0.000 C 
ENDROOT
BRANCH   1   3
ATOM      2  O   UNL     1       1.922   6.230  20.056  0.00  0.00    +0.000 OA
ATOM      3  C   UNL     1       2.902   6.118  19.308  0.00  0.00    +0.000 C 
ATOM      4  N   UNL     1       3.561   4.884  19.126  0.00  0.00    +0.000 N 
BRANCH   4   5
ATOM      5  C   UNL     1       4.641   4.766  18.185  0.00  0.00    +0.000 A 
ATOM      6  C   UNL     1       4.408   4.544  16.821  0.00  0.00    +0.000 A 
ATOM      7  C   UNL     1       5.478   4.397  15.930  0.00  0.00    +0.000 A 
ATOM      8  C   UNL     1       6.791   4.480  16.388  0.00  0.00    +0.000 A 
ATOM      9  C   UNL     1       7.036   4.736  17.734  0.00  0.00    +0.000 A 
ATOM     10  C   UNL     1       5.969   4.894  18.624  0.00  0.00    +0.000 A 
ENDBRANCH   4   5
BRANCH   4  11
ATOM     11  C   UNL     1       3.406   3.771  20.140  0.00  0.00    +0.000 C 
ATOM     12  C   UNL     1       1.988   3.523  20.724  0.00  0.00    +0.000 C 
ATOM     13  C   UNL     1       1.012   3.001  19.668  0.00  0.00    +0.000 C 
ATOM     14  C   UNL     1       1.501   1.682  19.085  0.00  0.00    +0.000 C 
ATOM     15  C   UNL     1       2.941   1.779  18.588  0.00  0.00    +0.000 C 
ATOM     16  C   UNL     1       3.881   2.381  19.634  0.00  0.00    +0.000 C 
ENDBRANCH   4  11
ENDBRANCH   1   3
BRANCH   1  17
ATOM     17  S   UNL     1       2.243   8.160  17.521  0.00  0.00    +0.000 S 
BRANCH  17  18
ATOM     18  C   UNL     1       1.850   9.647  18.302  0.00  0.00    +0.000 A 
ATOM     19  N   UNL     1       2.270  10.849  17.997  0.00  0.00    +0.000 NA
ATOM     20  N   UNL     1       1.560  11.738  18.782  0.00  0.00    +0.000 NA
ATOM     21  C   UNL     1       0.714  11.057  19.535  0.00  0.00    +0.000 A 
ATOM     22  N   UNL     1       0.890   9.726  19.267  0.00  0.00    +0.000 N 
ATOM     23  H   UNL     1       0.458   8.928  19.711  0.00  0.00    +0.000 HD
BRANCH  21  24
ATOM     24  C   UNL     1      -0.250  11.545  20.457  0.00  0.00    +0.000 C 
ATOM     25  C   UNL     1       0.006  12.293  21.544  0.00  0.00    +0.000 C 
BRANCH  25  26
ATOM     26  C   UNL     1      -1.042  12.764  22.472  0.00  0.00    +0.000 A 
ATOM     27  C   UNL     1      -0.969  14.007  23.124  0.00  0.00    +0.000 A 
ATOM     28  C   UNL     1      -1.986  14.425  23.990  0.00  0.00    +0.000 A 
ATOM     29  C   UNL     1      -3.091  13.608  24.190  0.00  0.00    +0.000 A 
ATOM     30  F   UNL     1      -4.066  14.006  25.019  0.00  0.00    +0.000 F 
ATOM     31  C   UNL     1      -3.200  12.385  23.539  0.00  0.00    +0.000 A 
ATOM     32  C   UNL     1      -2.181  11.968  22.677  0.00  0.00    +0.000 A 
ENDBRANCH  25  26
ENDBRANCH  21  24
ENDBRANCH  17  18
ENDBRANCH   1  17
TORSDOF 7
ENDMDL
