MODEL 1
REMARK VINA RESULT:      -8.2      0.000      0.000
REMARK  Name = 
REMARK  10 active torsions:
REMARK  status: ('A' for Active; 'I' for Inactive)
REMARK    1  A    between atoms: C_1  and  O_2
REMARK    2  A    between atoms: O_2  and  C_3
REMARK    3  A    between atoms: C_5  and  N_6
REMARK    4  A    between atoms: C_7  and  C_9
REMARK    5  A    between atoms: C_9  and  S_10
REMARK    6  A    between atoms: S_10  and  C_11
REMARK    7  A    between atoms: C_25  and  O_26
REMARK    8  A    between atoms: O_26  and  C_27
REMARK    9  A    between atoms: C_28  and  O_29
REMARK   10  A    between atoms: O_29  and  C_30
REMARK                            x       y       z     vdW  Elec       q    Type
REMARK                         _______ _______ _______ _____ _____    ______ ____
ROOT
ATOM      1  N   UNL     1       1.085   9.322  19.506  0.00  0.00    +0.000 N 
ATOM      2  C   UNL     1       1.505   8.283  20.317  0.00  0.00    +0.000 C 
ATOM      3  O   UNL     1       1.208   8.174  21.511  0.00  0.00    +0.000 OA
ATOM      4  H   UNL     1       1.444   9.334  18.555  0.00  0.00    +0.000 HD
ENDROOT
BRANCH   1   7
ATOM      5  C   UNL     1       0.316  12.698  21.020  0.00  0.00    +0.000 A 
ATOM      6  C   UNL     1       0.943  11.462  20.778  0.00  0.00    +0.000 A 
ATOM      7  C   UNL     1       0.395  10.506  19.933  0.00  0.00    +0.000 A 
ATOM      8  C   UNL     1      -0.895  10.720  19.473  0.00  0.00    +0.000 A 
ATOM      9  C   UNL     1      -1.583  11.920  19.744  0.00  0.00    +0.000 A 
ATOM     10  C   UNL     1      -0.982  12.940  20.512  0.00  0.00    +0.000 A 
BRANCH   5  12
ATOM     11  C   UNL     1       1.781  14.561  21.030  0.00  0.00    +0.000 C 
ATOM     12  O   UNL     1       0.920  13.684  21.782  0.00  0.00    +0.000 OA
ENDBRANCH   5  12
BRANCH   9  13
ATOM     13  O   UNL     1      -2.858  11.922  19.218  0.00  0.00    +0.000 OA
ATOM     14  C   UNL     1      -3.011  11.442  17.887  0.00  0.00    +0.000 C 
ENDBRANCH   9  13
BRANCH  10  15
ATOM     15  O   UNL     1      -1.748  14.056  20.724  0.00  0.00    +0.000 OA
ATOM     16  C   UNL     1      -2.512  14.198  21.911  0.00  0.00    +0.000 C 
ENDBRANCH  10  15
ENDBRANCH   1   7
BRANCH   2  17
ATOM     17  C   UNL     1       2.279   7.129  19.686  0.00  0.00    +0.000 C 
BRANCH  17  18
ATOM     18  S   UNL     1       3.111   7.305  18.081  0.00  0.00    +0.000 S 
BRANCH  18  19
ATOM     19  C   UNL     1       3.920   5.721  17.766  0.00  0.00    +0.000 A 
ATOM     20  C   UNL     1       3.375   4.506  18.100  0.00  0.00    +0.000 A 
ATOM     21  C   UNL     1       4.224   3.570  18.661  0.00  0.00    +0.000 A 
ATOM     22  N   UNL     1       5.479   3.836  19.061  0.00  0.00    +0.000 NA
ATOM     23  C   UNL     1       6.001   5.004  18.612  0.00  0.00    +0.000 A 
ATOM     24  C   UNL     1       7.190   5.549  19.084  0.00  0.00    +0.000 A 
ATOM     25  C   UNL     1       7.750   6.702  18.511  0.00  0.00    +0.000 A 
ATOM     26  C   UNL     1       7.227   7.210  17.337  0.00  0.00    +0.000 A 
ATOM     27  C   UNL     1       6.000   6.744  16.905  0.00  0.00    +0.000 A 
ATOM     28  C   UNL     1       5.316   5.803  17.701  0.00  0.00    +0.000 A 
ATOM     29  C   UNL     1       3.561   2.220  18.660  0.00  0.00    +0.000 C 
ATOM     30  C   UNL     1       2.511   2.469  17.560  0.00  0.00    +0.000 C 
ATOM     31  C   UNL     1       2.051   3.918  17.784  0.00  0.00    +0.000 C 
ENDBRANCH  18  19
ENDBRANCH  17  18
ENDBRANCH   2  17
TORSDOF 7
ENDMDL
MODEL 2
REMARK VINA RESULT:      -8.2      0.283      2.301
REMARK  Name = 
REMARK  10 active torsions:
REMARK  status: ('A' for Active; 'I' for Inactive)
REMARK    1  A    between atoms: C_1  and  O_2
REMARK    2  A    between atoms: O_2  and  C_3
REMARK    3  A    between atoms: C_5  and  N_6
REMARK    4  A    between atoms: C_7  and  C_9
REMARK    5  A    between atoms: C_9  and  S_10
REMARK    6  A    between atoms: S_10  and  C_11
REMARK    7  A    between atoms: C_25  and  O_26
REMARK    8  A    between atoms: O_26  and  C_27
REMARK    9  A    between atoms: C_28  and  O_29
REMARK   10  A    between atoms: O_29  and  C_30
REMARK                            x       y       z     vdW  Elec       q    Type
REMARK                         _______ _______ _______ _____ _____    ______ ____
ROOT
ATOM      1  N   UNL     1       1.233   9.458  19.354  0.00  0.00    +0.000 N 
ATOM      2  C   UNL     1       1.413   8.329  20.133  0.00  0.00    +0.000 C 
ATOM      3  O   UNL     1       0.753   8.074  21.145  0.00  0.00    +0.000 OA
ATOM      4  H   UNL     1       1.878   9.587  18.580  0.00  0.00    +0.000 HD
ENDROOT
BRANCH   1   7
ATOM      5  C   UNL     1      -1.744  11.773  19.606  0.00  0.00    +0.000 A 
ATOM      6  C   UNL     1      -0.874  10.774  19.132  0.00  0.00    +0.000 A 
ATOM      7  C   UNL     1       0.392  10.579  19.667  0.00  0.00    +0.000 A 
ATOM      8  C   UNL     1       0.862  11.525  20.565  0.00  0.00    +0.000 A 
ATOM      9  C   UNL     1       0.043  12.579  21.019  0.00  0.00    +0.000 A 
ATOM     10  C   UNL     1      -1.284  12.713  20.558  0.00  0.00    +0.000 A 
BRANCH   5  12
ATOM     11  C   UNL     1      -3.191  11.569  17.740  0.00  0.00    +0.000 C 
ATOM     12  O   UNL     1      -3.041  11.892  19.136  0.00  0.00    +0.000 OA
ENDBRANCH   5  12
BRANCH   9  13
ATOM     13  O   UNL     1       0.708  13.421  21.885  0.00  0.00    +0.000 OA
ATOM     14  C   UNL     1       1.569  14.397  21.310  0.00  0.00    +0.000 C 
ENDBRANCH   9  13
BRANCH  10  15
ATOM     15  O   UNL     1      -1.982  13.781  21.055  0.00  0.00    +0.000 OA
ATOM     16  C   UNL     1      -2.815  13.638  22.195  0.00  0.00    +0.000 C 
ENDBRANCH  10  15
ENDBRANCH   1   7
BRANCH   2  17
ATOM     17  C   UNL     1       2.397   7.263  19.659  0.00  0.00    +0.000 C 
BRANCH  17  18
ATOM     18  S   UNL     1       3.039   7.248  17.960  0.00  0.00    +0.000 S 
BRANCH  18  19
ATOM     19  C   UNL     1       3.853   5.648  17.753  0.00  0.00    +0.000 A 
ATOM     20  C   UNL     1       3.297   4.453  18.136  0.00  0.00    +0.000 A 
ATOM     21  C   UNL     1       4.128   3.548  18.771  0.00  0.00    +0.000 A 
ATOM     22  N   UNL     1       5.372   3.835  19.191  0.00  0.00    +0.000 NA
ATOM     23  C   UNL     1       5.908   4.976  18.695  0.00  0.00    +0.000 A 
ATOM     24  C   UNL     1       7.085   5.546  19.171  0.00  0.00    +0.000 A 
ATOM     25  C   UNL     1       7.663   6.666  18.553  0.00  0.00    +0.000 A 
ATOM     26  C   UNL     1       7.175   7.111  17.339  0.00  0.00    +0.000 A 
ATOM     27  C   UNL     1       5.960   6.623  16.898  0.00  0.00    +0.000 A 
ATOM     28  C   UNL     1       5.252   5.726  17.723  0.00  0.00    +0.000 A 
ATOM     29  C   UNL     1       3.463   2.201  18.823  0.00  0.00    +0.000 C 
ATOM     30  C   UNL     1       2.445   2.391  17.682  0.00  0.00    +0.000 C 
ATOM     31  C   UNL     1       1.981   3.850  17.814  0.00  0.00    +0.000 C 
ENDBRANCH  18  19
ENDBRANCH  17  18
ENDBRANCH   2  17
TORSDOF 7
ENDMDL
MODEL 3
REMARK VINA RESULT:      -8.1      1.192      2.477
REMARK  Name = 
REMARK  10 active torsions:
REMARK  status: ('A' for Active; 'I' for Inactive)
REMARK    1  A    between atoms: C_1  and  O_2
REMARK    2  A    between atoms: O_2  and  C_3
REMARK    3  A    between atoms: C_5  and  N_6
REMARK    4  A    between atoms: C_7  and  C_9
REMARK    5  A    between atoms: C_9  and  S_10
REMARK    6  A    between atoms: S_10  and  C_11
REMARK    7  A    between atoms: C_25  and  O_26
REMARK    8  A    between atoms: O_26  and  C_27
REMARK    9  A    between atoms: C_28  and  O_29
REMARK   10  A    between atoms: O_29  and  C_30
REMARK                            x       y       z     vdW  Elec       q    Type
REMARK                         _______ _______ _______ _____ _____    ______ ____
ROOT
ATOM      1  N   UNL     1       0.917   9.297  18.968  0.00  0.00    +0.000 N 
ATOM      2  C   UNL     1       1.320   8.373  19.914  0.00  0.00    +0.000 C 
ATOM      3  O   UNL     1       0.756   8.203  21.001  0.00  0.00    +0.000 OA
ATOM      4  H   UNL     1       1.497   9.385  18.139  0.00  0.00    +0.000 HD
ENDROOT
BRANCH   1   7
ATOM      5  C   UNL     1      -2.134  11.472  18.470  0.00  0.00    +0.000 A 
ATOM      6  C   UNL     1      -1.050  10.619  18.191  0.00  0.00    +0.000 A 
ATOM      7  C   UNL     1      -0.089  10.306  19.143  0.00  0.00    +0.000 A 
ATOM      8  C   UNL     1      -0.116  11.010  20.337  0.00  0.00    +0.000 A 
ATOM      9  C   UNL     1      -1.151  11.920  20.631  0.00  0.00    +0.000 A 
ATOM     10  C   UNL     1      -2.191  12.156  19.706  0.00  0.00    +0.000 A 
BRANCH   5  12
ATOM     11  C   UNL     1      -3.566  10.510  16.843  0.00  0.00    +0.000 C 
ATOM     12  O   UNL     1      -3.141  11.695  17.546  0.00  0.00    +0.000 OA
ENDBRANCH   5  12
BRANCH   9  13
ATOM     13  O   UNL     1      -0.978  12.531  21.855  0.00  0.00    +0.000 OA
ATOM     14  C   UNL     1      -1.182  11.732  23.015  0.00  0.00    +0.000 C 
ENDBRANCH   9  13
BRANCH  10  15
ATOM     15  O   UNL     1      -3.135  13.071  20.091  0.00  0.00    +0.000 OA
ATOM     16  C   UNL     1      -4.252  12.676  20.872  0.00  0.00    +0.000 C 
ENDBRANCH  10  15
ENDBRANCH   1   7
BRANCH   2  17
ATOM     17  C   UNL     1       2.451   7.410  19.562  0.00  0.00    +0.000 C 
BRANCH  17  18
ATOM     18  S   UNL     1       3.234   7.421  17.923  0.00  0.00    +0.000 S 
BRANCH  18  19
ATOM     19  C   UNL     1       3.991   5.793  17.725  0.00  0.00    +0.000 A 
ATOM     20  C   UNL     1       3.383   4.618  18.094  0.00  0.00    +0.000 A 
ATOM     21  C   UNL     1       4.167   3.680  18.740  0.00  0.00    +0.000 A 
ATOM     22  N   UNL     1       5.412   3.918  19.184  0.00  0.00    +0.000 NA
ATOM     23  C   UNL     1       6.001   5.041  18.703  0.00  0.00    +0.000 A 
ATOM     24  C   UNL     1       7.189   5.564  19.203  0.00  0.00    +0.000 A 
ATOM     25  C   UNL     1       7.820   6.663  18.601  0.00  0.00    +0.000 A 
ATOM     26  C   UNL     1       7.372   7.130  17.379  0.00  0.00    +0.000 A 
ATOM     27  C   UNL     1       6.148   6.690  16.914  0.00  0.00    +0.000 A 
ATOM     28  C   UNL     1       5.391   5.817  17.722  0.00  0.00    +0.000 A 
ATOM     29  C   UNL     1       3.450   2.359  18.774  0.00  0.00    +0.000 C 
ATOM     30  C   UNL     1       2.462   2.591  17.615  0.00  0.00    +0.000 C 
ATOM     31  C   UNL     1       2.051   4.066  17.744  0.00  0.00    +0.000 C 
ENDBRANCH  18  19
ENDBRANCH  17  18
ENDBRANCH   2  17
TORSDOF 7
ENDMDL
MODEL 4
REMARK VINA RESULT:      -8.0      2.861      9.367
REMARK  Name = 
REMARK  10 active torsions:
REMARK  status: ('A' for Active; 'I' for Inactive)
REMARK    1  A    between atoms: C_1  and  O_2
REMARK    2  A    between atoms: O_2  and  C_3
REMARK    3  A    between atoms: C_5  and  N_6
REMARK    4  A    between atoms: C_7  and  C_9
REMARK    5  A    between atoms: C_9  and  S_10
REMARK    6  A    between atoms: S_10  and  C_11
REMARK    7  A    between atoms: C_25  and  O_26
REMARK    8  A    between atoms: O_26  and  C_27
REMARK    9  A    between atoms: C_28  and  O_29
REMARK   10  A    between atoms: O_29  and  C_30
REMARK                            x       y       z     vdW  Elec       q    Type
REMARK                         _______ _______ _______ _____ _____    ______ ____
ROOT
ATOM      1  N   UNL     1       2.750   7.577  17.701  0.00  0.00    +0.000 N 
ATOM      2  C   UNL     1       2.040   8.392  18.564  0.00  0.00    +0.000 C 
ATOM      3  O   UNL     1       1.860   8.145  19.761  0.00  0.00    +0.000 OA
ATOM      4  H   UNL     1       2.778   7.858  16.726  0.00  0.00    +0.000 HD
ENDROOT
BRANCH   1   7
ATOM      5  C   UNL     1       5.018   4.705  18.646  0.00  0.00    +0.000 A 
ATOM      6  C   UNL     1       4.588   5.958  18.172  0.00  0.00    +0.000 A 
ATOM      7  C   UNL     1       3.244   6.261  17.993  0.00  0.00    +0.000 A 
ATOM      8  C   UNL     1       2.331   5.226  18.114  0.00  0.00    +0.000 A 
ATOM      9  C   UNL     1       2.729   3.938  18.527  0.00  0.00    +0.000 A 
ATOM     10  C   UNL     1       4.082   3.658  18.817  0.00  0.00    +0.000 A 
BRANCH   5  12
ATOM     11  C   UNL     1       7.238   4.720  17.816  0.00  0.00    +0.000 C 
ATOM     12  O   UNL     1       6.351   4.448  18.918  0.00  0.00    +0.000 OA
ENDBRANCH   5  12
BRANCH   9  13
ATOM     13  O   UNL     1       1.675   3.050  18.559  0.00  0.00    +0.000 OA
ATOM     14  C   UNL     1       0.863   3.048  19.728  0.00  0.00    +0.000 C 
ENDBRANCH   9  13
BRANCH  10  15
ATOM     15  O   UNL     1       4.356   2.370  19.196  0.00  0.00    +0.000 OA
ATOM     16  C   UNL     1       4.426   2.016  20.567  0.00  0.00    +0.000 C 
ENDBRANCH  10  15
ENDBRANCH   1   7
BRANCH   2  17
ATOM     17  C   UNL     1       1.545   9.743  18.053  0.00  0.00    +0.000 C 
BRANCH  17  18
ATOM     18  S   UNL     1       0.991  11.046  19.191  0.00  0.00    +0.000 S 
BRANCH  18  19
ATOM     19  C   UNL     1      -0.794  10.826  19.364  0.00  0.00    +0.000 A 
ATOM     20  C   UNL     1      -1.669  10.823  18.306  0.00  0.00    +0.000 A 
ATOM     21  C   UNL     1      -2.855  11.515  18.470  0.00  0.00    +0.000 A 
ATOM     22  N   UNL     1      -3.116  12.325  19.509  0.00  0.00    +0.000 NA
ATOM     23  C   UNL     1      -2.277  12.207  20.568  0.00  0.00    +0.000 A 
ATOM     24  C   UNL     1      -2.255  13.098  21.637  0.00  0.00    +0.000 A 
ATOM     25  C   UNL     1      -1.450  12.874  22.764  0.00  0.00    +0.000 A 
ATOM     26  C   UNL     1      -0.804  11.661  22.920  0.00  0.00    +0.000 A 
ATOM     27  C   UNL     1      -0.738  10.806  21.836  0.00  0.00    +0.000 A 
ATOM     28  C   UNL     1      -1.294  11.224  20.610  0.00  0.00    +0.000 A 
ATOM     29  C   UNL     1      -3.813  11.143  17.372  0.00  0.00    +0.000 C 
ATOM     30  C   UNL     1      -3.186   9.801  16.950  0.00  0.00    +0.000 C 
ATOM     31  C   UNL     1      -1.670  10.031  17.052  0.00  0.00    +0.000 C 
ENDBRANCH  18  19
ENDBRANCH  17  18
ENDBRANCH   2  17
TORSDOF 7
ENDMDL
MODEL 5
REMARK VINA RESULT:      -8.0      2.009      4.181
REMARK  Name = 
REMARK  10 active torsions:
REMARK  status: ('A' for Active; 'I' for Inactive)
REMARK    1  A    between atoms: C_1  and  O_2
REMARK    2  A    between atoms: O_2  and  C_3
REMARK    3  A    between atoms: C_5  and  N_6
REMARK    4  A    between atoms: C_7  and  C_9
REMARK    5  A    between atoms: C_9  and  S_10
REMARK    6  A    between atoms: S_10  and  C_11
REMARK    7  A    between atoms: C_25  and  O_26
REMARK    8  A    between atoms: O_26  and  C_27
REMARK    9  A    between atoms: C_28  and  O_29
REMARK   10  A    between atoms: O_29  and  C_30
REMARK                            x       y       z     vdW  Elec       q    Type
REMARK                         _______ _______ _______ _____ _____    ______ ____
ROOT
ATOM      1  N   UNL     1       0.613   9.270  19.125  0.00  0.00    +0.000 N 
ATOM      2  C   UNL     1       1.649   9.242  18.208  0.00  0.00    +0.000 C 
ATOM      3  O   UNL     1       1.938  10.183  17.462  0.00  0.00    +0.000 OA
ATOM      4  H   UNL     1       0.435   8.414  19.641  0.00  0.00    +0.000 HD
ENDROOT
BRANCH   1   7
ATOM      5  C   UNL     1      -2.382  11.486  18.488  0.00  0.00    +0.000 A 
ATOM      6  C   UNL     1      -1.303  10.611  18.260  0.00  0.00    +0.000 A 
ATOM      7  C   UNL     1      -0.381  10.299  19.250  0.00  0.00    +0.000 A 
ATOM      8  C   UNL     1      -0.436  11.024  20.429  0.00  0.00    +0.000 A 
ATOM      9  C   UNL     1      -1.464  11.956  20.673  0.00  0.00    +0.000 A 
ATOM     10  C   UNL     1      -2.468  12.193  19.710  0.00  0.00    +0.000 A 
BRANCH   5  12
ATOM     11  C   UNL     1      -3.230  10.870  16.362  0.00  0.00    +0.000 C 
ATOM     12  O   UNL     1      -3.353  11.710  17.527  0.00  0.00    +0.000 OA
ENDBRANCH   5  12
BRANCH   9  13
ATOM     13  O   UNL     1      -1.322  12.585  21.892  0.00  0.00    +0.000 OA
ATOM     14  C   UNL     1      -1.823  11.905  23.037  0.00  0.00    +0.000 C 
ENDBRANCH   9  13
BRANCH  10  15
ATOM     15  O   UNL     1      -3.409  13.129  20.048  0.00  0.00    +0.000 OA
ATOM     16  C   UNL     1      -4.649  12.741  20.616  0.00  0.00    +0.000 C 
ENDBRANCH  10  15
ENDBRANCH   1   7
BRANCH   2  17
ATOM     17  C   UNL     1       2.577   8.030  18.190  0.00  0.00    +0.000 C 
BRANCH  17  18
ATOM     18  S   UNL     1       2.676   6.887  19.598  0.00  0.00    +0.000 S 
BRANCH  18  19
ATOM     19  C   UNL     1       3.471   5.392  18.966  0.00  0.00    +0.000 A 
ATOM     20  C   UNL     1       4.243   5.359  17.831  0.00  0.00    +0.000 A 
ATOM     21  C   UNL     1       4.058   4.289  16.976  0.00  0.00    +0.000 A 
ATOM     22  N   UNL     1       3.060   3.396  17.093  0.00  0.00    +0.000 NA
ATOM     23  C   UNL     1       2.402   3.406  18.277  0.00  0.00    +0.000 A 
ATOM     24  C   UNL     1       1.218   2.714  18.507  0.00  0.00    +0.000 A 
ATOM     25  C   UNL     1       0.631   2.661  19.781  0.00  0.00    +0.000 A 
ATOM     26  C   UNL     1       1.323   3.140  20.878  0.00  0.00    +0.000 A 
ATOM     27  C   UNL     1       2.450   3.909  20.662  0.00  0.00    +0.000 A 
ATOM     28  C   UNL     1       2.821   4.208  19.335  0.00  0.00    +0.000 A 
ATOM     29  C   UNL     1       5.183   4.236  15.980  0.00  0.00    +0.000 C 
ATOM     30  C   UNL     1       6.227   5.065  16.753  0.00  0.00    +0.000 C 
ATOM     31  C   UNL     1       5.414   6.178  17.433  0.00  0.00    +0.000 C 
ENDBRANCH  18  19
ENDBRANCH  17  18
ENDBRANCH   2  17
TORSDOF 7
ENDMDL
MODEL 6
REMARK VINA RESULT:      -7.9      1.871      3.475
REMARK  Name = 
REMARK  10 active torsions:
REMARK  status: ('A' for Active; 'I' for Inactive)
REMARK    1  A    between atoms: C_1  and  O_2
REMARK    2  A    between atoms: O_2  and  C_3
REMARK    3  A    between atoms: C_5  and  N_6
REMARK    4  A    between atoms: C_7  and  C_9
REMARK    5  A    between atoms: C_9  and  S_10
REMARK    6  A    between atoms: S_10  and  C_11
REMARK    7  A    between atoms: C_25  and  O_26
REMARK    8  A    between atoms: O_26  and  C_27
REMARK    9  A    between atoms: C_28  and  O_29
REMARK   10  A    between atoms: O_29  and  C_30
REMARK                            x       y       z     vdW  Elec       q    Type
REMARK                         _______ _______ _______ _____ _____    ______ ____
ROOT
ATOM      1  N   UNL     1       0.921   9.184  18.914  0.00  0.00    +0.000 N 
ATOM      2  C   UNL     1       1.949   9.442  18.026  0.00  0.00    +0.000 C 
ATOM      3  O   UNL     1       2.192  10.557  17.553  0.00  0.00    +0.000 OA
ATOM      4  H   UNL     1       0.784   8.216  19.186  0.00  0.00    +0.000 HD
ENDROOT
BRANCH   1   7
ATOM      5  C   UNL     1      -1.132  11.698  20.851  0.00  0.00    +0.000 A 
ATOM      6  C   UNL     1      -0.225  10.662  20.565  0.00  0.00    +0.000 A 
ATOM      7  C   UNL     1      -0.116  10.100  19.300  0.00  0.00    +0.000 A 
ATOM      8  C   UNL     1      -1.065  10.457  18.356  0.00  0.00    +0.000 A 
ATOM      9  C   UNL     1      -2.031  11.448  18.622  0.00  0.00    +0.000 A 
ATOM     10  C   UNL     1      -2.072  12.099  19.873  0.00  0.00    +0.000 A 
BRANCH   5  12
ATOM     11  C   UNL     1      -1.709  11.507  23.142  0.00  0.00    +0.000 C 
ATOM     12  O   UNL     1      -1.160  12.321  22.087  0.00  0.00    +0.000 OA
ENDBRANCH   5  12
BRANCH   9  13
ATOM     13  O   UNL     1      -2.894  11.635  17.563  0.00  0.00    +0.000 OA
ATOM     14  C   UNL     1      -2.609  10.929  16.360  0.00  0.00    +0.000 C 
ENDBRANCH   9  13
BRANCH  10  15
ATOM     15  O   UNL     1      -3.062  13.035  20.026  0.00  0.00    +0.000 OA
ATOM     16  C   UNL     1      -4.314  12.682  20.591  0.00  0.00    +0.000 C 
ENDBRANCH  10  15
ENDBRANCH   1   7
BRANCH   2  17
ATOM     17  C   UNL     1       2.929   8.319  17.694  0.00  0.00    +0.000 C 
BRANCH  17  18
ATOM     18  S   UNL     1       2.488   6.573  17.927  0.00  0.00    +0.000 S 
BRANCH  18  19
ATOM     19  C   UNL     1       3.905   5.810  18.748  0.00  0.00    +0.000 A 
ATOM     20  C   UNL     1       5.154   5.716  18.186  0.00  0.00    +0.000 A 
ATOM     21  C   UNL     1       5.825   4.517  18.342  0.00  0.00    +0.000 A 
ATOM     22  N   UNL     1       5.266   3.402  18.840  0.00  0.00    +0.000 NA
ATOM     23  C   UNL     1       4.082   3.575  19.477  0.00  0.00    +0.000 A 
ATOM     24  C   UNL     1       3.255   2.526  19.867  0.00  0.00    +0.000 A 
ATOM     25  C   UNL     1       2.094   2.746  20.623  0.00  0.00    +0.000 A 
ATOM     26  C   UNL     1       1.849   3.996  21.161  0.00  0.00    +0.000 A 
ATOM     27  C   UNL     1       2.601   5.065  20.713  0.00  0.00    +0.000 A 
ATOM     28  C   UNL     1       3.555   4.843  19.699  0.00  0.00    +0.000 A 
ATOM     29  C   UNL     1       7.269   4.693  17.963  0.00  0.00    +0.000 C 
ATOM     30  C   UNL     1       7.373   6.222  18.112  0.00  0.00    +0.000 C 
ATOM     31  C   UNL     1       6.029   6.756  17.591  0.00  0.00    +0.000 C 
ENDBRANCH  18  19
ENDBRANCH  17  18
ENDBRANCH   2  17
TORSDOF 7
ENDMDL
MODEL 7
REMARK VINA RESULT:      -7.8      2.825      9.593
REMARK  Name = 
REMARK  10 active torsions:
REMARK  status: ('A' for Active; 'I' for Inactive)
REMARK    1  A    between atoms: C_1  and  O_2
REMARK    2  A    between atoms: O_2  and  C_3
REMARK    3  A    between atoms: C_5  and  N_6
REMARK    4  A    between atoms: C_7  and  C_9
REMARK    5  A    between atoms: C_9  and  S_10
REMARK    6  A    between atoms: S_10  and  C_11
REMARK    7  A    between atoms: C_25  and  O_26
REMARK    8  A    between atoms: O_26  and  C_27
REMARK    9  A    between atoms: C_28  and  O_29
REMARK   10  A    between atoms: O_29  and  C_30
REMARK                            x       y       z     vdW  Elec       q    Type
REMARK                         _______ _______ _______ _____ _____    ______ ____
ROOT
ATOM      1  N   UNL     1       2.663   7.768  17.916  0.00  0.00    +0.000 N 
ATOM      2  C   UNL     1       1.907   8.625  18.697  0.00  0.00    +0.000 C 
ATOM      3  O   UNL     1       1.564   8.382  19.858  0.00  0.00    +0.000 OA
ATOM      4  H   UNL     1       2.832   8.053  16.956  0.00  0.00    +0.000 HD
ENDROOT
BRANCH   1   7
ATOM      5  C   UNL     1       2.636   4.002  18.236  0.00  0.00    +0.000 A 
ATOM      6  C   UNL     1       2.184   5.327  18.087  0.00  0.00    +0.000 A 
ATOM      7  C   UNL     1       3.026   6.419  18.247  0.00  0.00    +0.000 A 
ATOM      8  C   UNL     1       4.296   6.182  18.749  0.00  0.00    +0.000 A 
ATOM      9  C   UNL     1       4.766   4.872  18.972  0.00  0.00    +0.000 A 
ATOM     10  C   UNL     1       3.947   3.755  18.703  0.00  0.00    +0.000 A 
BRANCH   5  12
ATOM     11  C   UNL     1       0.842   2.656  19.004  0.00  0.00    +0.000 C 
ATOM     12  O   UNL     1       1.814   2.919  17.973  0.00  0.00    +0.000 OA
ENDBRANCH   5  12
BRANCH   9  13
ATOM     13  O   UNL     1       6.042   4.857  19.496  0.00  0.00    +0.000 OA
ATOM     14  C   UNL     1       7.025   5.645  18.834  0.00  0.00    +0.000 C 
ENDBRANCH   9  13
BRANCH  10  15
ATOM     15  O   UNL     1       4.503   2.531  18.970  0.00  0.00    +0.000 OA
ATOM     16  C   UNL     1       4.424   1.965  20.268  0.00  0.00    +0.000 C 
ENDBRANCH  10  15
ENDBRANCH   1   7
BRANCH   2  17
ATOM     17  C   UNL     1       1.574  10.010  18.149  0.00  0.00    +0.000 C 
BRANCH  17  18
ATOM     18  S   UNL     1       0.929  11.327  19.221  0.00  0.00    +0.000 S 
BRANCH  18  19
ATOM     19  C   UNL     1      -0.840  11.001  19.396  0.00  0.00    +0.000 A 
ATOM     20  C   UNL     1      -1.704  10.892  18.335  0.00  0.00    +0.000 A 
ATOM     21  C   UNL     1      -2.933  11.514  18.459  0.00  0.00    +0.000 A 
ATOM     22  N   UNL     1      -3.254  12.354  19.458  0.00  0.00    +0.000 NA
ATOM     23  C   UNL     1      -2.419  12.340  20.525  0.00  0.00    +0.000 A 
ATOM     24  C   UNL     1      -2.462  13.279  21.550  0.00  0.00    +0.000 A 
ATOM     25  C   UNL     1      -1.653  13.161  22.691  0.00  0.00    +0.000 A 
ATOM     26  C   UNL     1      -0.933  12.001  22.908  0.00  0.00    +0.000 A 
ATOM     27  C   UNL     1      -0.803  11.102  21.867  0.00  0.00    +0.000 A 
ATOM     28  C   UNL     1      -1.374  11.425  20.619  0.00  0.00    +0.000 A 
ATOM     29  C   UNL     1      -3.857  11.030  17.376  0.00  0.00    +0.000 C 
ATOM     30  C   UNL     1      -3.142   9.712  17.021  0.00  0.00    +0.000 C 
ATOM     31  C   UNL     1      -1.645  10.043  17.120  0.00  0.00    +0.000 C 
ENDBRANCH  18  19
ENDBRANCH  17  18
ENDBRANCH   2  17
TORSDOF 7
ENDMDL
MODEL 8
REMARK VINA RESULT:      -7.8      3.004      9.130
REMARK  Name = 
REMARK  10 active torsions:
REMARK  status: ('A' for Active; 'I' for Inactive)
REMARK    1  A    between atoms: C_1  and  O_2
REMARK    2  A    between atoms: O_2  and  C_3
REMARK    3  A    between atoms: C_5  and  N_6
REMARK    4  A    between atoms: C_7  and  C_9
REMARK    5  A    between atoms: C_9  and  S_10
REMARK    6  A    between atoms: S_10  and  C_11
REMARK    7  A    between atoms: C_25  and  O_26
REMARK    8  A    between atoms: O_26  and  C_27
REMARK    9  A    between atoms: C_28  and  O_29
REMARK   10  A    between atoms: O_29  and  C_30
REMARK                            x       y       z     vdW  Elec       q    Type
REMARK                         _______ _______ _______ _____ _____    ______ ____
ROOT
ATOM      1  N   UNL     1       2.863   7.433  17.609  0.00  0.00    +0.000 N 
ATOM      2  C   UNL     1       2.188   8.287  18.462  0.00  0.00    +0.000 C 
ATOM      3  O   UNL     1       2.052   8.091  19.674  0.00  0.00    +0.000 OA
ATOM      4  H   UNL     1       2.856   7.672  16.622  0.00  0.00    +0.000 HD
ENDROOT
BRANCH   1   7
ATOM      5  C   UNL     1       5.086   4.618  18.800  0.00  0.00    +0.000 A 
ATOM      6  C   UNL     1       4.678   5.868  18.299  0.00  0.00    +0.000 A 
ATOM      7  C   UNL     1       3.363   6.128  17.938  0.00  0.00    +0.000 A 
ATOM      8  C   UNL     1       2.484   5.057  17.903  0.00  0.00    +0.000 A 
ATOM      9  C   UNL     1       2.871   3.773  18.338  0.00  0.00    +0.000 A 
ATOM     10  C   UNL     1       4.179   3.534  18.811  0.00  0.00    +0.000 A 
BRANCH   5  12
ATOM     11  C   UNL     1       7.220   5.570  19.203  0.00  0.00    +0.000 C 
ATOM     12  O   UNL     1       6.377   4.402  19.254  0.00  0.00    +0.000 OA
ENDBRANCH   5  12
BRANCH   9  13
ATOM     13  O   UNL     1       1.858   2.847  18.198  0.00  0.00    +0.000 OA
ATOM     14  C   UNL     1       0.935   2.726  19.275  0.00  0.00    +0.000 C 
ENDBRANCH   9  13
BRANCH  10  15
ATOM     15  O   UNL     1       4.447   2.246  19.194  0.00  0.00    +0.000 OA
ATOM     16  C   UNL     1       4.519   1.898  20.567  0.00  0.00    +0.000 C 
ENDBRANCH  10  15
ENDBRANCH   1   7
BRANCH   2  17
ATOM     17  C   UNL     1       1.679   9.618  17.914  0.00  0.00    +0.000 C 
BRANCH  17  18
ATOM     18  S   UNL     1       0.022  10.242  18.316  0.00  0.00    +0.000 S 
BRANCH  18  19
ATOM     19  C   UNL     1       0.171  11.033  19.934  0.00  0.00    +0.000 A 
ATOM     20  C   UNL     1      -0.382  10.527  21.085  0.00  0.00    +0.000 A 
ATOM     21  C   UNL     1      -0.999  11.427  21.934  0.00  0.00    +0.000 A 
ATOM     22  N   UNL     1      -1.248  12.709  21.619  0.00  0.00    +0.000 NA
ATOM     23  C   UNL     1      -0.591  13.183  20.532  0.00  0.00    +0.000 A 
ATOM     24  C   UNL     1      -0.876  14.404  19.930  0.00  0.00    +0.000 A 
ATOM     25  C   UNL     1      -0.097  14.905  18.876  0.00  0.00    +0.000 A 
ATOM     26  C   UNL     1       1.091  14.282  18.542  0.00  0.00    +0.000 A 
ATOM     27  C   UNL     1       1.345  13.026  19.059  0.00  0.00    +0.000 A 
ATOM     28  C   UNL     1       0.365  12.418  19.871  0.00  0.00    +0.000 A 
ATOM     29  C   UNL     1      -1.251  10.775  23.265  0.00  0.00    +0.000 C 
ATOM     30  C   UNL     1      -0.220   9.634  23.174  0.00  0.00    +0.000 C 
ATOM     31  C   UNL     1      -0.268   9.184  21.705  0.00  0.00    +0.000 C 
ENDBRANCH  18  19
ENDBRANCH  17  18
ENDBRANCH   2  17
TORSDOF 7
ENDMDL
MODEL 9
REMARK VINA RESULT:      -7.8      1.526      4.045
REMARK  Name = 
REMARK  10 active torsions:
REMARK  status: ('A' for Active; 'I' for Inactive)
REMARK    1  A    between atoms: C_1  and  O_2
REMARK    2  A    between atoms: O_2  and  C_3
REMARK    3  A    between atoms: C_5  and  N_6
REMARK    4  A    between atoms: C_7  and  C_9
REMARK    5  A    between atoms: C_9  and  S_10
REMARK    6  A    between atoms: S_10  and  C_11
REMARK    7  A    between atoms: C_25  and  O_26
REMARK    8  A    between atoms: O_26  and  C_27
REMARK    9  A    between atoms: C_28  and  O_29
REMARK   10  A    between atoms: O_29  and  C_30
REMARK                            x       y       z     vdW  Elec       q    Type
REMARK                         _______ _______ _______ _____ _____    ______ ____
ROOT
ATOM      1  N   UNL     1       1.179   9.066  19.319  0.00  0.00    +0.000 N 
ATOM      2  C   UNL     1       1.950   8.784  18.206  0.00  0.00    +0.000 C 
ATOM      3  O   UNL     1       2.185   9.594  17.304  0.00  0.00    +0.000 OA
ATOM      4  H   UNL     1       1.008   8.299  19.963  0.00  0.00    +0.000 HD
ENDROOT
BRANCH   1   7
ATOM      5  C   UNL     1      -1.644  11.579  19.310  0.00  0.00    +0.000 A 
ATOM      6  C   UNL     1      -0.824  10.500  18.930  0.00  0.00    +0.000 A 
ATOM      7  C   UNL     1       0.402  10.254  19.534  0.00  0.00    +0.000 A 
ATOM      8  C   UNL     1       0.895  11.216  20.402  0.00  0.00    +0.000 A 
ATOM      9  C   UNL     1       0.130  12.343  20.761  0.00  0.00    +0.000 A 
ATOM     10  C   UNL     1      -1.164  12.538  20.232  0.00  0.00    +0.000 A 
BRANCH   5  12
ATOM     11  C   UNL     1      -3.019  11.366  17.391  0.00  0.00    +0.000 C 
ATOM     12  O   UNL     1      -2.909  11.755  18.774  0.00  0.00    +0.000 OA
ENDBRANCH   5  12
BRANCH   9  13
ATOM     13  O   UNL     1       0.811  13.187  21.613  0.00  0.00    +0.000 OA
ATOM     14  C   UNL     1       1.905  13.916  21.068  0.00  0.00    +0.000 C 
ENDBRANCH   9  13
BRANCH  10  15
ATOM     15  O   UNL     1      -1.810  13.675  20.640  0.00  0.00    +0.000 OA
ATOM     16  C   UNL     1      -2.692  13.650  21.750  0.00  0.00    +0.000 C 
ENDBRANCH  10  15
ENDBRANCH   1   7
BRANCH   2  17
ATOM     17  C   UNL     1       2.662   7.436  18.131  0.00  0.00    +0.000 C 
BRANCH  17  18
ATOM     18  S   UNL     1       2.994   6.451  19.621  0.00  0.00    +0.000 S 
BRANCH  18  19
ATOM     19  C   UNL     1       4.053   5.088  19.087  0.00  0.00    +0.000 A 
ATOM     20  C   UNL     1       5.095   5.231  18.205  0.00  0.00    +0.000 A 
ATOM     21  C   UNL     1       5.234   4.257  17.233  0.00  0.00    +0.000 A 
ATOM     22  N   UNL     1       4.322   3.300  16.992  0.00  0.00    +0.000 NA
ATOM     23  C   UNL     1       3.378   3.136  17.951  0.00  0.00    +0.000 A 
ATOM     24  C   UNL     1       2.240   2.353  17.787  0.00  0.00    +0.000 A 
ATOM     25  C   UNL     1       1.347   2.121  18.844  0.00  0.00    +0.000 A 
ATOM     26  C   UNL     1       1.684   2.510  20.128  0.00  0.00    +0.000 A 
ATOM     27  C   UNL     1       2.757   3.364  20.297  0.00  0.00    +0.000 A 
ATOM     28  C   UNL     1       3.435   3.833  19.154  0.00  0.00    +0.000 A 
ATOM     29  C   UNL     1       6.581   4.385  16.577  0.00  0.00    +0.000 C 
ATOM     30  C   UNL     1       7.310   5.178  17.678  0.00  0.00    +0.000 C 
ATOM     31  C   UNL     1       6.254   6.157  18.216  0.00  0.00    +0.000 C 
ENDBRANCH  18  19
ENDBRANCH  17  18
ENDBRANCH   2  17
TORSDOF 7
ENDMDL
