MODEL 1
REMARK VINA RESULT:      -6.8      0.000      0.000
REMARK  Name = 
REMARK  4 active torsions:
REMARK  status: ('A' for Active; 'I' for Inactive)
REMARK    1  A    between atoms: C_1  and  C_2
REMARK    2  A    between atoms: C_5  and  C_6
REMARK    3  A    between atoms: N_7  and  N_8
REMARK    4  A    between atoms: N_13  and  N_14
REMARK                            x       y       z     vdW  Elec       q    Type
REMARK                         _______ _______ _______ _____ _____    ______ ____
ROOT
ATOM      1  N   UNL     1       6.733   5.253  15.392  0.00  0.00    +0.000 N 
ATOM      2  C   UNL     1       6.749   4.706  14.084  0.00  0.00    +0.000 A 
ATOM      3  N   UNL     1       5.881   3.774  13.648  0.00  0.00    +0.000 NA
ATOM      4  N   UNL     1       6.197   3.513  12.384  0.00  0.00    +0.000 NA
ATOM      5  C   UNL     1       7.253   4.286  12.061  0.00  0.00    +0.000 A 
ATOM      6  N   UNL     1       7.616   5.041  13.112  0.00  0.00    +0.000 N 
ATOM      7  H   UNL     1       7.414   5.985  15.650  0.00  0.00    +0.000 HD
ENDROOT
BRANCH   6   8
ATOM      8  N   UNL     1       8.662   5.952  13.156  0.00  0.00    +0.000 N 
ATOM      9  H   UNL     1       9.516   5.786  12.603  0.00  0.00    +0.000 HD
ATOM     10  H   UNL     1       8.607   6.798  13.739  0.00  0.00    +0.000 HD
ENDBRANCH   6   8
BRANCH   1  12
ATOM     11  C   UNL     1       4.805   5.499  16.676  0.00  0.00    +0.000 C 
ATOM     12  N   UNL     1       5.825   4.795  16.318  0.00  0.00    +0.000 NA
BRANCH  11  17
ATOM     13  C   UNL     1       1.029   3.649  20.675  0.00  0.00    +0.000 C 
ATOM     14  C   UNL     1       2.032   4.113  19.658  0.00  0.00    +0.000 A 
ATOM     15  C   UNL     1       3.041   5.024  20.008  0.00  0.00    +0.000 A 
ATOM     16  C   UNL     1       3.954   5.469  19.047  0.00  0.00    +0.000 A 
ATOM     17  C   UNL     1       3.870   5.013  17.719  0.00  0.00    +0.000 A 
ATOM     18  C   UNL     1       2.865   4.094  17.376  0.00  0.00    +0.000 A 
ATOM     19  C   UNL     1       1.954   3.648  18.338  0.00  0.00    +0.000 A 
ENDBRANCH  11  17
ENDBRANCH   1  12
TORSDOF 3
ENDMDL
MODEL 2
REMARK VINA RESULT:      -6.7      0.140      1.219
REMARK  Name = 
REMARK  4 active torsions:
REMARK  status: ('A' for Active; 'I' for Inactive)
REMARK    1  A    between atoms: C_1  and  C_2
REMARK    2  A    between atoms: C_5  and  C_6
REMARK    3  A    between atoms: N_7  and  N_8
REMARK    4  A    between atoms: N_13  and  N_14
REMARK                            x       y       z     vdW  Elec       q    Type
REMARK                         _______ _______ _______ _____ _____    ______ ____
ROOT
ATOM      1  N   UNL     1       6.586   5.193  15.381  0.00  0.00    +0.000 N 
ATOM      2  C   UNL     1       6.628   4.674  14.062  0.00  0.00    +0.000 A 
ATOM      3  N   UNL     1       5.750   3.774  13.580  0.00  0.00    +0.000 NA
ATOM      4  N   UNL     1       6.099   3.532  12.321  0.00  0.00    +0.000 NA
ATOM      5  C   UNL     1       7.184   4.285  12.047  0.00  0.00    +0.000 A 
ATOM      6  N   UNL     1       7.533   5.007  13.125  0.00  0.00    +0.000 N 
ATOM      7  H   UNL     1       7.276   5.902  15.676  0.00  0.00    +0.000 HD
ENDROOT
BRANCH   6   8
ATOM      8  N   UNL     1       8.600   5.890  13.221  0.00  0.00    +0.000 N 
ATOM      9  H   UNL     1       8.961   6.166  14.146  0.00  0.00    +0.000 HD
ATOM     10  H   UNL     1       9.040   6.285  12.379  0.00  0.00    +0.000 HD
ENDBRANCH   6   8
BRANCH   1  12
ATOM     11  C   UNL     1       4.686   5.498  16.695  0.00  0.00    +0.000 C 
ATOM     12  N   UNL     1       5.638   4.739  16.269  0.00  0.00    +0.000 NA
BRANCH  11  17
ATOM     13  C   UNL     1       0.979   3.537  20.704  0.00  0.00    +0.000 C 
ATOM     14  C   UNL     1       1.911   4.058  19.649  0.00  0.00    +0.000 A 
ATOM     15  C   UNL     1       1.834   3.590  18.328  0.00  0.00    +0.000 A 
ATOM     16  C   UNL     1       2.725   4.063  17.359  0.00  0.00    +0.000 A 
ATOM     17  C   UNL     1       3.709   5.009  17.697  0.00  0.00    +0.000 A 
ATOM     18  C   UNL     1       3.776   5.482  19.018  0.00  0.00    +0.000 A 
ATOM     19  C   UNL     1       2.883   5.010  19.986  0.00  0.00    +0.000 A 
ENDBRANCH  11  17
ENDBRANCH   1  12
TORSDOF 3
ENDMDL
MODEL 3
REMARK VINA RESULT:      -6.6      6.826      8.740
REMARK  Name = 
REMARK  4 active torsions:
REMARK  status: ('A' for Active; 'I' for Inactive)
REMARK    1  A    between atoms: C_1  and  C_2
REMARK    2  A    between atoms: C_5  and  C_6
REMARK    3  A    between atoms: N_7  and  N_8
REMARK    4  A    between atoms: N_13  and  N_14
REMARK                            x       y       z     vdW  Elec       q    Type
REMARK                         _______ _______ _______ _____ _____    ______ ____
ROOT
ATOM      1  N   UNL     1       8.228   7.807  18.795  0.00  0.00    +0.000 N 
ATOM      2  C   UNL     1       7.731   6.813  17.915  0.00  0.00    +0.000 A 
ATOM      3  N   UNL     1       7.723   6.933  16.573  0.00  0.00    +0.000 NA
ATOM      4  N   UNL     1       7.194   5.814  16.089  0.00  0.00    +0.000 NA
ATOM      5  C   UNL     1       6.885   5.023  17.138  0.00  0.00    +0.000 A 
ATOM      6  N   UNL     1       7.212   5.630  18.290  0.00  0.00    +0.000 N 
ATOM      7  H   UNL     1       8.227   7.637  19.814  0.00  0.00    +0.000 HD
ENDROOT
BRANCH   6   8
ATOM      8  N   UNL     1       7.036   5.126  19.572  0.00  0.00    +0.000 N 
ATOM      9  H   UNL     1       6.951   5.769  20.373  0.00  0.00    +0.000 HD
ATOM     10  H   UNL     1       6.993   4.113  19.743  0.00  0.00    +0.000 HD
ENDBRANCH   6   8
BRANCH   1  12
ATOM     11  C   UNL     1       9.297   9.862  19.039  0.00  0.00    +0.000 C 
ATOM     12  N   UNL     1       8.692   9.001  18.294  0.00  0.00    +0.000 NA
BRANCH  11  17
ATOM     13  C   UNL     1      11.087  15.006  17.039  0.00  0.00    +0.000 C 
ATOM     14  C   UNL     1      10.612  13.667  17.525  0.00  0.00    +0.000 A 
ATOM     15  C   UNL     1       9.247  13.340  17.508  0.00  0.00    +0.000 A 
ATOM     16  C   UNL     1       8.813  12.100  17.987  0.00  0.00    +0.000 A 
ATOM     17  C   UNL     1       9.737  11.168  18.494  0.00  0.00    +0.000 A 
ATOM     18  C   UNL     1      11.104  11.496  18.499  0.00  0.00    +0.000 A 
ATOM     19  C   UNL     1      11.537  12.736  18.018  0.00  0.00    +0.000 A 
ENDBRANCH  11  17
ENDBRANCH   1  12
TORSDOF 3
ENDMDL
MODEL 4
REMARK VINA RESULT:      -6.6      7.053      8.909
REMARK  Name = 
REMARK  4 active torsions:
REMARK  status: ('A' for Active; 'I' for Inactive)
REMARK    1  A    between atoms: C_1  and  C_2
REMARK    2  A    between atoms: C_5  and  C_6
REMARK    3  A    between atoms: N_7  and  N_8
REMARK    4  A    between atoms: N_13  and  N_14
REMARK                            x       y       z     vdW  Elec       q    Type
REMARK                         _______ _______ _______ _____ _____    ______ ____
ROOT
ATOM      1  N   UNL     1       8.431   8.055  18.941  0.00  0.00    +0.000 N 
ATOM      2  C   UNL     1       7.889   7.090  18.056  0.00  0.00    +0.000 A 
ATOM      3  N   UNL     1       7.776   7.269  16.726  0.00  0.00    +0.000 NA
ATOM      4  N   UNL     1       7.234   6.160  16.232  0.00  0.00    +0.000 NA
ATOM      5  C   UNL     1       7.022   5.317  17.263  0.00  0.00    +0.000 A 
ATOM      6  N   UNL     1       7.424   5.880  18.415  0.00  0.00    +0.000 N 
ATOM      7  H   UNL     1       8.511   7.840  19.948  0.00  0.00    +0.000 HD
ENDROOT
BRANCH   6   8
ATOM      8  N   UNL     1       7.356   5.315  19.681  0.00  0.00    +0.000 N 
ATOM      9  H   UNL     1       7.228   4.298  19.787  0.00  0.00    +0.000 HD
ATOM     10  H   UNL     1       7.427   5.896  20.527  0.00  0.00    +0.000 HD
ENDBRANCH   6   8
BRANCH   1  12
ATOM     11  C   UNL     1       9.384  10.162  19.224  0.00  0.00    +0.000 C 
ATOM     12  N   UNL     1       8.831   9.281  18.462  0.00  0.00    +0.000 NA
BRANCH  11  17
ATOM     13  C   UNL     1      10.690  15.417  17.140  0.00  0.00    +0.000 C 
ATOM     14  C   UNL     1      10.384  14.055  17.692  0.00  0.00    +0.000 A 
ATOM     15  C   UNL     1      11.053  12.919  17.210  0.00  0.00    +0.000 A 
ATOM     16  C   UNL     1      10.742  11.651  17.712  0.00  0.00    +0.000 A 
ATOM     17  C   UNL     1       9.755  11.499  18.702  0.00  0.00    +0.000 A 
ATOM     18  C   UNL     1       9.096  12.640  19.189  0.00  0.00    +0.000 A 
ATOM     19  C   UNL     1       9.408  13.908  18.688  0.00  0.00    +0.000 A 
ENDBRANCH  11  17
ENDBRANCH   1  12
TORSDOF 3
ENDMDL
MODEL 5
REMARK VINA RESULT:      -6.5      6.531      8.089
REMARK  Name = 
REMARK  4 active torsions:
REMARK  status: ('A' for Active; 'I' for Inactive)
REMARK    1  A    between atoms: C_1  and  C_2
REMARK    2  A    between atoms: C_5  and  C_6
REMARK    3  A    between atoms: N_7  and  N_8
REMARK    4  A    between atoms: N_13  and  N_14
REMARK                            x       y       z     vdW  Elec       q    Type
REMARK                         _______ _______ _______ _____ _____    ______ ____
ROOT
ATOM      1  N   UNL     1       7.569   8.059  17.149  0.00  0.00    +0.000 N 
ATOM      2  C   UNL     1       7.610   6.723  17.621  0.00  0.00    +0.000 A 
ATOM      3  N   UNL     1       7.867   6.384  18.899  0.00  0.00    +0.000 NA
ATOM      4  N   UNL     1       7.816   5.058  18.965  0.00  0.00    +0.000 NA
ATOM      5  C   UNL     1       7.529   4.601  17.729  0.00  0.00    +0.000 A 
ATOM      6  N   UNL     1       7.397   5.627  16.872  0.00  0.00    +0.000 N 
ATOM      7  H   UNL     1       7.339   8.247  16.160  0.00  0.00    +0.000 HD
ENDROOT
BRANCH   6   8
ATOM      8  N   UNL     1       7.110   5.543  15.516  0.00  0.00    +0.000 N 
ATOM      9  H   UNL     1       6.241   5.956  15.146  0.00  0.00    +0.000 HD
ATOM     10  H   UNL     1       7.748   5.067  14.865  0.00  0.00    +0.000 HD
ENDBRANCH   6   8
BRANCH   1  12
ATOM     11  C   UNL     1       8.811   9.929  17.771  0.00  0.00    +0.000 C 
ATOM     12  N   UNL     1       7.852   9.100  18.004  0.00  0.00    +0.000 NA
BRANCH  11  17
ATOM     13  C   UNL     1      10.203  14.201  21.443  0.00  0.00    +0.000 C 
ATOM     14  C   UNL     1       9.816  13.087  20.513  0.00  0.00    +0.000 A 
ATOM     15  C   UNL     1       9.846  11.751  20.941  0.00  0.00    +0.000 A 
ATOM     16  C   UNL     1       9.508  10.719  20.059  0.00  0.00    +0.000 A 
ATOM     17  C   UNL     1       9.139  11.008  18.733  0.00  0.00    +0.000 A 
ATOM     18  C   UNL     1       9.101  12.348  18.312  0.00  0.00    +0.000 A 
ATOM     19  C   UNL     1       9.437  13.379  19.195  0.00  0.00    +0.000 A 
ENDBRANCH  11  17
ENDBRANCH   1  12
TORSDOF 3
ENDMDL
MODEL 6
REMARK VINA RESULT:      -6.4      6.452      8.018
REMARK  Name = 
REMARK  4 active torsions:
REMARK  status: ('A' for Active; 'I' for Inactive)
REMARK    1  A    between atoms: C_1  and  C_2
REMARK    2  A    between atoms: C_5  and  C_6
REMARK    3  A    between atoms: N_7  and  N_8
REMARK    4  A    between atoms: N_13  and  N_14
REMARK                            x       y       z     vdW  Elec       q    Type
REMARK                         _______ _______ _______ _____ _____    ______ ____
ROOT
ATOM      1  N   UNL     1       7.507   8.046  17.086  0.00  0.00    +0.000 N 
ATOM      2  C   UNL     1       7.565   6.713  17.563  0.00  0.00    +0.000 A 
ATOM      3  N   UNL     1       7.842   6.382  18.839  0.00  0.00    +0.000 NA
ATOM      4  N   UNL     1       7.802   5.056  18.912  0.00  0.00    +0.000 NA
ATOM      5  C   UNL     1       7.502   4.591  17.682  0.00  0.00    +0.000 A 
ATOM      6  N   UNL     1       7.350   5.611  16.822  0.00  0.00    +0.000 N 
ATOM      7  H   UNL     1       7.263   8.228  16.099  0.00  0.00    +0.000 HD
ENDROOT
BRANCH   6   8
ATOM      8  N   UNL     1       7.044   5.519  15.471  0.00  0.00    +0.000 N 
ATOM      9  H   UNL     1       7.517   4.818  14.881  0.00  0.00    +0.000 HD
ATOM     10  H   UNL     1       6.352   6.145  15.038  0.00  0.00    +0.000 HD
ENDBRANCH   6   8
BRANCH   1  12
ATOM     11  C   UNL     1       8.803   9.872  17.732  0.00  0.00    +0.000 C 
ATOM     12  N   UNL     1       7.794   9.093  17.932  0.00  0.00    +0.000 NA
BRANCH  11  17
ATOM     13  C   UNL     1       9.982  14.064  21.566  0.00  0.00    +0.000 C 
ATOM     14  C   UNL     1       9.702  12.991  20.554  0.00  0.00    +0.000 A 
ATOM     15  C   UNL     1       9.286  13.320  19.255  0.00  0.00    +0.000 A 
ATOM     16  C   UNL     1       9.004  12.312  18.328  0.00  0.00    +0.000 A 
ATOM     17  C   UNL     1       9.130  10.957  18.687  0.00  0.00    +0.000 A 
ATOM     18  C   UNL     1       9.557  10.633  19.985  0.00  0.00    +0.000 A 
ATOM     19  C   UNL     1       9.841  11.642  20.911  0.00  0.00    +0.000 A 
ENDBRANCH  11  17
ENDBRANCH   1  12
TORSDOF 3
ENDMDL
MODEL 7
REMARK VINA RESULT:      -6.3      4.669      6.072
REMARK  Name = 
REMARK  4 active torsions:
REMARK  status: ('A' for Active; 'I' for Inactive)
REMARK    1  A    between atoms: C_1  and  C_2
REMARK    2  A    between atoms: C_5  and  C_6
REMARK    3  A    between atoms: N_7  and  N_8
REMARK    4  A    between atoms: N_13  and  N_14
REMARK                            x       y       z     vdW  Elec       q    Type
REMARK                         _______ _______ _______ _____ _____    ______ ____
ROOT
ATOM      1  N   UNL     1       4.028   4.825  19.412  0.00  0.00    +0.000 N 
ATOM      2  C   UNL     1       3.527   3.665  18.768  0.00  0.00    +0.000 A 
ATOM      3  N   UNL     1       2.537   3.680  17.855  0.00  0.00    +0.000 NA
ATOM      4  N   UNL     1       2.345   2.422  17.474  0.00  0.00    +0.000 NA
ATOM      5  C   UNL     1       3.218   1.653  18.155  0.00  0.00    +0.000 A 
ATOM      6  N   UNL     1       3.967   2.411  18.973  0.00  0.00    +0.000 N 
ATOM      7  H   UNL     1       4.808   4.742  20.083  0.00  0.00    +0.000 HD
ENDROOT
BRANCH   6   8
ATOM      8  N   UNL     1       4.964   1.968  19.831  0.00  0.00    +0.000 N 
ATOM      9  H   UNL     1       5.539   1.151  19.578  0.00  0.00    +0.000 HD
ATOM     10  H   UNL     1       5.141   2.439  20.729  0.00  0.00    +0.000 HD
ENDBRANCH   6   8
BRANCH   1  12
ATOM     11  C   UNL     1       2.568   6.565  19.930  0.00  0.00    +0.000 C 
ATOM     12  N   UNL     1       3.463   6.053  19.155  0.00  0.00    +0.000 NA
BRANCH  11  17
ATOM     13  C   UNL     1      -0.072  11.583  18.697  0.00  0.00    +0.000 C 
ATOM     14  C   UNL     1       0.642  10.299  19.010  0.00  0.00    +0.000 A 
ATOM     15  C   UNL     1       1.383   9.631  18.023  0.00  0.00    +0.000 A 
ATOM     16  C   UNL     1       2.022   8.423  18.318  0.00  0.00    +0.000 A 
ATOM     17  C   UNL     1       1.928   7.862  19.604  0.00  0.00    +0.000 A 
ATOM     18  C   UNL     1       1.193   8.539  20.592  0.00  0.00    +0.000 A 
ATOM     19  C   UNL     1       0.556   9.749  20.297  0.00  0.00    +0.000 A 
ENDBRANCH  11  17
ENDBRANCH   1  12
TORSDOF 3
ENDMDL
MODEL 8
REMARK VINA RESULT:      -6.3      4.878      6.121
REMARK  Name = 
REMARK  4 active torsions:
REMARK  status: ('A' for Active; 'I' for Inactive)
REMARK    1  A    between atoms: C_1  and  C_2
REMARK    2  A    between atoms: C_5  and  C_6
REMARK    3  A    between atoms: N_7  and  N_8
REMARK    4  A    between atoms: N_13  and  N_14
REMARK                            x       y       z     vdW  Elec       q    Type
REMARK                         _______ _______ _______ _____ _____    ______ ____
ROOT
ATOM      1  N   UNL     1       3.399   4.577  19.942  0.00  0.00    +0.000 N 
ATOM      2  C   UNL     1       3.196   3.465  19.086  0.00  0.00    +0.000 A 
ATOM      3  N   UNL     1       2.242   3.411  18.137  0.00  0.00    +0.000 NA
ATOM      4  N   UNL     1       2.359   2.231  17.538  0.00  0.00    +0.000 NA
ATOM      5  C   UNL     1       3.381   1.576  18.127  0.00  0.00    +0.000 A 
ATOM      6  N   UNL     1       3.918   2.331  19.099  0.00  0.00    +0.000 N 
ATOM      7  H   UNL     1       4.167   4.560  20.631  0.00  0.00    +0.000 HD
ENDROOT
BRANCH   6   8
ATOM      8  N   UNL     1       4.981   1.987  19.923  0.00  0.00    +0.000 N 
ATOM      9  H   UNL     1       5.564   2.724  20.349  0.00  0.00    +0.000 HD
ATOM     10  H   UNL     1       5.207   1.003  20.117  0.00  0.00    +0.000 HD
ENDBRANCH   6   8
BRANCH   1  12
ATOM     11  C   UNL     1       2.912   6.752  19.265  0.00  0.00    +0.000 C 
ATOM     12  N   UNL     1       2.561   5.666  19.866  0.00  0.00    +0.000 NA
BRANCH  11  17
ATOM     13  C   UNL     1      -0.465  11.469  19.133  0.00  0.00    +0.000 C 
ATOM     14  C   UNL     1       0.382  10.229  19.176  0.00  0.00    +0.000 A 
ATOM     15  C   UNL     1       0.564   9.526  20.376  0.00  0.00    +0.000 A 
ATOM     16  C   UNL     1       1.376   8.387  20.411  0.00  0.00    +0.000 A 
ATOM     17  C   UNL     1       2.020   7.936  19.245  0.00  0.00    +0.000 A 
ATOM     18  C   UNL     1       1.826   8.637  18.043  0.00  0.00    +0.000 A 
ATOM     19  C   UNL     1       1.012   9.775  18.009  0.00  0.00    +0.000 A 
ENDBRANCH  11  17
ENDBRANCH   1  12
TORSDOF 3
ENDMDL
MODEL 9
REMARK VINA RESULT:      -6.2      6.532      8.390
REMARK  Name = 
REMARK  4 active torsions:
REMARK  status: ('A' for Active; 'I' for Inactive)
REMARK    1  A    between atoms: C_1  and  C_2
REMARK    2  A    between atoms: C_5  and  C_6
REMARK    3  A    between atoms: N_7  and  N_8
REMARK    4  A    between atoms: N_13  and  N_14
REMARK                            x       y       z     vdW  Elec       q    Type
REMARK                         _______ _______ _______ _____ _____    ______ ____
ROOT
ATOM      1  N   UNL     1       7.433   7.866  17.161  0.00  0.00    +0.000 N 
ATOM      2  C   UNL     1       7.233   6.617  17.801  0.00  0.00    +0.000 A 
ATOM      3  N   UNL     1       7.908   6.217  18.896  0.00  0.00    +0.000 NA
ATOM      4  N   UNL     1       7.452   5.008  19.210  0.00  0.00    +0.000 NA
ATOM      5  C   UNL     1       6.506   4.683  18.305  0.00  0.00    +0.000 A 
ATOM      6  N   UNL     1       6.354   5.676  17.414  0.00  0.00    +0.000 N 
ATOM      7  H   UNL     1       6.861   8.119  16.340  0.00  0.00    +0.000 HD
ENDROOT
BRANCH   6   8
ATOM      8  N   UNL     1       5.478   5.696  16.337  0.00  0.00    +0.000 N 
ATOM      9  H   UNL     1       5.663   5.110  15.509  0.00  0.00    +0.000 HD
ATOM     10  H   UNL     1       4.640   6.293  16.343  0.00  0.00    +0.000 HD
ENDBRANCH   6   8
BRANCH   1  12
ATOM     11  C   UNL     1       8.102   9.896  18.088  0.00  0.00    +0.000 C 
ATOM     12  N   UNL     1       8.399   8.729  17.624  0.00  0.00    +0.000 NA
BRANCH  11  17
ATOM     13  C   UNL     1      12.333  13.531  19.684  0.00  0.00    +0.000 C 
ATOM     14  C   UNL     1      11.218  12.603  19.296  0.00  0.00    +0.000 A 
ATOM     15  C   UNL     1      10.769  11.612  20.182  0.00  0.00    +0.000 A 
ATOM     16  C   UNL     1       9.747  10.736  19.801  0.00  0.00    +0.000 A 
ATOM     17  C   UNL     1       9.161  10.835  18.526  0.00  0.00    +0.000 A 
ATOM     18  C   UNL     1       9.608  11.836  17.647  0.00  0.00    +0.000 A 
ATOM     19  C   UNL     1      10.628  12.713  18.029  0.00  0.00    +0.000 A 
ENDBRANCH  11  17
ENDBRANCH   1  12
TORSDOF 3
ENDMDL
