MODEL 1
REMARK VINA RESULT:      -7.6      0.000      0.000
REMARK  Name = 
REMARK  8 active torsions:
REMARK  status: ('A' for Active; 'I' for Inactive)
REMARK    1  A    between atoms: C_1  and  C_2
REMARK    2  A    between atoms: C_2  and  C_3
REMARK    3  A    between atoms: C_8  and  S_9
REMARK    4  A    between atoms: S_9  and  C_12
REMARK    5  A    between atoms: C_12  and  C_13
REMARK    6  A    between atoms: C_13  and  C_14
REMARK    7  A    between atoms: N_16  and  C_17
REMARK    8  A    between atoms: C_17  and  C_18
REMARK                            x       y       z     vdW  Elec       q    Type
REMARK                         _______ _______ _______ _____ _____    ______ ____
ROOT
ATOM      1  S   UNL     1       5.964   5.455  15.634  0.00  0.00    +0.000 S 
ATOM      2  O   UNL     1       6.628   4.601  14.664  0.00  0.00    +0.000 OA
ATOM      3  O   UNL     1       5.183   6.600  15.211  0.00  0.00    +0.000 OA
ENDROOT
BRANCH   1   9
ATOM      4  C   UNL     1       2.662   2.456  20.780  0.00  0.00    +0.000 C 
ATOM      5  S   UNL     1       1.934   2.057  19.155  0.00  0.00    +0.000 S 
ATOM      6  C   UNL     1       3.111   2.942  18.155  0.00  0.00    +0.000 A 
ATOM      7  C   UNL     1       2.677   3.507  16.952  0.00  0.00    +0.000 A 
ATOM      8  C   UNL     1       3.557   4.255  16.173  0.00  0.00    +0.000 A 
ATOM      9  C   UNL     1       4.878   4.423  16.595  0.00  0.00    +0.000 A 
ATOM     10  C   UNL     1       5.346   3.806  17.760  0.00  0.00    +0.000 A 
ATOM     11  C   UNL     1       4.452   3.084  18.554  0.00  0.00    +0.000 A 
ATOM     12  N   UNL     1       4.927   2.523  19.752  0.00  0.00    +0.000 N 
ATOM     13  C   UNL     1       4.142   2.075  20.788  0.00  0.00    +0.000 C 
ATOM     14  O   UNL     1       4.663   1.509  21.749  0.00  0.00    +0.000 OA
ATOM     15  H   UNL     1       5.924   2.422  19.901  0.00  0.00    +0.000 HD
BRANCH   4  17
ATOM     16  C   UNL     1       1.284   4.639  20.637  0.00  0.00    +0.000 C 
ATOM     17  C   UNL     1       2.525   3.941  21.170  0.00  0.00    +0.000 C 
ENDBRANCH   4  17
ENDBRANCH   1   9
BRANCH   1  18
ATOM     18  C   UNL     1       7.192   6.004  16.798  0.00  0.00    +0.000 C 
BRANCH  18  19
ATOM     19  C   UNL     1       7.027   7.485  17.109  0.00  0.00    +0.000 C 
BRANCH  19  20
ATOM     20  C   UNL     1       8.024   7.918  18.159  0.00  0.00    +0.000 C 
ATOM     21  O   UNL     1       8.513   7.141  18.972  0.00  0.00    +0.000 OA
ATOM     22  N   UNL     1       8.335   9.255  18.107  0.00  0.00    +0.000 N 
ATOM     23  H   UNL     1       7.773   9.886  17.549  0.00  0.00    +0.000 HD
BRANCH  22  24
ATOM     24  C   UNL     1       9.229   9.855  19.073  0.00  0.00    +0.000 C 
BRANCH  24  25
ATOM     25  C   UNL     1       9.748  11.131  18.521  0.00  0.00    +0.000 A 
ATOM     26  C   UNL     1      11.009  11.685  18.449  0.00  0.00    +0.000 A 
ATOM     27  C   UNL     1      10.859  12.941  17.814  0.00  0.00    +0.000 A 
ATOM     28  C   UNL     1       9.519  13.075  17.539  0.00  0.00    +0.000 A 
ATOM     29  O   UNL     1       8.834  11.980  17.962  0.00  0.00    +0.000 OA
ENDBRANCH  24  25
ENDBRANCH  22  24
ENDBRANCH  19  20
ENDBRANCH  18  19
ENDBRANCH   1  18
TORSDOF 7
ENDMDL
MODEL 2
REMARK VINA RESULT:      -7.6      1.995      2.480
REMARK  Name = 
REMARK  8 active torsions:
REMARK  status: ('A' for Active; 'I' for Inactive)
REMARK    1  A    between atoms: C_1  and  C_2
REMARK    2  A    between atoms: C_2  and  C_3
REMARK    3  A    between atoms: C_8  and  S_9
REMARK    4  A    between atoms: S_9  and  C_12
REMARK    5  A    between atoms: C_12  and  C_13
REMARK    6  A    between atoms: C_13  and  C_14
REMARK    7  A    between atoms: N_16  and  C_17
REMARK    8  A    between atoms: C_17  and  C_18
REMARK                            x       y       z     vdW  Elec       q    Type
REMARK                         _______ _______ _______ _____ _____    ______ ____
ROOT
ATOM      1  S   UNL     1       7.491   4.997  17.926  0.00  0.00    +0.000 S 
ATOM      2  O   UNL     1       8.100   4.880  19.240  0.00  0.00    +0.000 OA
ATOM      3  O   UNL     1       7.984   4.227  16.802  0.00  0.00    +0.000 OA
ENDROOT
BRANCH   1   9
ATOM      4  C   UNL     1       1.244   3.980  20.440  0.00  0.00    +0.000 C 
ATOM      5  S   UNL     1       1.287   3.893  18.618  0.00  0.00    +0.000 S 
ATOM      6  C   UNL     1       3.041   4.121  18.421  0.00  0.00    +0.000 A 
ATOM      7  C   UNL     1       3.507   4.777  17.278  0.00  0.00    +0.000 A 
ATOM      8  C   UNL     1       4.869   5.023  17.119  0.00  0.00    +0.000 A 
ATOM      9  C   UNL     1       5.766   4.596  18.103  0.00  0.00    +0.000 A 
ATOM     10  C   UNL     1       5.322   3.875  19.216  0.00  0.00    +0.000 A 
ATOM     11  C   UNL     1       3.953   3.659  19.387  0.00  0.00    +0.000 A 
ATOM     12  N   UNL     1       3.523   2.988  20.545  0.00  0.00    +0.000 N 
ATOM     13  C   UNL     1       2.236   2.976  21.027  0.00  0.00    +0.000 C 
ATOM     14  O   UNL     1       1.952   2.271  21.995  0.00  0.00    +0.000 OA
ATOM     15  H   UNL     1       4.187   2.456  21.095  0.00  0.00    +0.000 HD
BRANCH   4  17
ATOM     16  C   UNL     1       1.751   6.468  19.953  0.00  0.00    +0.000 C 
ATOM     17  C   UNL     1       1.560   5.381  21.000  0.00  0.00    +0.000 C 
ENDBRANCH   4  17
ENDBRANCH   1   9
BRANCH   1  18
ATOM     18  C   UNL     1       7.497   6.719  17.481  0.00  0.00    +0.000 C 
BRANCH  18  19
ATOM     19  C   UNL     1       8.225   7.552  18.528  0.00  0.00    +0.000 C 
BRANCH  19  20
ATOM     20  C   UNL     1       8.264   9.004  18.113  0.00  0.00    +0.000 C 
ATOM     21  O   UNL     1       7.588   9.451  17.192  0.00  0.00    +0.000 OA
ATOM     22  N   UNL     1       9.117   9.771  18.868  0.00  0.00    +0.000 N 
ATOM     23  H   UNL     1       9.786   9.328  19.487  0.00  0.00    +0.000 HD
BRANCH  22  24
ATOM     24  C   UNL     1       9.324  11.172  18.576  0.00  0.00    +0.000 C 
BRANCH  24  25
ATOM     25  C   UNL     1       9.391  11.927  19.852  0.00  0.00    +0.000 A 
ATOM     26  C   UNL     1       9.763  13.217  20.167  0.00  0.00    +0.000 A 
ATOM     27  C   UNL     1       9.624  13.342  21.570  0.00  0.00    +0.000 A 
ATOM     28  C   UNL     1       9.176  12.124  22.022  0.00  0.00    +0.000 A 
ATOM     29  O   UNL     1       9.028  11.257  20.987  0.00  0.00    +0.000 OA
ENDBRANCH  24  25
ENDBRANCH  22  24
ENDBRANCH  19  20
ENDBRANCH  18  19
ENDBRANCH   1  18
TORSDOF 7
ENDMDL
MODEL 3
REMARK VINA RESULT:      -7.6      7.446     10.145
REMARK  Name = 
REMARK  8 active torsions:
REMARK  status: ('A' for Active; 'I' for Inactive)
REMARK    1  A    between atoms: C_1  and  C_2
REMARK    2  A    between atoms: C_2  and  C_3
REMARK    3  A    between atoms: C_8  and  S_9
REMARK    4  A    between atoms: S_9  and  C_12
REMARK    5  A    between atoms: C_12  and  C_13
REMARK    6  A    between atoms: C_13  and  C_14
REMARK    7  A    between atoms: N_16  and  C_17
REMARK    8  A    between atoms: C_17  and  C_18
REMARK                            x       y       z     vdW  Elec       q    Type
REMARK                         _______ _______ _______ _____ _____    ______ ____
ROOT
ATOM      1  S   UNL     1       0.407  10.577  19.360  0.00  0.00    +0.000 S 
ATOM      2  O   UNL     1       0.095  10.679  20.775  0.00  0.00    +0.000 OA
ATOM      3  O   UNL     1       1.066  11.660  18.660  0.00  0.00    +0.000 OA
ENDROOT
BRANCH   1   9
ATOM      4  C   UNL     1       2.720   4.172  19.228  0.00  0.00    +0.000 C 
ATOM      5  S   UNL     1       3.821   5.331  18.348  0.00  0.00    +0.000 S 
ATOM      6  C   UNL     1       2.910   6.820  18.698  0.00  0.00    +0.000 A 
ATOM      7  C   UNL     1       2.928   7.854  17.757  0.00  0.00    +0.000 A 
ATOM      8  C   UNL     1       2.180   9.009  17.972  0.00  0.00    +0.000 A 
ATOM      9  C   UNL     1       1.425   9.133  19.143  0.00  0.00    +0.000 A 
ATOM     10  C   UNL     1       1.454   8.139  20.126  0.00  0.00    +0.000 A 
ATOM     11  C   UNL     1       2.179   6.969  19.891  0.00  0.00    +0.000 A 
ATOM     12  N   UNL     1       2.144   5.956  20.865  0.00  0.00    +0.000 N 
ATOM     13  C   UNL     1       2.516   4.648  20.666  0.00  0.00    +0.000 C 
ATOM     14  O   UNL     1       2.540   3.868  21.619  0.00  0.00    +0.000 OA
ATOM     15  H   UNL     1       1.827   6.169  21.803  0.00  0.00    +0.000 HD
BRANCH   4  17
ATOM     16  C   UNL     1       0.677   2.651  18.783  0.00  0.00    +0.000 C 
ATOM     17  C   UNL     1       1.342   4.000  18.558  0.00  0.00    +0.000 C 
ENDBRANCH   4  17
ENDBRANCH   1   9
BRANCH   1  18
ATOM     18  C   UNL     1      -1.101  10.182  18.503  0.00  0.00    +0.000 C 
BRANCH  18  19
ATOM     19  C   UNL     1      -1.677  11.411  17.815  0.00  0.00    +0.000 C 
BRANCH  19  20
ATOM     20  C   UNL     1      -3.098  11.151  17.369  0.00  0.00    +0.000 C 
ATOM     21  O   UNL     1      -3.394  10.256  16.584  0.00  0.00    +0.000 OA
ATOM     22  N   UNL     1      -4.018  12.000  17.933  0.00  0.00    +0.000 N 
ATOM     23  H   UNL     1      -3.710  12.831  18.422  0.00  0.00    +0.000 HD
BRANCH  22  24
ATOM     24  C   UNL     1      -5.418  11.931  17.577  0.00  0.00    +0.000 C 
BRANCH  24  25
ATOM     25  C   UNL     1      -6.182  11.383  18.725  0.00  0.00    +0.000 A 
ATOM     26  C   UNL     1      -6.785  10.165  18.962  0.00  0.00    +0.000 A 
ATOM     27  C   UNL     1      -7.371  10.252  20.247  0.00  0.00    +0.000 A 
ATOM     28  C   UNL     1      -7.089  11.515  20.713  0.00  0.00    +0.000 A 
ATOM     29  O   UNL     1      -6.364  12.209  19.798  0.00  0.00    +0.000 OA
ENDBRANCH  24  25
ENDBRANCH  22  24
ENDBRANCH  19  20
ENDBRANCH  18  19
ENDBRANCH   1  18
TORSDOF 7
ENDMDL
MODEL 4
REMARK VINA RESULT:      -7.5      1.000      1.039
REMARK  Name = 
REMARK  8 active torsions:
REMARK  status: ('A' for Active; 'I' for Inactive)
REMARK    1  A    between atoms: C_1  and  C_2
REMARK    2  A    between atoms: C_2  and  C_3
REMARK    3  A    between atoms: C_8  and  S_9
REMARK    4  A    between atoms: S_9  and  C_12
REMARK    5  A    between atoms: C_12  and  C_13
REMARK    6  A    between atoms: C_13  and  C_14
REMARK    7  A    between atoms: N_16  and  C_17
REMARK    8  A    between atoms: C_17  and  C_18
REMARK                            x       y       z     vdW  Elec       q    Type
REMARK                         _______ _______ _______ _____ _____    ______ ____
ROOT
ATOM      1  S   UNL     1       6.307   6.177  16.348  0.00  0.00    +0.000 S 
ATOM      2  O   UNL     1       7.481   5.498  15.827  0.00  0.00    +0.000 OA
ATOM      3  O   UNL     1       5.486   7.011  15.496  0.00  0.00    +0.000 OA
ENDROOT
BRANCH   1   9
ATOM      4  C   UNL     1       2.751   2.259  20.635  0.00  0.00    +0.000 C 
ATOM      5  S   UNL     1       2.280   1.994  18.893  0.00  0.00    +0.000 S 
ATOM      6  C   UNL     1       3.465   3.106  18.166  0.00  0.00    +0.000 A 
ATOM      7  C   UNL     1       3.124   3.769  16.983  0.00  0.00    +0.000 A 
ATOM      8  C   UNL     1       4.003   4.691  16.418  0.00  0.00    +0.000 A 
ATOM      9  C   UNL     1       5.234   4.934  17.034  0.00  0.00    +0.000 A 
ATOM     10  C   UNL     1       5.620   4.226  18.177  0.00  0.00    +0.000 A 
ATOM     11  C   UNL     1       4.721   3.328  18.758  0.00  0.00    +0.000 A 
ATOM     12  N   UNL     1       5.104   2.673  19.941  0.00  0.00    +0.000 N 
ATOM     13  C   UNL     1       4.252   2.027  20.804  0.00  0.00    +0.000 C 
ATOM     14  O   UNL     1       4.709   1.400  21.761  0.00  0.00    +0.000 OA
ATOM     15  H   UNL     1       6.080   2.653  20.213  0.00  0.00    +0.000 HD
BRANCH   4  17
ATOM     16  C   UNL     1       1.161   4.297  20.548  0.00  0.00    +0.000 C 
ATOM     17  C   UNL     1       2.399   3.665  21.163  0.00  0.00    +0.000 C 
ENDBRANCH   4  17
ENDBRANCH   1   9
BRANCH   1  18
ATOM     18  C   UNL     1       6.821   7.136  17.755  0.00  0.00    +0.000 C 
BRANCH  18  19
ATOM     19  C   UNL     1       8.178   7.783  17.510  0.00  0.00    +0.000 C 
BRANCH  19  20
ATOM     20  C   UNL     1       8.210   9.178  18.090  0.00  0.00    +0.000 C 
ATOM     21  O   UNL     1       7.468  10.076  17.706  0.00  0.00    +0.000 OA
ATOM     22  N   UNL     1       9.138   9.339  19.090  0.00  0.00    +0.000 N 
ATOM     23  H   UNL     1       9.848   8.633  19.243  0.00  0.00    +0.000 HD
BRANCH  22  24
ATOM     24  C   UNL     1       9.346  10.624  19.720  0.00  0.00    +0.000 C 
BRANCH  24  25
ATOM     25  C   UNL     1      10.031  11.526  18.761  0.00  0.00    +0.000 A 
ATOM     26  C   UNL     1      11.240  11.460  18.100  0.00  0.00    +0.000 A 
ATOM     27  C   UNL     1      11.337  12.639  17.325  0.00  0.00    +0.000 A 
ATOM     28  C   UNL     1      10.184  13.351  17.560  0.00  0.00    +0.000 A 
ATOM     29  O   UNL     1       9.382  12.683  18.428  0.00  0.00    +0.000 OA
ENDBRANCH  24  25
ENDBRANCH  22  24
ENDBRANCH  19  20
ENDBRANCH  18  19
ENDBRANCH   1  18
TORSDOF 7
ENDMDL
MODEL 5
REMARK VINA RESULT:      -7.4      7.079      9.128
REMARK  Name = 
REMARK  8 active torsions:
REMARK  status: ('A' for Active; 'I' for Inactive)
REMARK    1  A    between atoms: C_1  and  C_2
REMARK    2  A    between atoms: C_2  and  C_3
REMARK    3  A    between atoms: C_8  and  S_9
REMARK    4  A    between atoms: S_9  and  C_12
REMARK    5  A    between atoms: C_12  and  C_13
REMARK    6  A    between atoms: C_13  and  C_14
REMARK    7  A    between atoms: N_16  and  C_17
REMARK    8  A    between atoms: C_17  and  C_18
REMARK                            x       y       z     vdW  Elec       q    Type
REMARK                         _______ _______ _______ _____ _____    ______ ____
ROOT
ATOM      1  S   UNL     1       1.164  10.147  18.747  0.00  0.00    +0.000 S 
ATOM      2  O   UNL     1       2.068  11.117  18.153  0.00  0.00    +0.000 OA
ATOM      3  O   UNL     1      -0.134   9.880  18.165  0.00  0.00    +0.000 OA
ENDROOT
BRANCH   1   9
ATOM      4  C   UNL     1       2.709   3.567  19.586  0.00  0.00    +0.000 C 
ATOM      5  S   UNL     1       4.032   4.493  18.737  0.00  0.00    +0.000 S 
ATOM      6  C   UNL     1       3.268   6.100  18.809  0.00  0.00    +0.000 A 
ATOM      7  C   UNL     1       3.515   7.006  17.775  0.00  0.00    +0.000 A 
ATOM      8  C   UNL     1       2.888   8.251  17.770  0.00  0.00    +0.000 A 
ATOM      9  C   UNL     1       2.024   8.590  18.815  0.00  0.00    +0.000 A 
ATOM     10  C   UNL     1       1.823   7.722  19.893  0.00  0.00    +0.000 A 
ATOM     11  C   UNL     1       2.427   6.464  19.877  0.00  0.00    +0.000 A 
ATOM     12  N   UNL     1       2.162   5.583  20.939  0.00  0.00    +0.000 N 
ATOM     13  C   UNL     1       2.398   4.229  20.929  0.00  0.00    +0.000 C 
ATOM     14  O   UNL     1       2.221   3.569  21.953  0.00  0.00    +0.000 OA
ATOM     15  H   UNL     1       1.767   5.938  21.802  0.00  0.00    +0.000 HD
BRANCH   4  17
ATOM     16  C   UNL     1       0.661   2.142  18.907  0.00  0.00    +0.000 C 
ATOM     17  C   UNL     1       1.406   3.460  18.768  0.00  0.00    +0.000 C 
ENDBRANCH   4  17
ENDBRANCH   1   9
BRANCH   1  18
ATOM     18  C   UNL     1       0.939  10.597  20.454  0.00  0.00    +0.000 C 
BRANCH  18  19
ATOM     19  C   UNL     1      -0.427  10.156  20.960  0.00  0.00    +0.000 C 
BRANCH  19  20
ATOM     20  C   UNL     1      -0.749  10.834  22.272  0.00  0.00    +0.000 C 
ATOM     21  O   UNL     1      -0.240  10.498  23.336  0.00  0.00    +0.000 OA
ATOM     22  N   UNL     1      -1.651  11.863  22.155  0.00  0.00    +0.000 N 
ATOM     23  H   UNL     1      -2.179  11.981  21.299  0.00  0.00    +0.000 HD
BRANCH  22  24
ATOM     24  C   UNL     1      -2.117  12.587  23.317  0.00  0.00    +0.000 C 
BRANCH  24  25
ATOM     25  C   UNL     1      -3.592  12.723  23.241  0.00  0.00    +0.000 A 
ATOM     26  C   UNL     1      -4.465  12.965  22.201  0.00  0.00    +0.000 A 
ATOM     27  C   UNL     1      -5.762  12.995  22.766  0.00  0.00    +0.000 A 
ATOM     28  C   UNL     1      -5.600  12.770  24.112  0.00  0.00    +0.000 A 
ATOM     29  O   UNL     1      -4.287  12.600  24.412  0.00  0.00    +0.000 OA
ENDBRANCH  24  25
ENDBRANCH  22  24
ENDBRANCH  19  20
ENDBRANCH  18  19
ENDBRANCH   1  18
TORSDOF 7
ENDMDL
MODEL 6
REMARK VINA RESULT:      -7.4      6.083      8.130
REMARK  Name = 
REMARK  8 active torsions:
REMARK  status: ('A' for Active; 'I' for Inactive)
REMARK    1  A    between atoms: C_1  and  C_2
REMARK    2  A    between atoms: C_2  and  C_3
REMARK    3  A    between atoms: C_8  and  S_9
REMARK    4  A    between atoms: S_9  and  C_12
REMARK    5  A    between atoms: C_12  and  C_13
REMARK    6  A    between atoms: C_13  and  C_14
REMARK    7  A    between atoms: N_16  and  C_17
REMARK    8  A    between atoms: C_17  and  C_18
REMARK                            x       y       z     vdW  Elec       q    Type
REMARK                         _______ _______ _______ _____ _____    ______ ____
ROOT
ATOM      1  S   UNL     1       1.493   9.315  18.424  0.00  0.00    +0.000 S 
ATOM      2  O   UNL     1       2.471  10.365  18.195  0.00  0.00    +0.000 OA
ATOM      3  O   UNL     1       0.475   9.014  17.439  0.00  0.00    +0.000 OA
ENDROOT
BRANCH   1   9
ATOM      4  C   UNL     1       3.147   2.889  19.957  0.00  0.00    +0.000 C 
ATOM      5  S   UNL     1       4.526   3.801  19.184  0.00  0.00    +0.000 S 
ATOM      6  C   UNL     1       3.707   5.375  19.043  0.00  0.00    +0.000 A 
ATOM      7  C   UNL     1       4.038   6.209  17.971  0.00  0.00    +0.000 A 
ATOM      8  C   UNL     1       3.375   7.422  17.797  0.00  0.00    +0.000 A 
ATOM      9  C   UNL     1       2.390   7.805  18.711  0.00  0.00    +0.000 A 
ATOM     10  C   UNL     1       2.098   7.015  19.828  0.00  0.00    +0.000 A 
ATOM     11  C   UNL     1       2.741   5.785  19.980  0.00  0.00    +0.000 A 
ATOM     12  N   UNL     1       2.388   4.978  21.075  0.00  0.00    +0.000 N 
ATOM     13  C   UNL     1       2.668   3.639  21.200  0.00  0.00    +0.000 C 
ATOM     14  O   UNL     1       2.399   3.053  22.249  0.00  0.00    +0.000 OA
ATOM     15  H   UNL     1       1.888   5.383  21.858  0.00  0.00    +0.000 HD
BRANCH   4  17
ATOM     16  C   UNL     1       2.309   2.375  17.566  0.00  0.00    +0.000 C 
ATOM     17  C   UNL     1       1.948   2.666  19.014  0.00  0.00    +0.000 C 
ENDBRANCH   4  17
ENDBRANCH   1   9
BRANCH   1  18
ATOM     18  C   UNL     1       0.696   9.653  19.979  0.00  0.00    +0.000 C 
BRANCH  18  19
ATOM     19  C   UNL     1       0.788  11.131  20.331  0.00  0.00    +0.000 C 
BRANCH  19  20
ATOM     20  C   UNL     1      -0.511  11.833  20.007  0.00  0.00    +0.000 C 
ATOM     21  O   UNL     1      -0.907  12.816  20.625  0.00  0.00    +0.000 OA
ATOM     22  N   UNL     1      -1.193  11.275  18.954  0.00  0.00    +0.000 N 
ATOM     23  H   UNL     1      -0.925  10.365  18.600  0.00  0.00    +0.000 HD
BRANCH  22  24
ATOM     24  C   UNL     1      -2.483  11.783  18.542  0.00  0.00    +0.000 C 
BRANCH  24  25
ATOM     25  C   UNL     1      -2.862  11.151  17.255  0.00  0.00    +0.000 A 
ATOM     26  C   UNL     1      -2.276  10.177  16.473  0.00  0.00    +0.000 A 
ATOM     27  C   UNL     1      -3.116  10.009  15.347  0.00  0.00    +0.000 A 
ATOM     28  C   UNL     1      -4.160  10.889  15.511  0.00  0.00    +0.000 A 
ATOM     29  O   UNL     1      -4.018  11.586  16.668  0.00  0.00    +0.000 OA
ENDBRANCH  24  25
ENDBRANCH  22  24
ENDBRANCH  19  20
ENDBRANCH  18  19
ENDBRANCH   1  18
TORSDOF 7
ENDMDL
MODEL 7
REMARK VINA RESULT:      -7.4      7.193      9.598
REMARK  Name = 
REMARK  8 active torsions:
REMARK  status: ('A' for Active; 'I' for Inactive)
REMARK    1  A    between atoms: C_1  and  C_2
REMARK    2  A    between atoms: C_2  and  C_3
REMARK    3  A    between atoms: C_8  and  S_9
REMARK    4  A    between atoms: S_9  and  C_12
REMARK    5  A    between atoms: C_12  and  C_13
REMARK    6  A    between atoms: C_13  and  C_14
REMARK    7  A    between atoms: N_16  and  C_17
REMARK    8  A    between atoms: C_17  and  C_18
REMARK                            x       y       z     vdW  Elec       q    Type
REMARK                         _______ _______ _______ _____ _____    ______ ____
ROOT
ATOM      1  S   UNL     1       1.347   9.945  18.584  0.00  0.00    +0.000 S 
ATOM      2  O   UNL     1       0.998  10.373  19.927  0.00  0.00    +0.000 OA
ATOM      3  O   UNL     1       2.161  10.776  17.722  0.00  0.00    +0.000 OA
ENDROOT
BRANCH   1   9
ATOM      4  C   UNL     1       2.775   3.371  19.647  0.00  0.00    +0.000 C 
ATOM      5  S   UNL     1       4.144   4.261  18.831  0.00  0.00    +0.000 S 
ATOM      6  C   UNL     1       3.397   5.877  18.833  0.00  0.00    +0.000 A 
ATOM      7  C   UNL     1       3.698   6.755  17.788  0.00  0.00    +0.000 A 
ATOM      8  C   UNL     1       3.087   8.006  17.726  0.00  0.00    +0.000 A 
ATOM      9  C   UNL     1       2.184   8.380  18.725  0.00  0.00    +0.000 A 
ATOM     10  C   UNL     1       1.927   7.542  19.815  0.00  0.00    +0.000 A 
ATOM     11  C   UNL     1       2.517   6.277  19.855  0.00  0.00    +0.000 A 
ATOM     12  N   UNL     1       2.197   5.425  20.926  0.00  0.00    +0.000 N 
ATOM     13  C   UNL     1       2.417   4.069  20.959  0.00  0.00    +0.000 C 
ATOM     14  O   UNL     1       2.189   3.437  21.990  0.00  0.00    +0.000 OA
ATOM     15  H   UNL     1       1.770   5.806  21.763  0.00  0.00    +0.000 HD
BRANCH   4  17
ATOM     16  C   UNL     1       0.669   2.011  19.014  0.00  0.00    +0.000 C 
ATOM     17  C   UNL     1       1.507   3.258  18.777  0.00  0.00    +0.000 C 
ENDBRANCH   4  17
ENDBRANCH   1   9
BRANCH   1  18
ATOM     18  C   UNL     1      -0.166   9.556  17.733  0.00  0.00    +0.000 C 
BRANCH  18  19
ATOM     19  C   UNL     1      -1.302  10.457  18.197  0.00  0.00    +0.000 C 
BRANCH  19  20
ATOM     20  C   UNL     1      -2.415  10.473  17.175  0.00  0.00    +0.000 C 
ATOM     21  O   UNL     1      -2.411   9.762  16.176  0.00  0.00    +0.000 OA
ATOM     22  N   UNL     1      -3.430  11.347  17.478  0.00  0.00    +0.000 N 
ATOM     23  H   UNL     1      -3.304  12.041  18.206  0.00  0.00    +0.000 HD
BRANCH  22  24
ATOM     24  C   UNL     1      -4.550  11.535  16.583  0.00  0.00    +0.000 C 
BRANCH  24  25
ATOM     25  C   UNL     1      -5.727  11.982  17.369  0.00  0.00    +0.000 A 
ATOM     26  C   UNL     1      -6.563  13.075  17.277  0.00  0.00    +0.000 A 
ATOM     27  C   UNL     1      -7.502  12.950  18.329  0.00  0.00    +0.000 A 
ATOM     28  C   UNL     1      -7.180  11.791  18.995  0.00  0.00    +0.000 A 
ATOM     29  O   UNL     1      -6.105  11.193  18.419  0.00  0.00    +0.000 OA
ENDBRANCH  24  25
ENDBRANCH  22  24
ENDBRANCH  19  20
ENDBRANCH  18  19
ENDBRANCH   1  18
TORSDOF 7
ENDMDL
MODEL 8
REMARK VINA RESULT:      -7.3      7.379      9.889
REMARK  Name = 
REMARK  8 active torsions:
REMARK  status: ('A' for Active; 'I' for Inactive)
REMARK    1  A    between atoms: C_1  and  C_2
REMARK    2  A    between atoms: C_2  and  C_3
REMARK    3  A    between atoms: C_8  and  S_9
REMARK    4  A    between atoms: S_9  and  C_12
REMARK    5  A    between atoms: C_12  and  C_13
REMARK    6  A    between atoms: C_13  and  C_14
REMARK    7  A    between atoms: N_16  and  C_17
REMARK    8  A    between atoms: C_17  and  C_18
REMARK                            x       y       z     vdW  Elec       q    Type
REMARK                         _______ _______ _______ _____ _____    ______ ____
ROOT
ATOM      1  S   UNL     1       0.404  10.233  20.053  0.00  0.00    +0.000 S 
ATOM      2  O   UNL     1      -0.264   9.768  21.256  0.00  0.00    +0.000 OA
ATOM      3  O   UNL     1       1.238  11.418  20.070  0.00  0.00    +0.000 OA
ENDROOT
BRANCH   1   9
ATOM      4  C   UNL     1       2.906   4.064  18.615  0.00  0.00    +0.000 C 
ATOM      5  S   UNL     1       3.786   5.398  17.735  0.00  0.00    +0.000 S 
ATOM      6  C   UNL     1       2.895   6.766  18.444  0.00  0.00    +0.000 A 
ATOM      7  C   UNL     1       2.704   7.915  17.671  0.00  0.00    +0.000 A 
ATOM      8  C   UNL     1       1.962   8.982  18.174  0.00  0.00    +0.000 A 
ATOM      9  C   UNL     1       1.423   8.900  19.461  0.00  0.00    +0.000 A 
ATOM     10  C   UNL     1       1.665   7.787  20.273  0.00  0.00    +0.000 A 
ATOM     11  C   UNL     1       2.382   6.707  19.753  0.00  0.00    +0.000 A 
ATOM     12  N   UNL     1       2.561   5.573  20.563  0.00  0.00    +0.000 N 
ATOM     13  C   UNL     1       2.943   4.329  20.120  0.00  0.00    +0.000 C 
ATOM     14  O   UNL     1       3.166   3.432  20.933  0.00  0.00    +0.000 OA
ATOM     15  H   UNL     1       2.408   5.638  21.563  0.00  0.00    +0.000 HD
BRANCH   4  17
ATOM     16  C   UNL     1       0.747   2.643  18.688  0.00  0.00    +0.000 C 
ATOM     17  C   UNL     1       1.438   3.896  18.173  0.00  0.00    +0.000 C 
ENDBRANCH   4  17
ENDBRANCH   1   9
BRANCH   1  18
ATOM     18  C   UNL     1      -0.835  10.430  18.792  0.00  0.00    +0.000 C 
BRANCH  18  19
ATOM     19  C   UNL     1      -1.027  11.899  18.439  0.00  0.00    +0.000 C 
BRANCH  19  20
ATOM     20  C   UNL     1      -1.928  12.571  19.449  0.00  0.00    +0.000 C 
ATOM     21  O   UNL     1      -1.500  13.280  20.354  0.00  0.00    +0.000 OA
ATOM     22  N   UNL     1      -3.264  12.323  19.249  0.00  0.00    +0.000 N 
ATOM     23  H   UNL     1      -3.555  11.591  18.613  0.00  0.00    +0.000 HD
BRANCH  22  24
ATOM     24  C   UNL     1      -4.266  12.840  20.155  0.00  0.00    +0.000 C 
BRANCH  24  25
ATOM     25  C   UNL     1      -5.514  12.054  19.993  0.00  0.00    +0.000 A 
ATOM     26  C   UNL     1      -6.670  11.954  20.739  0.00  0.00    +0.000 A 
ATOM     27  C   UNL     1      -7.499  11.022  20.069  0.00  0.00    +0.000 A 
ATOM     28  C   UNL     1      -6.798  10.613  18.959  0.00  0.00    +0.000 A 
ATOM     29  O   UNL     1      -5.593  11.235  18.901  0.00  0.00    +0.000 OA
ENDBRANCH  24  25
ENDBRANCH  22  24
ENDBRANCH  19  20
ENDBRANCH  18  19
ENDBRANCH   1  18
TORSDOF 7
ENDMDL
MODEL 9
REMARK VINA RESULT:      -7.3      4.913      7.336
REMARK  Name = 
REMARK  8 active torsions:
REMARK  status: ('A' for Active; 'I' for Inactive)
REMARK    1  A    between atoms: C_1  and  C_2
REMARK    2  A    between atoms: C_2  and  C_3
REMARK    3  A    between atoms: C_8  and  S_9
REMARK    4  A    between atoms: S_9  and  C_12
REMARK    5  A    between atoms: C_12  and  C_13
REMARK    6  A    between atoms: C_13  and  C_14
REMARK    7  A    between atoms: N_16  and  C_17
REMARK    8  A    between atoms: C_17  and  C_18
REMARK                            x       y       z     vdW  Elec       q    Type
REMARK                         _______ _______ _______ _____ _____    ______ ____
ROOT
ATOM      1  S   UNL     1       3.219   6.377  18.559  0.00  0.00    +0.000 S 
ATOM      2  O   UNL     1       3.589   6.810  17.223  0.00  0.00    +0.000 OA
ATOM      3  O   UNL     1       4.228   6.023  19.536  0.00  0.00    +0.000 OA
ENDROOT
BRANCH   1   9
ATOM      4  C   UNL     1      -1.190  11.479  19.512  0.00  0.00    +0.000 C 
ATOM      5  S   UNL     1      -0.551  10.805  21.083  0.00  0.00    +0.000 S 
ATOM      6  C   UNL     1       0.571   9.615  20.380  0.00  0.00    +0.000 A 
ATOM      7  C   UNL     1       0.809   8.426  21.075  0.00  0.00    +0.000 A 
ATOM      8  C   UNL     1       1.636   7.448  20.526  0.00  0.00    +0.000 A 
ATOM      9  C   UNL     1       2.238   7.672  19.285  0.00  0.00    +0.000 A 
ATOM     10  C   UNL     1       2.067   8.886  18.611  0.00  0.00    +0.000 A 
ATOM     11  C   UNL     1       1.211   9.849  19.149  0.00  0.00    +0.000 A 
ATOM     12  N   UNL     1       1.004  11.036  18.425  0.00  0.00    +0.000 N 
ATOM     13  C   UNL     1      -0.023  11.926  18.632  0.00  0.00    +0.000 C 
ATOM     14  O   UNL     1      -0.050  12.985  18.005  0.00  0.00    +0.000 OA
ATOM     15  H   UNL     1       1.645  11.293  17.684  0.00  0.00    +0.000 HD
BRANCH   4  17
ATOM     16  C   UNL     1      -2.537  10.975  17.363  0.00  0.00    +0.000 C 
ATOM     17  C   UNL     1      -2.061  10.483  18.721  0.00  0.00    +0.000 C 
ENDBRANCH   4  17
ENDBRANCH   1   9
BRANCH   1  18
ATOM     18  C   UNL     1       2.090   5.014  18.390  0.00  0.00    +0.000 C 
BRANCH  18  19
ATOM     19  C   UNL     1       2.483   4.118  17.223  0.00  0.00    +0.000 C 
BRANCH  19  20
ATOM     20  C   UNL     1       3.939   3.726  17.326  0.00  0.00    +0.000 C 
ATOM     21  O   UNL     1       4.360   2.950  18.177  0.00  0.00    +0.000 OA
ATOM     22  N   UNL     1       4.737   4.311  16.374  0.00  0.00    +0.000 N 
ATOM     23  H   UNL     1       4.384   5.080  15.817  0.00  0.00    +0.000 HD
BRANCH  22  24
ATOM     24  C   UNL     1       6.167   4.093  16.357  0.00  0.00    +0.000 C 
BRANCH  24  25
ATOM     25  C   UNL     1       6.830   5.180  17.119  0.00  0.00    +0.000 A 
ATOM     26  C   UNL     1       7.499   5.215  18.325  0.00  0.00    +0.000 A 
ATOM     27  C   UNL     1       7.896   6.558  18.523  0.00  0.00    +0.000 A 
ATOM     28  C   UNL     1       7.445   7.258  17.429  0.00  0.00    +0.000 A 
ATOM     29  O   UNL     1       6.798   6.431  16.568  0.00  0.00    +0.000 OA
ENDBRANCH  24  25
ENDBRANCH  22  24
ENDBRANCH  19  20
ENDBRANCH  18  19
ENDBRANCH   1  18
TORSDOF 7
ENDMDL
