MODEL 1
REMARK VINA RESULT:      -7.8      0.000      0.000
REMARK  Name = 
REMARK  11 active torsions:
REMARK  status: ('A' for Active; 'I' for Inactive)
REMARK    1  A    between atoms: C_2  and  C_31
REMARK    2  A    between atoms: N_3  and  C_4
REMARK    3  A    between atoms: C_4  and  C_5
REMARK    4  A    between atoms: C_5  and  C_6
REMARK    5  A    between atoms: C_6  and  N_7
REMARK    6  A    between atoms: N_7  and  C_8
REMARK    7  A    between atoms: C_10  and  C_11
REMARK    8  A    between atoms: C_11  and  C_12
REMARK    9  A    between atoms: C_16  and  C_17
REMARK   10  A    between atoms: C_17  and  N_18
REMARK   11  A    between atoms: C_27  and  C_28
REMARK                            x       y       z     vdW  Elec       q    Type
REMARK                         _______ _______ _______ _____ _____    ______ ____
ROOT
ATOM      1  C   UNL     1       4.366   4.855  18.534  0.00  0.00    +0.000 A 
ATOM      2  N   UNL     1       4.113   6.171  18.355  0.00  0.00    +0.000 NA
ATOM      3  C   UNL     1       2.862   6.542  18.025  0.00  0.00    +0.000 A 
ATOM      4  N   UNL     1       1.852   5.683  17.807  0.00  0.00    +0.000 NA
ATOM      5  C   UNL     1       2.145   4.380  17.993  0.00  0.00    +0.000 A 
ATOM      6  C   UNL     1       3.382   3.871  18.370  0.00  0.00    +0.000 A 
ENDROOT
BRANCH   6   7
ATOM      7  C   UNL     1       3.532   2.404  18.719  0.00  0.00    +0.000 C 
ATOM      8  C   UNL     1       3.914   1.977  20.119  0.00  0.00    +0.000 C 
ATOM      9  C   UNL     1       2.548   1.665  19.589  0.00  0.00    +0.000 C 
ENDBRANCH   6   7
BRANCH   1  10
ATOM     10  N   UNL     1       5.697   4.466  18.828  0.00  0.00    +0.000 N 
ATOM     11  H   UNL     1       5.678   3.661  19.447  0.00  0.00    +0.000 HD
BRANCH  10  12
ATOM     12  C   UNL     1       6.519   5.545  19.379  0.00  0.00    +0.000 C 
BRANCH  12  13
ATOM     13  C   UNL     1       7.750   5.765  18.498  0.00  0.00    +0.000 C 
BRANCH  13  14
ATOM     14  C   UNL     1       7.356   6.400  17.167  0.00  0.00    +0.000 C 
BRANCH  14  17
ATOM     15  O   UNL     1       5.327   5.799  15.308  0.00  0.00    +0.000 OA
ATOM     16  C   UNL     1       6.413   5.230  15.185  0.00  0.00    +0.000 C 
ATOM     17  N   UNL     1       7.454   5.458  16.067  0.00  0.00    +0.000 N 
ATOM     18  H   UNL     1       8.346   5.014  15.894  0.00  0.00    +0.000 HD
BRANCH  16  19
ATOM     19  C   UNL     1       6.769   4.216  14.057  0.00  0.00    +0.000 C 
ATOM     20  C   UNL     1       5.623   3.699  13.142  0.00  0.00    +0.000 C 
ATOM     21  C   UNL     1       6.643   3.703  11.986  0.00  0.00    +0.000 C 
ATOM     22  C   UNL     1       7.404   4.794  12.763  0.00  0.00    +0.000 C 
ENDBRANCH  16  19
ENDBRANCH  14  17
ENDBRANCH  13  14
ENDBRANCH  12  13
ENDBRANCH  10  12
ENDBRANCH   1  10
BRANCH   3  23
ATOM     23  C   UNL     1       2.561   8.023  17.938  0.00  0.00    +0.000 C 
BRANCH  23  24
ATOM     24  C   UNL     1       1.775   8.549  19.125  0.00  0.00    +0.000 A 
ATOM     25  C   UNL     1       1.710   7.828  20.324  0.00  0.00    +0.000 A 
ATOM     26  C   UNL     1       0.954   8.308  21.391  0.00  0.00    +0.000 A 
ATOM     27  C   UNL     1       0.240   9.505  21.269  0.00  0.00    +0.000 A 
ATOM     28  C   UNL     1       0.281  10.244  20.072  0.00  0.00    +0.000 A 
ATOM     29  C   UNL     1       1.073   9.761  19.022  0.00  0.00    +0.000 A 
BRANCH  28  30
ATOM     30  C   UNL     1      -0.462  11.556  19.949  0.00  0.00    +0.000 C 
BRANCH  30  31
ATOM     31  N   UNL     1       0.279  12.772  19.608  0.00  0.00    +0.000 NA
ATOM     32  C   UNL     1       1.335  13.184  20.537  0.00  0.00    +0.000 C 
ATOM     33  C   UNL     1       0.873  14.156  21.634  0.00  0.00    +0.000 C 
ATOM     34  O   UNL     1       0.212  15.301  21.080  0.00  0.00    +0.000 OA
ATOM     35  C   UNL     1      -0.913  14.904  20.286  0.00  0.00    +0.000 C 
ATOM     36  C   UNL     1      -0.508  13.929  19.169  0.00  0.00    +0.000 C 
ENDBRANCH  30  31
ENDBRANCH  28  30
ENDBRANCH  23  24
ENDBRANCH   3  23
TORSDOF 11
ENDMDL
MODEL 2
REMARK VINA RESULT:      -7.6      1.570      2.119
REMARK  Name = 
REMARK  11 active torsions:
REMARK  status: ('A' for Active; 'I' for Inactive)
REMARK    1  A    between atoms: C_2  and  C_31
REMARK    2  A    between atoms: N_3  and  C_4
REMARK    3  A    between atoms: C_4  and  C_5
REMARK    4  A    between atoms: C_5  and  C_6
REMARK    5  A    between atoms: C_6  and  N_7
REMARK    6  A    between atoms: N_7  and  C_8
REMARK    7  A    between atoms: C_10  and  C_11
REMARK    8  A    between atoms: C_11  and  C_12
REMARK    9  A    between atoms: C_16  and  C_17
REMARK   10  A    between atoms: C_17  and  N_18
REMARK   11  A    between atoms: C_27  and  C_28
REMARK                            x       y       z     vdW  Elec       q    Type
REMARK                         _______ _______ _______ _____ _____    ______ ____
ROOT
ATOM      1  C   UNL     1       4.232   4.730  19.244  0.00  0.00    +0.000 A 
ATOM      2  N   UNL     1       3.749   5.775  19.953  0.00  0.00    +0.000 NA
ATOM      3  C   UNL     1       2.447   6.090  19.819  0.00  0.00    +0.000 A 
ATOM      4  N   UNL     1       1.601   5.465  18.984  0.00  0.00    +0.000 NA
ATOM      5  C   UNL     1       2.121   4.431  18.292  0.00  0.00    +0.000 A 
ATOM      6  C   UNL     1       3.434   3.982  18.368  0.00  0.00    +0.000 A 
ENDROOT
BRANCH   6   7
ATOM      7  C   UNL     1       3.845   2.699  17.675  0.00  0.00    +0.000 C 
ATOM      8  C   UNL     1       3.742   1.368  18.387  0.00  0.00    +0.000 C 
ATOM      9  C   UNL     1       2.852   1.661  17.218  0.00  0.00    +0.000 C 
ENDBRANCH   6   7
BRANCH   1  10
ATOM     10  N   UNL     1       5.615   4.437  19.347  0.00  0.00    +0.000 N 
ATOM     11  H   UNL     1       5.789   3.961  20.227  0.00  0.00    +0.000 HD
BRANCH  10  12
ATOM     12  C   UNL     1       6.480   5.608  19.194  0.00  0.00    +0.000 C 
BRANCH  12  13
ATOM     13  C   UNL     1       7.275   5.504  17.892  0.00  0.00    +0.000 C 
BRANCH  13  14
ATOM     14  C   UNL     1       6.486   6.099  16.727  0.00  0.00    +0.000 C 
BRANCH  14  17
ATOM     15  O   UNL     1       7.959   5.556  14.388  0.00  0.00    +0.000 OA
ATOM     16  C   UNL     1       6.950   4.883  14.607  0.00  0.00    +0.000 C 
ATOM     17  N   UNL     1       6.164   5.099  15.725  0.00  0.00    +0.000 N 
ATOM     18  H   UNL     1       5.379   4.485  15.895  0.00  0.00    +0.000 HD
BRANCH  16  19
ATOM     19  C   UNL     1       6.433   3.726  13.702  0.00  0.00    +0.000 C 
ATOM     20  C   UNL     1       4.967   3.790  13.189  0.00  0.00    +0.000 C 
ATOM     21  C   UNL     1       5.473   3.151  11.880  0.00  0.00    +0.000 C 
ATOM     22  C   UNL     1       6.850   3.761  12.206  0.00  0.00    +0.000 C 
ENDBRANCH  16  19
ENDBRANCH  14  17
ENDBRANCH  13  14
ENDBRANCH  12  13
ENDBRANCH  10  12
ENDBRANCH   1  10
BRANCH   3  23
ATOM     23  C   UNL     1       1.889   7.187  20.700  0.00  0.00    +0.000 C 
BRANCH  23  24
ATOM     24  C   UNL     1       1.611   8.478  19.953  0.00  0.00    +0.000 A 
ATOM     25  C   UNL     1       1.963   8.622  18.605  0.00  0.00    +0.000 A 
ATOM     26  C   UNL     1       1.733   9.827  17.945  0.00  0.00    +0.000 A 
ATOM     27  C   UNL     1       1.166  10.909  18.626  0.00  0.00    +0.000 A 
ATOM     28  C   UNL     1       0.811  10.793  19.983  0.00  0.00    +0.000 A 
ATOM     29  C   UNL     1       1.020   9.564  20.620  0.00  0.00    +0.000 A 
BRANCH  28  30
ATOM     30  C   UNL     1       0.165  11.950  20.713  0.00  0.00    +0.000 C 
BRANCH  30  31
ATOM     31  N   UNL     1      -1.153  11.768  21.325  0.00  0.00    +0.000 NA
ATOM     32  C   UNL     1      -2.280  12.447  20.680  0.00  0.00    +0.000 C 
ATOM     33  C   UNL     1      -2.574  13.852  21.228  0.00  0.00    +0.000 C 
ATOM     34  O   UNL     1      -2.740  13.838  22.652  0.00  0.00    +0.000 OA
ATOM     35  C   UNL     1      -1.573  13.307  23.294  0.00  0.00    +0.000 C 
ATOM     36  C   UNL     1      -1.232  11.898  22.784  0.00  0.00    +0.000 C 
ENDBRANCH  30  31
ENDBRANCH  28  30
ENDBRANCH  23  24
ENDBRANCH   3  23
TORSDOF 11
ENDMDL
MODEL 3
REMARK VINA RESULT:      -7.4      3.647      5.687
REMARK  Name = 
REMARK  11 active torsions:
REMARK  status: ('A' for Active; 'I' for Inactive)
REMARK    1  A    between atoms: C_2  and  C_31
REMARK    2  A    between atoms: N_3  and  C_4
REMARK    3  A    between atoms: C_4  and  C_5
REMARK    4  A    between atoms: C_5  and  C_6
REMARK    5  A    between atoms: C_6  and  N_7
REMARK    6  A    between atoms: N_7  and  C_8
REMARK    7  A    between atoms: C_10  and  C_11
REMARK    8  A    between atoms: C_11  and  C_12
REMARK    9  A    between atoms: C_16  and  C_17
REMARK   10  A    between atoms: C_17  and  N_18
REMARK   11  A    between atoms: C_27  and  C_28
REMARK                            x       y       z     vdW  Elec       q    Type
REMARK                         _______ _______ _______ _____ _____    ______ ____
ROOT
ATOM      1  C   UNL     1       5.886   5.891  16.909  0.00  0.00    +0.000 A 
ATOM      2  N   UNL     1       5.107   6.376  17.901  0.00  0.00    +0.000 NA
ATOM      3  C   UNL     1       3.970   5.720  18.199  0.00  0.00    +0.000 A 
ATOM      4  N   UNL     1       3.526   4.639  17.537  0.00  0.00    +0.000 NA
ATOM      5  C   UNL     1       4.329   4.188  16.553  0.00  0.00    +0.000 A 
ATOM      6  C   UNL     1       5.542   4.748  16.173  0.00  0.00    +0.000 A 
ENDROOT
BRANCH   6   7
ATOM      7  C   UNL     1       6.433   4.040  15.172  0.00  0.00    +0.000 C 
ATOM      8  C   UNL     1       5.986   3.852  13.739  0.00  0.00    +0.000 C 
ATOM      9  C   UNL     1       7.135   4.761  14.050  0.00  0.00    +0.000 C 
ENDBRANCH   6   7
BRANCH   1  10
ATOM     10  N   UNL     1       7.054   6.615  16.563  0.00  0.00    +0.000 N 
ATOM     11  H   UNL     1       7.684   6.004  16.052  0.00  0.00    +0.000 HD
BRANCH  10  12
ATOM     12  C   UNL     1       7.724   7.236  17.708  0.00  0.00    +0.000 C 
BRANCH  12  13
ATOM     13  C   UNL     1       7.449   8.740  17.721  0.00  0.00    +0.000 C 
BRANCH  13  14
ATOM     14  C   UNL     1       8.757   9.528  17.756  0.00  0.00    +0.000 C 
BRANCH  14  17
ATOM     15  O   UNL     1      10.492  11.665  18.354  0.00  0.00    +0.000 OA
ATOM     16  C   UNL     1       9.887  11.132  19.286  0.00  0.00    +0.000 C 
ATOM     17  N   UNL     1       9.030  10.066  19.077  0.00  0.00    +0.000 N 
ATOM     18  H   UNL     1       8.510   9.697  19.862  0.00  0.00    +0.000 HD
BRANCH  16  19
ATOM     19  C   UNL     1       9.983  11.565  20.779  0.00  0.00    +0.000 C 
ATOM     20  C   UNL     1      10.230  13.066  21.096  0.00  0.00    +0.000 C 
ATOM     21  C   UNL     1       9.312  12.883  22.322  0.00  0.00    +0.000 C 
ATOM     22  C   UNL     1       8.646  11.726  21.553  0.00  0.00    +0.000 C 
ENDBRANCH  16  19
ENDBRANCH  14  17
ENDBRANCH  13  14
ENDBRANCH  12  13
ENDBRANCH  10  12
ENDBRANCH   1  10
BRANCH   3  23
ATOM     23  C   UNL     1       3.163   6.204  19.385  0.00  0.00    +0.000 C 
BRANCH  23  24
ATOM     24  C   UNL     1       2.392   7.482  19.109  0.00  0.00    +0.000 A 
ATOM     25  C   UNL     1       2.632   8.234  17.952  0.00  0.00    +0.000 A 
ATOM     26  C   UNL     1       1.941   9.423  17.732  0.00  0.00    +0.000 A 
ATOM     27  C   UNL     1       1.015   9.886  18.673  0.00  0.00    +0.000 A 
ATOM     28  C   UNL     1       0.762   9.154  19.849  0.00  0.00    +0.000 A 
ATOM     29  C   UNL     1       1.443   7.944  20.035  0.00  0.00    +0.000 A 
BRANCH  28  30
ATOM     30  C   UNL     1      -0.264   9.634  20.851  0.00  0.00    +0.000 C 
BRANCH  30  31
ATOM     31  N   UNL     1       0.146  10.552  21.915  0.00  0.00    +0.000 NA
ATOM     32  C   UNL     1      -0.608  10.487  23.170  0.00  0.00    +0.000 C 
ATOM     33  C   UNL     1      -1.807  11.447  23.243  0.00  0.00    +0.000 C 
ATOM     34  O   UNL     1      -1.419  12.797  22.955  0.00  0.00    +0.000 OA
ATOM     35  C   UNL     1      -0.810  12.886  21.660  0.00  0.00    +0.000 C 
ATOM     36  C   UNL     1       0.398  11.945  21.532  0.00  0.00    +0.000 C 
ENDBRANCH  30  31
ENDBRANCH  28  30
ENDBRANCH  23  24
ENDBRANCH   3  23
TORSDOF 11
ENDMDL
MODEL 4
REMARK VINA RESULT:      -7.4      1.522      1.991
REMARK  Name = 
REMARK  11 active torsions:
REMARK  status: ('A' for Active; 'I' for Inactive)
REMARK    1  A    between atoms: C_2  and  C_31
REMARK    2  A    between atoms: N_3  and  C_4
REMARK    3  A    between atoms: C_4  and  C_5
REMARK    4  A    between atoms: C_5  and  C_6
REMARK    5  A    between atoms: C_6  and  N_7
REMARK    6  A    between atoms: N_7  and  C_8
REMARK    7  A    between atoms: C_10  and  C_11
REMARK    8  A    between atoms: C_11  and  C_12
REMARK    9  A    between atoms: C_16  and  C_17
REMARK   10  A    between atoms: C_17  and  N_18
REMARK   11  A    between atoms: C_27  and  C_28
REMARK                            x       y       z     vdW  Elec       q    Type
REMARK                         _______ _______ _______ _____ _____    ______ ____
ROOT
ATOM      1  C   UNL     1       3.895   5.372  18.778  0.00  0.00    +0.000 A 
ATOM      2  N   UNL     1       3.515   6.455  19.491  0.00  0.00    +0.000 NA
ATOM      3  C   UNL     1       2.268   6.483  19.997  0.00  0.00    +0.000 A 
ATOM      4  N   UNL     1       1.350   5.523  19.795  0.00  0.00    +0.000 NA
ATOM      5  C   UNL     1       1.766   4.460  19.077  0.00  0.00    +0.000 A 
ATOM      6  C   UNL     1       3.034   4.293  18.535  0.00  0.00    +0.000 A 
ENDROOT
BRANCH   6   7
ATOM      7  C   UNL     1       3.428   2.973  17.902  0.00  0.00    +0.000 C 
ATOM      8  C   UNL     1       3.774   1.777  18.761  0.00  0.00    +0.000 C 
ATOM      9  C   UNL     1       2.535   1.759  17.919  0.00  0.00    +0.000 C 
ENDBRANCH   6   7
BRANCH   1  10
ATOM     10  N   UNL     1       5.190   5.372  18.203  0.00  0.00    +0.000 N 
ATOM     11  H   UNL     1       5.264   4.596  17.552  0.00  0.00    +0.000 HD
BRANCH  10  12
ATOM     12  C   UNL     1       6.273   5.349  19.187  0.00  0.00    +0.000 C 
BRANCH  12  13
ATOM     13  C   UNL     1       7.522   6.014  18.607  0.00  0.00    +0.000 C 
BRANCH  13  14
ATOM     14  C   UNL     1       7.220   6.636  17.245  0.00  0.00    +0.000 C 
BRANCH  14  17
ATOM     15  O   UNL     1       5.454   6.060  15.127  0.00  0.00    +0.000 OA
ATOM     16  C   UNL     1       6.545   5.488  15.144  0.00  0.00    +0.000 C 
ATOM     17  N   UNL     1       7.461   5.703  16.159  0.00  0.00    +0.000 N 
ATOM     18  H   UNL     1       8.367   5.257  16.101  0.00  0.00    +0.000 HD
BRANCH  16  19
ATOM     19  C   UNL     1       7.045   4.483  14.064  0.00  0.00    +0.000 C 
ATOM     20  C   UNL     1       5.985   3.731  13.211  0.00  0.00    +0.000 C 
ATOM     21  C   UNL     1       6.968   3.836  12.027  0.00  0.00    +0.000 C 
ATOM     22  C   UNL     1       7.550   5.082  12.723  0.00  0.00    +0.000 C 
ENDBRANCH  16  19
ENDBRANCH  14  17
ENDBRANCH  13  14
ENDBRANCH  12  13
ENDBRANCH  10  12
ENDBRANCH   1  10
BRANCH   3  23
ATOM     23  C   UNL     1       1.890   7.646  20.887  0.00  0.00    +0.000 C 
BRANCH  23  24
ATOM     24  C   UNL     1       1.193   8.773  20.146  0.00  0.00    +0.000 A 
ATOM     25  C   UNL     1       1.445   9.006  18.788  0.00  0.00    +0.000 A 
ATOM     26  C   UNL     1       0.824  10.066  18.131  0.00  0.00    +0.000 A 
ATOM     27  C   UNL     1      -0.040  10.918  18.826  0.00  0.00    +0.000 A 
ATOM     28  C   UNL     1      -0.302  10.712  20.194  0.00  0.00    +0.000 A 
ATOM     29  C   UNL     1       0.305   9.621  20.827  0.00  0.00    +0.000 A 
BRANCH  28  30
ATOM     30  C   UNL     1      -1.264  11.610  20.940  0.00  0.00    +0.000 C 
BRANCH  30  31
ATOM     31  N   UNL     1      -1.910  12.717  20.231  0.00  0.00    +0.000 NA
ATOM     32  C   UNL     1      -1.648  14.067  20.736  0.00  0.00    +0.000 C 
ATOM     33  C   UNL     1      -2.661  14.565  21.778  0.00  0.00    +0.000 C 
ATOM     34  O   UNL     1      -4.007  14.458  21.297  0.00  0.00    +0.000 OA
ATOM     35  C   UNL     1      -4.313  13.104  20.939  0.00  0.00    +0.000 C 
ATOM     36  C   UNL     1      -3.328  12.553  19.895  0.00  0.00    +0.000 C 
ENDBRANCH  30  31
ENDBRANCH  28  30
ENDBRANCH  23  24
ENDBRANCH   3  23
TORSDOF 11
ENDMDL
MODEL 5
REMARK VINA RESULT:      -7.4      1.199      1.566
REMARK  Name = 
REMARK  11 active torsions:
REMARK  status: ('A' for Active; 'I' for Inactive)
REMARK    1  A    between atoms: C_2  and  C_31
REMARK    2  A    between atoms: N_3  and  C_4
REMARK    3  A    between atoms: C_4  and  C_5
REMARK    4  A    between atoms: C_5  and  C_6
REMARK    5  A    between atoms: C_6  and  N_7
REMARK    6  A    between atoms: N_7  and  C_8
REMARK    7  A    between atoms: C_10  and  C_11
REMARK    8  A    between atoms: C_11  and  C_12
REMARK    9  A    between atoms: C_16  and  C_17
REMARK   10  A    between atoms: C_17  and  N_18
REMARK   11  A    between atoms: C_27  and  C_28
REMARK                            x       y       z     vdW  Elec       q    Type
REMARK                         _______ _______ _______ _____ _____    ______ ____
ROOT
ATOM      1  C   UNL     1       4.596   5.045  18.790  0.00  0.00    +0.000 A 
ATOM      2  N   UNL     1       4.321   6.342  18.523  0.00  0.00    +0.000 NA
ATOM      3  C   UNL     1       3.095   6.654  18.064  0.00  0.00    +0.000 A 
ATOM      4  N   UNL     1       2.134   5.752  17.802  0.00  0.00    +0.000 NA
ATOM      5  C   UNL     1       2.447   4.470  18.079  0.00  0.00    +0.000 A 
ATOM      6  C   UNL     1       3.659   4.022  18.590  0.00  0.00    +0.000 A 
ENDROOT
BRANCH   6   7
ATOM      7  C   UNL     1       3.820   2.579  19.025  0.00  0.00    +0.000 C 
ATOM      8  C   UNL     1       3.584   2.174  20.463  0.00  0.00    +0.000 C 
ATOM      9  C   UNL     1       2.651   1.700  19.391  0.00  0.00    +0.000 C 
ENDBRANCH   6   7
BRANCH   1  10
ATOM     10  N   UNL     1       5.905   4.715  19.221  0.00  0.00    +0.000 N 
ATOM     11  H   UNL     1       6.205   5.391  19.917  0.00  0.00    +0.000 HD
BRANCH  10  12
ATOM     12  C   UNL     1       6.875   4.604  18.130  0.00  0.00    +0.000 C 
BRANCH  12  13
ATOM     13  C   UNL     1       6.159   4.704  16.782  0.00  0.00    +0.000 C 
BRANCH  13  14
ATOM     14  C   UNL     1       7.168   4.838  15.643  0.00  0.00    +0.000 C 
BRANCH  14  17
ATOM     15  O   UNL     1       7.949   5.562  13.035  0.00  0.00    +0.000 OA
ATOM     16  C   UNL     1       7.119   4.660  13.163  0.00  0.00    +0.000 C 
ATOM     17  N   UNL     1       6.672   4.258  14.409  0.00  0.00    +0.000 N 
ATOM     18  H   UNL     1       6.035   3.474  14.469  0.00  0.00    +0.000 HD
BRANCH  16  19
ATOM     19  C   UNL     1       6.481   3.860  11.989  0.00  0.00    +0.000 C 
ATOM     20  C   UNL     1       6.997   2.420  11.712  0.00  0.00    +0.000 C 
ATOM     21  C   UNL     1       5.548   2.051  11.334  0.00  0.00    +0.000 C 
ATOM     22  C   UNL     1       5.098   3.204  12.252  0.00  0.00    +0.000 C 
ENDBRANCH  16  19
ENDBRANCH  14  17
ENDBRANCH  13  14
ENDBRANCH  12  13
ENDBRANCH  10  12
ENDBRANCH   1  10
BRANCH   3  23
ATOM     23  C   UNL     1       2.760   8.118  17.876  0.00  0.00    +0.000 C 
BRANCH  23  24
ATOM     24  C   UNL     1       1.774   8.648  18.901  0.00  0.00    +0.000 A 
ATOM     25  C   UNL     1       1.701   8.095  20.185  0.00  0.00    +0.000 A 
ATOM     26  C   UNL     1       0.765   8.569  21.101  0.00  0.00    +0.000 A 
ATOM     27  C   UNL     1      -0.123   9.588  20.741  0.00  0.00    +0.000 A 
ATOM     28  C   UNL     1      -0.077  10.154  19.452  0.00  0.00    +0.000 A 
ATOM     29  C   UNL     1       0.893   9.687  18.558  0.00  0.00    +0.000 A 
BRANCH  28  30
ATOM     30  C   UNL     1      -1.012  11.281  19.071  0.00  0.00    +0.000 C 
BRANCH  30  31
ATOM     31  N   UNL     1      -0.681  12.653  19.461  0.00  0.00    +0.000 NA
ATOM     32  C   UNL     1       0.726  13.049  19.351  0.00  0.00    +0.000 C 
ATOM     33  C   UNL     1       1.551  12.827  20.628  0.00  0.00    +0.000 C 
ATOM     34  O   UNL     1       0.938  13.448  21.766  0.00  0.00    +0.000 OA
ATOM     35  C   UNL     1      -0.392  12.951  21.961  0.00  0.00    +0.000 C 
ATOM     36  C   UNL     1      -1.265  13.148  20.711  0.00  0.00    +0.000 C 
ENDBRANCH  30  31
ENDBRANCH  28  30
ENDBRANCH  23  24
ENDBRANCH   3  23
TORSDOF 11
ENDMDL
MODEL 6
REMARK VINA RESULT:      -7.4      2.734      4.167
REMARK  Name = 
REMARK  11 active torsions:
REMARK  status: ('A' for Active; 'I' for Inactive)
REMARK    1  A    between atoms: C_2  and  C_31
REMARK    2  A    between atoms: N_3  and  C_4
REMARK    3  A    between atoms: C_4  and  C_5
REMARK    4  A    between atoms: C_5  and  C_6
REMARK    5  A    between atoms: C_6  and  N_7
REMARK    6  A    between atoms: N_7  and  C_8
REMARK    7  A    between atoms: C_10  and  C_11
REMARK    8  A    between atoms: C_11  and  C_12
REMARK    9  A    between atoms: C_16  and  C_17
REMARK   10  A    between atoms: C_17  and  N_18
REMARK   11  A    between atoms: C_27  and  C_28
REMARK                            x       y       z     vdW  Elec       q    Type
REMARK                         _______ _______ _______ _____ _____    ______ ____
ROOT
ATOM      1  C   UNL     1       2.048   4.699  18.630  0.00  0.00    +0.000 A 
ATOM      2  N   UNL     1       2.102   5.774  17.811  0.00  0.00    +0.000 NA
ATOM      3  C   UNL     1       2.392   6.973  18.349  0.00  0.00    +0.000 A 
ATOM      4  N   UNL     1       2.581   7.186  19.662  0.00  0.00    +0.000 NA
ATOM      5  C   UNL     1       2.516   6.092  20.446  0.00  0.00    +0.000 A 
ATOM      6  C   UNL     1       2.264   4.796  20.012  0.00  0.00    +0.000 A 
ENDROOT
BRANCH   6   7
ATOM      7  C   UNL     1       2.395   3.628  20.969  0.00  0.00    +0.000 C 
ATOM      8  C   UNL     1       1.169   3.006  21.601  0.00  0.00    +0.000 C 
ATOM      9  C   UNL     1       1.977   2.225  20.610  0.00  0.00    +0.000 C 
ENDBRANCH   6   7
BRANCH   1  10
ATOM     10  N   UNL     1       1.689   3.449  18.068  0.00  0.00    +0.000 N 
ATOM     11  H   UNL     1       1.628   2.757  18.808  0.00  0.00    +0.000 HD
BRANCH  10  12
ATOM     12  C   UNL     1       2.582   3.007  16.995  0.00  0.00    +0.000 C 
BRANCH  12  13
ATOM     13  C   UNL     1       4.026   2.970  17.498  0.00  0.00    +0.000 C 
BRANCH  13  14
ATOM     14  C   UNL     1       4.920   3.858  16.636  0.00  0.00    +0.000 C 
BRANCH  14  17
ATOM     15  O   UNL     1       6.596   5.889  15.632  0.00  0.00    +0.000 OA
ATOM     16  C   UNL     1       6.325   5.902  16.835  0.00  0.00    +0.000 C 
ATOM     17  N   UNL     1       5.524   4.930  17.407  0.00  0.00    +0.000 N 
ATOM     18  H   UNL     1       5.280   5.014  18.386  0.00  0.00    +0.000 HD
BRANCH  16  19
ATOM     19  C   UNL     1       6.816   6.976  17.850  0.00  0.00    +0.000 C 
ATOM     20  C   UNL     1       8.066   6.655  18.716  0.00  0.00    +0.000 C 
ATOM     21  C   UNL     1       8.444   8.145  18.595  0.00  0.00    +0.000 C 
ATOM     22  C   UNL     1       7.642   8.161  17.278  0.00  0.00    +0.000 C 
ENDBRANCH  16  19
ENDBRANCH  14  17
ENDBRANCH  13  14
ENDBRANCH  12  13
ENDBRANCH  10  12
ENDBRANCH   1  10
BRANCH   3  23
ATOM     23  C   UNL     1       2.563   8.148  17.410  0.00  0.00    +0.000 C 
BRANCH  23  24
ATOM     24  C   UNL     1       1.818   9.392  17.859  0.00  0.00    +0.000 A 
ATOM     25  C   UNL     1       2.505  10.572  18.170  0.00  0.00    +0.000 A 
ATOM     26  C   UNL     1       1.809  11.693  18.615  0.00  0.00    +0.000 A 
ATOM     27  C   UNL     1       0.420  11.646  18.773  0.00  0.00    +0.000 A 
ATOM     28  C   UNL     1      -0.293  10.469  18.477  0.00  0.00    +0.000 A 
ATOM     29  C   UNL     1       0.421   9.363  17.999  0.00  0.00    +0.000 A 
BRANCH  28  30
ATOM     30  C   UNL     1      -1.800  10.425  18.613  0.00  0.00    +0.000 C 
BRANCH  30  31
ATOM     31  N   UNL     1      -2.604  11.512  18.051  0.00  0.00    +0.000 NA
ATOM     32  C   UNL     1      -3.834  11.861  18.766  0.00  0.00    +0.000 C 
ATOM     33  C   UNL     1      -5.086  11.113  18.282  0.00  0.00    +0.000 C 
ATOM     34  O   UNL     1      -5.268  11.251  16.867  0.00  0.00    +0.000 OA
ATOM     35  C   UNL     1      -4.118  10.772  16.158  0.00  0.00    +0.000 C 
ATOM     36  C   UNL     1      -2.833  11.489  16.603  0.00  0.00    +0.000 C 
ENDBRANCH  30  31
ENDBRANCH  28  30
ENDBRANCH  23  24
ENDBRANCH   3  23
TORSDOF 11
ENDMDL
MODEL 7
REMARK VINA RESULT:      -7.3      3.130      4.652
REMARK  Name = 
REMARK  11 active torsions:
REMARK  status: ('A' for Active; 'I' for Inactive)
REMARK    1  A    between atoms: C_2  and  C_31
REMARK    2  A    between atoms: N_3  and  C_4
REMARK    3  A    between atoms: C_4  and  C_5
REMARK    4  A    between atoms: C_5  and  C_6
REMARK    5  A    between atoms: C_6  and  N_7
REMARK    6  A    between atoms: N_7  and  C_8
REMARK    7  A    between atoms: C_10  and  C_11
REMARK    8  A    between atoms: C_11  and  C_12
REMARK    9  A    between atoms: C_16  and  C_17
REMARK   10  A    between atoms: C_17  and  N_18
REMARK   11  A    between atoms: C_27  and  C_28
REMARK                            x       y       z     vdW  Elec       q    Type
REMARK                         _______ _______ _______ _____ _____    ______ ____
ROOT
ATOM      1  C   UNL     1       4.654   5.421  17.891  0.00  0.00    +0.000 A 
ATOM      2  N   UNL     1       4.208   6.692  17.787  0.00  0.00    +0.000 NA
ATOM      3  C   UNL     1       2.881   6.912  17.851  0.00  0.00    +0.000 A 
ATOM      4  N   UNL     1       1.960   5.941  17.960  0.00  0.00    +0.000 NA
ATOM      5  C   UNL     1       2.443   4.686  18.059  0.00  0.00    +0.000 A 
ATOM      6  C   UNL     1       3.786   4.330  18.045  0.00  0.00    +0.000 A 
ENDROOT
BRANCH   6   7
ATOM      7  C   UNL     1       4.203   2.904  18.344  0.00  0.00    +0.000 C 
ATOM      8  C   UNL     1       3.973   2.303  19.713  0.00  0.00    +0.000 C 
ATOM      9  C   UNL     1       3.212   1.784  18.531  0.00  0.00    +0.000 C 
ENDBRANCH   6   7
BRANCH   1  10
ATOM     10  N   UNL     1       6.046   5.189  17.769  0.00  0.00    +0.000 N 
ATOM     11  H   UNL     1       6.431   4.982  18.686  0.00  0.00    +0.000 HD
BRANCH  10  12
ATOM     12  C   UNL     1       6.772   6.284  17.120  0.00  0.00    +0.000 C 
BRANCH  12  13
ATOM     13  C   UNL     1       7.770   6.902  18.100  0.00  0.00    +0.000 C 
BRANCH  13  14
ATOM     14  C   UNL     1       7.981   8.383  17.794  0.00  0.00    +0.000 C 
BRANCH  14  17
ATOM     15  O   UNL     1       8.746  11.095  17.818  0.00  0.00    +0.000 OA
ATOM     16  C   UNL     1       9.074  10.391  18.775  0.00  0.00    +0.000 C 
ATOM     17  N   UNL     1       8.751   9.047  18.830  0.00  0.00    +0.000 N 
ATOM     18  H   UNL     1       8.989   8.521  19.661  0.00  0.00    +0.000 HD
BRANCH  16  19
ATOM     19  C   UNL     1       9.861  10.889  20.023  0.00  0.00    +0.000 C 
ATOM     20  C   UNL     1      10.698  12.193  19.895  0.00  0.00    +0.000 C 
ATOM     21  C   UNL     1      10.302  12.505  21.352  0.00  0.00    +0.000 C 
ATOM     22  C   UNL     1       9.050  11.639  21.115  0.00  0.00    +0.000 C 
ENDBRANCH  16  19
ENDBRANCH  14  17
ENDBRANCH  13  14
ENDBRANCH  12  13
ENDBRANCH  10  12
ENDBRANCH   1  10
BRANCH   3  23
ATOM     23  C   UNL     1       2.400   8.347  17.847  0.00  0.00    +0.000 C 
BRANCH  23  24
ATOM     24  C   UNL     1       1.704   8.753  19.133  0.00  0.00    +0.000 A 
ATOM     25  C   UNL     1       1.764   7.942  20.273  0.00  0.00    +0.000 A 
ATOM     26  C   UNL     1       1.090   8.312  21.435  0.00  0.00    +0.000 A 
ATOM     27  C   UNL     1       0.332   9.488  21.467  0.00  0.00    +0.000 A 
ATOM     28  C   UNL     1       0.248  10.316  20.332  0.00  0.00    +0.000 A 
ATOM     29  C   UNL     1       0.960   9.943  19.185  0.00  0.00    +0.000 A 
BRANCH  28  30
ATOM     30  C   UNL     1      -0.542  11.606  20.374  0.00  0.00    +0.000 C 
BRANCH  30  31
ATOM     31  N   UNL     1      -1.515  11.817  21.448  0.00  0.00    +0.000 NA
ATOM     32  C   UNL     1      -2.741  12.537  21.095  0.00  0.00    +0.000 C 
ATOM     33  C   UNL     1      -2.667  14.059  21.297  0.00  0.00    +0.000 C 
ATOM     34  O   UNL     1      -2.249  14.393  22.628  0.00  0.00    +0.000 OA
ATOM     35  C   UNL     1      -0.975  13.807  22.923  0.00  0.00    +0.000 C 
ATOM     36  C   UNL     1      -0.992  12.281  22.737  0.00  0.00    +0.000 C 
ENDBRANCH  30  31
ENDBRANCH  28  30
ENDBRANCH  23  24
ENDBRANCH   3  23
TORSDOF 11
ENDMDL
MODEL 8
REMARK VINA RESULT:      -7.3      3.651      5.339
REMARK  Name = 
REMARK  11 active torsions:
REMARK  status: ('A' for Active; 'I' for Inactive)
REMARK    1  A    between atoms: C_2  and  C_31
REMARK    2  A    between atoms: N_3  and  C_4
REMARK    3  A    between atoms: C_4  and  C_5
REMARK    4  A    between atoms: C_5  and  C_6
REMARK    5  A    between atoms: C_6  and  N_7
REMARK    6  A    between atoms: N_7  and  C_8
REMARK    7  A    between atoms: C_10  and  C_11
REMARK    8  A    between atoms: C_11  and  C_12
REMARK    9  A    between atoms: C_16  and  C_17
REMARK   10  A    between atoms: C_17  and  N_18
REMARK   11  A    between atoms: C_27  and  C_28
REMARK                            x       y       z     vdW  Elec       q    Type
REMARK                         _______ _______ _______ _____ _____    ______ ____
ROOT
ATOM      1  C   UNL     1       5.926   5.622  17.312  0.00  0.00    +0.000 A 
ATOM      2  N   UNL     1       5.153   6.128  18.298  0.00  0.00    +0.000 NA
ATOM      3  C   UNL     1       3.895   5.665  18.425  0.00  0.00    +0.000 A 
ATOM      4  N   UNL     1       3.334   4.767  17.599  0.00  0.00    +0.000 NA
ATOM      5  C   UNL     1       4.136   4.288  16.627  0.00  0.00    +0.000 A 
ATOM      6  C   UNL     1       5.459   4.653  16.413  0.00  0.00    +0.000 A 
ENDROOT
BRANCH   6   7
ATOM      7  C   UNL     1       6.304   3.909  15.397  0.00  0.00    +0.000 C 
ATOM      8  C   UNL     1       5.859   3.798  13.956  0.00  0.00    +0.000 C 
ATOM      9  C   UNL     1       7.071   4.607  14.304  0.00  0.00    +0.000 C 
ENDBRANCH   6   7
BRANCH   1  10
ATOM     10  N   UNL     1       7.231   6.150  17.149  0.00  0.00    +0.000 N 
ATOM     11  H   UNL     1       7.895   5.384  17.098  0.00  0.00    +0.000 HD
BRANCH  10  12
ATOM     12  C   UNL     1       7.609   7.118  18.181  0.00  0.00    +0.000 C 
BRANCH  12  13
ATOM     13  C   UNL     1       7.900   8.477  17.542  0.00  0.00    +0.000 C 
BRANCH  13  14
ATOM     14  C   UNL     1       8.721   9.353  18.486  0.00  0.00    +0.000 C 
BRANCH  14  17
ATOM     15  O   UNL     1      10.856  11.190  18.492  0.00  0.00    +0.000 OA
ATOM     16  C   UNL     1       9.746  11.593  18.141  0.00  0.00    +0.000 C 
ATOM     17  N   UNL     1       8.643  10.757  18.127  0.00  0.00    +0.000 N 
ATOM     18  H   UNL     1       7.765  11.114  17.775  0.00  0.00    +0.000 HD
BRANCH  16  19
ATOM     19  C   UNL     1       9.429  13.042  17.668  0.00  0.00    +0.000 C 
ATOM     20  C   UNL     1       8.359  13.855  18.448  0.00  0.00    +0.000 C 
ATOM     21  C   UNL     1       9.223  15.106  18.187  0.00  0.00    +0.000 C 
ATOM     22  C   UNL     1      10.431  14.154  18.084  0.00  0.00    +0.000 C 
ENDBRANCH  16  19
ENDBRANCH  14  17
ENDBRANCH  13  14
ENDBRANCH  12  13
ENDBRANCH  10  12
ENDBRANCH   1  10
BRANCH   3  23
ATOM     23  C   UNL     1       3.076   6.154  19.600  0.00  0.00    +0.000 C 
BRANCH  23  24
ATOM     24  C   UNL     1       2.332   7.447  19.321  0.00  0.00    +0.000 A 
ATOM     25  C   UNL     1       2.320   8.010  18.039  0.00  0.00    +0.000 A 
ATOM     26  C   UNL     1       1.662   9.217  17.808  0.00  0.00    +0.000 A 
ATOM     27  C   UNL     1       1.025   9.886  18.858  0.00  0.00    +0.000 A 
ATOM     28  C   UNL     1       1.031   9.346  20.158  0.00  0.00    +0.000 A 
ATOM     29  C   UNL     1       1.668   8.116  20.363  0.00  0.00    +0.000 A 
BRANCH  28  30
ATOM     30  C   UNL     1       0.313  10.049  21.289  0.00  0.00    +0.000 C 
BRANCH  30  31
ATOM     31  N   UNL     1      -0.573  11.176  20.987  0.00  0.00    +0.000 NA
ATOM     32  C   UNL     1       0.055  12.383  20.443  0.00  0.00    +0.000 C 
ATOM     33  C   UNL     1       0.477  13.413  21.503  0.00  0.00    +0.000 C 
ATOM     34  O   UNL     1      -0.614  13.756  22.367  0.00  0.00    +0.000 OA
ATOM     35  C   UNL     1      -1.137  12.589  23.014  0.00  0.00    +0.000 C 
ATOM     36  C   UNL     1      -1.577  11.522  21.999  0.00  0.00    +0.000 C 
ENDBRANCH  30  31
ENDBRANCH  28  30
ENDBRANCH  23  24
ENDBRANCH   3  23
TORSDOF 11
ENDMDL
MODEL 9
REMARK VINA RESULT:      -7.3      2.848     10.007
REMARK  Name = 
REMARK  11 active torsions:
REMARK  status: ('A' for Active; 'I' for Inactive)
REMARK    1  A    between atoms: C_2  and  C_31
REMARK    2  A    between atoms: N_3  and  C_4
REMARK    3  A    between atoms: C_4  and  C_5
REMARK    4  A    between atoms: C_5  and  C_6
REMARK    5  A    between atoms: C_6  and  N_7
REMARK    6  A    between atoms: N_7  and  C_8
REMARK    7  A    between atoms: C_10  and  C_11
REMARK    8  A    between atoms: C_11  and  C_12
REMARK    9  A    between atoms: C_16  and  C_17
REMARK   10  A    between atoms: C_17  and  N_18
REMARK   11  A    between atoms: C_27  and  C_28
REMARK                            x       y       z     vdW  Elec       q    Type
REMARK                         _______ _______ _______ _____ _____    ______ ____
ROOT
ATOM      1  C   UNL     1       0.756   9.740  20.005  0.00  0.00    +0.000 A 
ATOM      2  N   UNL     1       1.488   9.442  18.908  0.00  0.00    +0.000 NA
ATOM      3  C   UNL     1       2.094   8.241  18.850  0.00  0.00    +0.000 A 
ATOM      4  N   UNL     1       2.065   7.332  19.839  0.00  0.00    +0.000 NA
ATOM      5  C   UNL     1       1.328   7.667  20.917  0.00  0.00    +0.000 A 
ATOM      6  C   UNL     1       0.624   8.854  21.083  0.00  0.00    +0.000 A 
ENDROOT
BRANCH   6   7
ATOM      7  C   UNL     1      -0.310   9.031  22.264  0.00  0.00    +0.000 C 
ATOM      8  C   UNL     1       0.226   9.432  23.620  0.00  0.00    +0.000 C 
ATOM      9  C   UNL     1      -0.640  10.380  22.850  0.00  0.00    +0.000 C 
ENDBRANCH   6   7
BRANCH   1  10
ATOM     10  N   UNL     1       0.165  11.025  20.084  0.00  0.00    +0.000 N 
ATOM     11  H   UNL     1      -0.680  10.968  20.645  0.00  0.00    +0.000 HD
BRANCH  10  12
ATOM     12  C   UNL     1      -0.100  11.634  18.780  0.00  0.00    +0.000 C 
BRANCH  12  13
ATOM     13  C   UNL     1       0.633  12.972  18.668  0.00  0.00    +0.000 C 
BRANCH  13  14
ATOM     14  C   UNL     1      -0.356  14.134  18.698  0.00  0.00    +0.000 C 
BRANCH  14  17
ATOM     15  O   UNL     1      -0.441  15.096  21.345  0.00  0.00    +0.000 OA
ATOM     16  C   UNL     1      -1.397  14.434  20.938  0.00  0.00    +0.000 C 
ATOM     17  N   UNL     1      -1.424  13.913  19.657  0.00  0.00    +0.000 N 
ATOM     18  H   UNL     1      -2.254  13.426  19.346  0.00  0.00    +0.000 HD
BRANCH  16  19
ATOM     19  C   UNL     1      -2.674  14.106  21.766  0.00  0.00    +0.000 C 
ATOM     20  C   UNL     1      -3.399  12.757  21.501  0.00  0.00    +0.000 C 
ATOM     21  C   UNL     1      -3.709  12.709  23.011  0.00  0.00    +0.000 C 
ATOM     22  C   UNL     1      -2.461  13.590  23.216  0.00  0.00    +0.000 C 
ENDBRANCH  16  19
ENDBRANCH  14  17
ENDBRANCH  13  14
ENDBRANCH  12  13
ENDBRANCH  10  12
ENDBRANCH   1  10
BRANCH   3  23
ATOM     23  C   UNL     1       2.816   7.873  17.572  0.00  0.00    +0.000 C 
BRANCH  23  24
ATOM     24  C   UNL     1       3.673   6.627  17.701  0.00  0.00    +0.000 A 
ATOM     25  C   UNL     1       5.067   6.718  17.812  0.00  0.00    +0.000 A 
ATOM     26  C   UNL     1       5.841   5.564  17.893  0.00  0.00    +0.000 A 
ATOM     27  C   UNL     1       5.237   4.303  17.846  0.00  0.00    +0.000 A 
ATOM     28  C   UNL     1       3.840   4.183  17.725  0.00  0.00    +0.000 A 
ATOM     29  C   UNL     1       3.076   5.356  17.679  0.00  0.00    +0.000 A 
BRANCH  28  30
ATOM     30  C   UNL     1       3.180   2.822  17.710  0.00  0.00    +0.000 C 
BRANCH  30  31
ATOM     31  N   UNL     1       2.650   2.266  18.956  0.00  0.00    +0.000 NA
ATOM     32  C   UNL     1       1.200   2.346  19.151  0.00  0.00    +0.000 C 
ATOM     33  C   UNL     1       0.725   3.608  19.887  0.00  0.00    +0.000 C 
ATOM     34  O   UNL     1       1.413   3.782  21.133  0.00  0.00    +0.000 OA
ATOM     35  C   UNL     1       2.830   3.851  20.926  0.00  0.00    +0.000 C 
ATOM     36  C   UNL     1       3.361   2.609  20.193  0.00  0.00    +0.000 C 
ENDBRANCH  30  31
ENDBRANCH  28  30
ENDBRANCH  23  24
ENDBRANCH   3  23
TORSDOF 11
ENDMDL
