MODEL 1
REMARK VINA RESULT:      -8.1      0.000      0.000
REMARK  Name = 
REMARK  7 active torsions:
REMARK  status: ('A' for Active; 'I' for Inactive)
REMARK    1  A    between atoms: C_2  and  C_3
REMARK    2  A    between atoms: C_4  and  S_5
REMARK    3  A    between atoms: S_5  and  C_6
REMARK    4  A    between atoms: C_6  and  C_7
REMARK    5  A    between atoms: N_9  and  C_10
REMARK    6  A    between atoms: C_20  and  C_21
REMARK    7  A    between atoms: C_24  and  O_25
REMARK                            x       y       z     vdW  Elec       q    Type
REMARK                         _______ _______ _______ _____ _____    ______ ____
ROOT
ATOM      1  C   UNL     1       4.415   4.348  17.776  0.00  0.00    +0.000 C 
ATOM      2  C   UNL     1       4.841   3.842  18.946  0.00  0.00    +0.000 C 
ATOM      3  N   UNL     1       5.974   4.322  19.533  0.00  0.00    +0.000 N 
ATOM      4  C   UNL     1       6.759   5.342  19.088  0.00  0.00    +0.000 C 
ATOM      5  O   UNL     1       7.758   5.683  19.714  0.00  0.00    +0.000 OA
ATOM      6  C   UNL     1       6.321   6.071  17.841  0.00  0.00    +0.000 C 
ATOM      7  C   UNL     1       5.179   5.419  17.040  0.00  0.00    +0.000 C 
ATOM      8  H   UNL     1       6.264   3.894  20.409  0.00  0.00    +0.000 HD
ENDROOT
BRANCH   7   9
ATOM      9  C   UNL     1       5.700   4.918  15.698  0.00  0.00    +0.000 A 
ATOM     10  C   UNL     1       7.055   5.041  15.354  0.00  0.00    +0.000 A 
ATOM     11  C   UNL     1       7.502   4.650  14.091  0.00  0.00    +0.000 A 
ATOM     12  C   UNL     1       6.605   4.101  13.184  0.00  0.00    +0.000 A 
ATOM     13  C   UNL     1       5.267   3.946  13.513  0.00  0.00    +0.000 A 
ATOM     14  C   UNL     1       4.811   4.356  14.767  0.00  0.00    +0.000 A 
BRANCH  12  15
ATOM     15  O   UNL     1       7.009   3.705  11.944  0.00  0.00    +0.000 OA
ATOM     16  H   UNL     1       7.968   3.557  11.960  0.00  0.00    +0.000 HD
ENDBRANCH  12  15
ENDBRANCH   7   9
BRANCH   1  18
ATOM     17  N   UNL     1       2.127   3.300  16.593  0.00  0.00    +0.000 NA
ATOM     18  C   UNL     1       3.164   3.775  17.129  0.00  0.00    +0.000 C 
ENDBRANCH   1  18
BRANCH   2  19
ATOM     19  S   UNL     1       4.045   2.657  19.921  0.00  0.00    +0.000 S 
BRANCH  19  20
ATOM     20  C   UNL     1       2.972   3.593  21.051  0.00  0.00    +0.000 C 
BRANCH  20  21
ATOM     21  C   UNL     1       2.171   4.673  20.343  0.00  0.00    +0.000 C 
ATOM     22  O   UNL     1       1.084   4.419  19.824  0.00  0.00    +0.000 OA
ATOM     23  N   UNL     1       2.790   5.914  20.354  0.00  0.00    +0.000 N 
ATOM     24  H   UNL     1       3.760   5.958  20.644  0.00  0.00    +0.000 HD
BRANCH  23  25
ATOM     25  C   UNL     1       2.234   7.129  19.898  0.00  0.00    +0.000 A 
ATOM     26  C   UNL     1       1.502   7.996  20.714  0.00  0.00    +0.000 A 
ATOM     27  C   UNL     1       0.958   9.176  20.191  0.00  0.00    +0.000 A 
ATOM     28  C   UNL     1       1.134   9.494  18.848  0.00  0.00    +0.000 A 
ATOM     29  C   UNL     1       1.881   8.649  18.031  0.00  0.00    +0.000 A 
ATOM     30  C   UNL     1       2.449   7.486  18.562  0.00  0.00    +0.000 A 
ENDBRANCH  23  25
ENDBRANCH  20  21
ENDBRANCH  19  20
ENDBRANCH   2  19
TORSDOF 7
ENDMDL
MODEL 2
REMARK VINA RESULT:      -8.0      3.651      6.560
REMARK  Name = 
REMARK  7 active torsions:
REMARK  status: ('A' for Active; 'I' for Inactive)
REMARK    1  A    between atoms: C_2  and  C_3
REMARK    2  A    between atoms: C_4  and  S_5
REMARK    3  A    between atoms: S_5  and  C_6
REMARK    4  A    between atoms: C_6  and  C_7
REMARK    5  A    between atoms: N_9  and  C_10
REMARK    6  A    between atoms: C_20  and  C_21
REMARK    7  A    between atoms: C_24  and  O_25
REMARK                            x       y       z     vdW  Elec       q    Type
REMARK                         _______ _______ _______ _____ _____    ______ ____
ROOT
ATOM      1  C   UNL     1       4.633   5.276  17.489  0.00  0.00    +0.000 C 
ATOM      2  C   UNL     1       5.681   4.668  18.070  0.00  0.00    +0.000 C 
ATOM      3  N   UNL     1       5.487   3.757  19.064  0.00  0.00    +0.000 N 
ATOM      4  C   UNL     1       4.292   3.314  19.547  0.00  0.00    +0.000 C 
ATOM      5  O   UNL     1       4.251   2.482  20.449  0.00  0.00    +0.000 OA
ATOM      6  C   UNL     1       3.035   3.835  18.895  0.00  0.00    +0.000 C 
ATOM      7  C   UNL     1       3.214   5.020  17.928  0.00  0.00    +0.000 C 
ATOM      8  H   UNL     1       6.313   3.339  19.484  0.00  0.00    +0.000 HD
ENDROOT
BRANCH   7   9
ATOM      9  C   UNL     1       2.571   6.274  18.512  0.00  0.00    +0.000 A 
ATOM     10  C   UNL     1       2.337   7.406  17.716  0.00  0.00    +0.000 A 
ATOM     11  C   UNL     1       1.821   8.573  18.283  0.00  0.00    +0.000 A 
ATOM     12  C   UNL     1       1.503   8.599  19.634  0.00  0.00    +0.000 A 
ATOM     13  C   UNL     1       1.702   7.482  20.433  0.00  0.00    +0.000 A 
ATOM     14  C   UNL     1       2.238   6.320  19.876  0.00  0.00    +0.000 A 
BRANCH  12  15
ATOM     15  O   UNL     1       0.993   9.720  20.218  0.00  0.00    +0.000 OA
ATOM     16  H   UNL     1       0.449   9.457  20.977  0.00  0.00    +0.000 HD
ENDBRANCH  12  15
ENDBRANCH   7   9
BRANCH   1  18
ATOM     17  N   UNL     1       5.085   7.167  15.501  0.00  0.00    +0.000 NA
ATOM     18  C   UNL     1       4.880   6.310  16.402  0.00  0.00    +0.000 C 
ENDBRANCH   1  18
BRANCH   2  19
ATOM     19  S   UNL     1       7.348   4.824  17.636  0.00  0.00    +0.000 S 
BRANCH  19  20
ATOM     20  C   UNL     1       8.059   5.992  18.834  0.00  0.00    +0.000 C 
BRANCH  20  21
ATOM     21  C   UNL     1       8.186   7.401  18.279  0.00  0.00    +0.000 C 
ATOM     22  O   UNL     1       7.762   7.681  17.158  0.00  0.00    +0.000 OA
ATOM     23  N   UNL     1       8.809   8.282  19.150  0.00  0.00    +0.000 N 
ATOM     24  H   UNL     1       9.280   7.896  19.961  0.00  0.00    +0.000 HD
BRANCH  23  25
ATOM     25  C   UNL     1       8.949   9.676  18.972  0.00  0.00    +0.000 A 
ATOM     26  C   UNL     1       8.546  10.349  17.814  0.00  0.00    +0.000 A 
ATOM     27  C   UNL     1       8.735  11.731  17.694  0.00  0.00    +0.000 A 
ATOM     28  C   UNL     1       9.334  12.450  18.724  0.00  0.00    +0.000 A 
ATOM     29  C   UNL     1       9.718  11.793  19.890  0.00  0.00    +0.000 A 
ATOM     30  C   UNL     1       9.501  10.418  20.022  0.00  0.00    +0.000 A 
ENDBRANCH  23  25
ENDBRANCH  20  21
ENDBRANCH  19  20
ENDBRANCH   2  19
TORSDOF 7
ENDMDL
MODEL 3
REMARK VINA RESULT:      -7.6      4.182      6.884
REMARK  Name = 
REMARK  7 active torsions:
REMARK  status: ('A' for Active; 'I' for Inactive)
REMARK    1  A    between atoms: C_2  and  C_3
REMARK    2  A    between atoms: C_4  and  S_5
REMARK    3  A    between atoms: S_5  and  C_6
REMARK    4  A    between atoms: C_6  and  C_7
REMARK    5  A    between atoms: N_9  and  C_10
REMARK    6  A    between atoms: C_20  and  C_21
REMARK    7  A    between atoms: C_24  and  O_25
REMARK                            x       y       z     vdW  Elec       q    Type
REMARK                         _______ _______ _______ _____ _____    ______ ____
ROOT
ATOM      1  C   UNL     1       4.494   6.071  18.667  0.00  0.00    +0.000 C 
ATOM      2  C   UNL     1       4.825   6.864  17.633  0.00  0.00    +0.000 C 
ATOM      3  N   UNL     1       3.985   7.858  17.230  0.00  0.00    +0.000 N 
ATOM      4  C   UNL     1       2.798   8.209  17.798  0.00  0.00    +0.000 C 
ATOM      5  O   UNL     1       2.132   9.132  17.339  0.00  0.00    +0.000 OA
ATOM      6  C   UNL     1       2.369   7.468  19.041  0.00  0.00    +0.000 C 
ATOM      7  C   UNL     1       3.178   6.205  19.391  0.00  0.00    +0.000 C 
ATOM      8  H   UNL     1       4.273   8.419  16.432  0.00  0.00    +0.000 HD
ENDROOT
BRANCH   7   9
ATOM      9  C   UNL     1       2.311   4.963  19.219  0.00  0.00    +0.000 A 
ATOM     10  C   UNL     1       1.712   4.340  20.325  0.00  0.00    +0.000 A 
ATOM     11  C   UNL     1       0.986   3.158  20.161  0.00  0.00    +0.000 A 
ATOM     12  C   UNL     1       0.828   2.618  18.892  0.00  0.00    +0.000 A 
ATOM     13  C   UNL     1       1.390   3.233  17.783  0.00  0.00    +0.000 A 
ATOM     14  C   UNL     1       2.134   4.403  17.944  0.00  0.00    +0.000 A 
BRANCH  12  15
ATOM     15  O   UNL     1       0.122   1.468  18.696  0.00  0.00    +0.000 OA
ATOM     16  H   UNL     1      -0.464   1.588  17.932  0.00  0.00    +0.000 HD
ENDBRANCH  12  15
ENDBRANCH   7   9
BRANCH   1  18
ATOM     17  N   UNL     1       6.218   4.023  19.419  0.00  0.00    +0.000 NA
ATOM     18  C   UNL     1       5.436   4.952  19.078  0.00  0.00    +0.000 C 
ENDBRANCH   1  18
BRANCH   2  19
ATOM     19  S   UNL     1       6.311   6.858  16.751  0.00  0.00    +0.000 S 
BRANCH  19  20
ATOM     20  C   UNL     1       7.607   7.232  17.970  0.00  0.00    +0.000 C 
BRANCH  20  21
ATOM     21  C   UNL     1       7.980   8.705  17.998  0.00  0.00    +0.000 C 
ATOM     22  O   UNL     1       7.436   9.512  17.245  0.00  0.00    +0.000 OA
ATOM     23  N   UNL     1       8.962   9.007  18.931  0.00  0.00    +0.000 N 
ATOM     24  H   UNL     1       9.464   8.237  19.358  0.00  0.00    +0.000 HD
BRANCH  23  25
ATOM     25  C   UNL     1       9.414  10.298  19.280  0.00  0.00    +0.000 A 
ATOM     26  C   UNL     1       9.308  10.830  20.568  0.00  0.00    +0.000 A 
ATOM     27  C   UNL     1       9.758  12.128  20.840  0.00  0.00    +0.000 A 
ATOM     28  C   UNL     1      10.308  12.907  19.826  0.00  0.00    +0.000 A 
ATOM     29  C   UNL     1      10.439  12.378  18.545  0.00  0.00    +0.000 A 
ATOM     30  C   UNL     1      10.018  11.071  18.282  0.00  0.00    +0.000 A 
ENDBRANCH  23  25
ENDBRANCH  20  21
ENDBRANCH  19  20
ENDBRANCH   2  19
TORSDOF 7
ENDMDL
MODEL 4
REMARK VINA RESULT:      -7.5      4.823      7.217
REMARK  Name = 
REMARK  7 active torsions:
REMARK  status: ('A' for Active; 'I' for Inactive)
REMARK    1  A    between atoms: C_2  and  C_3
REMARK    2  A    between atoms: C_4  and  S_5
REMARK    3  A    between atoms: S_5  and  C_6
REMARK    4  A    between atoms: C_6  and  C_7
REMARK    5  A    between atoms: N_9  and  C_10
REMARK    6  A    between atoms: C_20  and  C_21
REMARK    7  A    between atoms: C_24  and  O_25
REMARK                            x       y       z     vdW  Elec       q    Type
REMARK                         _______ _______ _______ _____ _____    ______ ____
ROOT
ATOM      1  C   UNL     1       4.964   6.568  17.080  0.00  0.00    +0.000 C 
ATOM      2  C   UNL     1       6.234   6.965  17.272  0.00  0.00    +0.000 C 
ATOM      3  N   UNL     1       7.260   6.078  17.149  0.00  0.00    +0.000 N 
ATOM      4  C   UNL     1       7.171   4.767  16.790  0.00  0.00    +0.000 C 
ATOM      5  O   UNL     1       8.178   4.069  16.711  0.00  0.00    +0.000 OA
ATOM      6  C   UNL     1       5.807   4.228  16.433  0.00  0.00    +0.000 C 
ATOM      7  C   UNL     1       4.610   5.136  16.771  0.00  0.00    +0.000 C 
ATOM      8  H   UNL     1       8.201   6.423  17.323  0.00  0.00    +0.000 HD
ENDROOT
BRANCH   7   9
ATOM      9  C   UNL     1       3.775   4.510  17.883  0.00  0.00    +0.000 A 
ATOM     10  C   UNL     1       4.378   4.002  19.044  0.00  0.00    +0.000 A 
ATOM     11  C   UNL     1       3.609   3.361  20.017  0.00  0.00    +0.000 A 
ATOM     12  C   UNL     1       2.234   3.259  19.849  0.00  0.00    +0.000 A 
ATOM     13  C   UNL     1       1.615   3.777  18.721  0.00  0.00    +0.000 A 
ATOM     14  C   UNL     1       2.383   4.400  17.736  0.00  0.00    +0.000 A 
BRANCH  12  15
ATOM     15  O   UNL     1       1.453   2.644  20.782  0.00  0.00    +0.000 OA
ATOM     16  H   UNL     1       1.997   2.437  21.558  0.00  0.00    +0.000 HD
ENDBRANCH  12  15
ENDBRANCH   7   9
BRANCH   1  18
ATOM     17  N   UNL     1       2.901   8.406  17.394  0.00  0.00    +0.000 NA
ATOM     18  C   UNL     1       3.836   7.573  17.252  0.00  0.00    +0.000 C 
ENDBRANCH   1  18
BRANCH   2  19
ATOM     19  S   UNL     1       6.787   8.575  17.579  0.00  0.00    +0.000 S 
BRANCH  19  20
ATOM     20  C   UNL     1       8.389   8.391  18.417  0.00  0.00    +0.000 C 
BRANCH  20  21
ATOM     21  C   UNL     1       8.991   9.722  18.835  0.00  0.00    +0.000 C 
ATOM     22  O   UNL     1       9.136  10.008  20.023  0.00  0.00    +0.000 OA
ATOM     23  N   UNL     1       9.334  10.532  17.762  0.00  0.00    +0.000 N 
ATOM     24  H   UNL     1       8.997  10.271  16.842  0.00  0.00    +0.000 HD
BRANCH  23  25
ATOM     25  C   UNL     1      10.030  11.759  17.830  0.00  0.00    +0.000 A 
ATOM     26  C   UNL     1      11.420  11.851  17.948  0.00  0.00    +0.000 A 
ATOM     27  C   UNL     1      12.044  13.102  18.034  0.00  0.00    +0.000 A 
ATOM     28  C   UNL     1      11.286  14.268  18.011  0.00  0.00    +0.000 A 
ATOM     29  C   UNL     1       9.903  14.188  17.871  0.00  0.00    +0.000 A 
ATOM     30  C   UNL     1       9.283  12.940  17.755  0.00  0.00    +0.000 A 
ENDBRANCH  23  25
ENDBRANCH  20  21
ENDBRANCH  19  20
ENDBRANCH   2  19
TORSDOF 7
ENDMDL
MODEL 5
REMARK VINA RESULT:      -7.4      4.791      7.025
REMARK  Name = 
REMARK  7 active torsions:
REMARK  status: ('A' for Active; 'I' for Inactive)
REMARK    1  A    between atoms: C_2  and  C_3
REMARK    2  A    between atoms: C_4  and  S_5
REMARK    3  A    between atoms: S_5  and  C_6
REMARK    4  A    between atoms: C_6  and  C_7
REMARK    5  A    between atoms: N_9  and  C_10
REMARK    6  A    between atoms: C_20  and  C_21
REMARK    7  A    between atoms: C_24  and  O_25
REMARK                            x       y       z     vdW  Elec       q    Type
REMARK                         _______ _______ _______ _____ _____    ______ ____
ROOT
ATOM      1  C   UNL     1       4.916   6.545  17.033  0.00  0.00    +0.000 C 
ATOM      2  C   UNL     1       6.180   6.966  17.213  0.00  0.00    +0.000 C 
ATOM      3  N   UNL     1       7.220   6.094  17.097  0.00  0.00    +0.000 N 
ATOM      4  C   UNL     1       7.151   4.776  16.757  0.00  0.00    +0.000 C 
ATOM      5  O   UNL     1       8.169   4.094  16.683  0.00  0.00    +0.000 OA
ATOM      6  C   UNL     1       5.794   4.210  16.416  0.00  0.00    +0.000 C 
ATOM      7  C   UNL     1       4.584   5.103  16.747  0.00  0.00    +0.000 C 
ATOM      8  H   UNL     1       8.156   6.457  17.261  0.00  0.00    +0.000 HD
ENDROOT
BRANCH   7   9
ATOM      9  C   UNL     1       3.765   4.480  17.872  0.00  0.00    +0.000 A 
ATOM     10  C   UNL     1       4.379   4.025  19.049  0.00  0.00    +0.000 A 
ATOM     11  C   UNL     1       3.627   3.385  20.036  0.00  0.00    +0.000 A 
ATOM     12  C   UNL     1       2.258   3.231  19.866  0.00  0.00    +0.000 A 
ATOM     13  C   UNL     1       1.627   3.697  18.721  0.00  0.00    +0.000 A 
ATOM     14  C   UNL     1       2.378   4.318  17.722  0.00  0.00    +0.000 A 
BRANCH  12  15
ATOM     15  O   UNL     1       1.493   2.615  20.812  0.00  0.00    +0.000 OA
ATOM     16  H   UNL     1       1.501   3.154  21.619  0.00  0.00    +0.000 HD
ENDBRANCH  12  15
ENDBRANCH   7   9
BRANCH   1  18
ATOM     17  N   UNL     1       2.824   8.354  17.331  0.00  0.00    +0.000 NA
ATOM     18  C   UNL     1       3.773   7.534  17.196  0.00  0.00    +0.000 C 
ENDBRANCH   1  18
BRANCH   2  19
ATOM     19  S   UNL     1       6.708   8.589  17.493  0.00  0.00    +0.000 S 
BRANCH  19  20
ATOM     20  C   UNL     1       8.333   8.444  18.294  0.00  0.00    +0.000 C 
BRANCH  20  21
ATOM     21  C   UNL     1       8.909   9.789  18.704  0.00  0.00    +0.000 C 
ATOM     22  O   UNL     1       9.476   9.932  19.787  0.00  0.00    +0.000 OA
ATOM     23  N   UNL     1       8.720  10.782  17.754  0.00  0.00    +0.000 N 
ATOM     24  H   UNL     1       8.079  10.593  16.991  0.00  0.00    +0.000 HD
BRANCH  23  25
ATOM     25  C   UNL     1       9.256  12.087  17.791  0.00  0.00    +0.000 A 
ATOM     26  C   UNL     1       8.504  13.221  18.110  0.00  0.00    +0.000 A 
ATOM     27  C   UNL     1       9.095  14.491  18.106  0.00  0.00    +0.000 A 
ATOM     28  C   UNL     1      10.439  14.638  17.776  0.00  0.00    +0.000 A 
ATOM     29  C   UNL     1      11.203  13.513  17.479  0.00  0.00    +0.000 A 
ATOM     30  C   UNL     1      10.619  12.242  17.513  0.00  0.00    +0.000 A 
ENDBRANCH  23  25
ENDBRANCH  20  21
ENDBRANCH  19  20
ENDBRANCH   2  19
TORSDOF 7
ENDMDL
MODEL 6
REMARK VINA RESULT:      -7.4      4.811      7.251
REMARK  Name = 
REMARK  7 active torsions:
REMARK  status: ('A' for Active; 'I' for Inactive)
REMARK    1  A    between atoms: C_2  and  C_3
REMARK    2  A    between atoms: C_4  and  S_5
REMARK    3  A    between atoms: S_5  and  C_6
REMARK    4  A    between atoms: C_6  and  C_7
REMARK    5  A    between atoms: N_9  and  C_10
REMARK    6  A    between atoms: C_20  and  C_21
REMARK    7  A    between atoms: C_24  and  O_25
REMARK                            x       y       z     vdW  Elec       q    Type
REMARK                         _______ _______ _______ _____ _____    ______ ____
ROOT
ATOM      1  C   UNL     1       4.896   6.567  17.071  0.00  0.00    +0.000 C 
ATOM      2  C   UNL     1       6.163   6.967  17.279  0.00  0.00    +0.000 C 
ATOM      3  N   UNL     1       7.193   6.083  17.161  0.00  0.00    +0.000 N 
ATOM      4  C   UNL     1       7.112   4.773  16.793  0.00  0.00    +0.000 C 
ATOM      5  O   UNL     1       8.121   4.079  16.721  0.00  0.00    +0.000 OA
ATOM      6  C   UNL     1       5.753   4.233  16.419  0.00  0.00    +0.000 C 
ATOM      7  C   UNL     1       4.550   5.136  16.750  0.00  0.00    +0.000 C 
ATOM      8  H   UNL     1       8.131   6.429  17.347  0.00  0.00    +0.000 HD
ENDROOT
BRANCH   7   9
ATOM      9  C   UNL     1       3.705   4.500  17.848  0.00  0.00    +0.000 A 
ATOM     10  C   UNL     1       2.308   4.424  17.736  0.00  0.00    +0.000 A 
ATOM     11  C   UNL     1       1.542   3.911  18.784  0.00  0.00    +0.000 A 
ATOM     12  C   UNL     1       2.171   3.441  19.929  0.00  0.00    +0.000 A 
ATOM     13  C   UNL     1       3.552   3.483  20.050  0.00  0.00    +0.000 A 
ATOM     14  C   UNL     1       4.321   4.014  19.013  0.00  0.00    +0.000 A 
BRANCH  12  15
ATOM     15  O   UNL     1       1.453   2.930  20.970  0.00  0.00    +0.000 OA
ATOM     16  H   UNL     1       0.628   3.433  21.056  0.00  0.00    +0.000 HD
ENDBRANCH  12  15
ENDBRANCH   7   9
BRANCH   1  18
ATOM     17  N   UNL     1       2.825   8.397  17.374  0.00  0.00    +0.000 NA
ATOM     18  C   UNL     1       3.764   7.567  17.236  0.00  0.00    +0.000 C 
ENDBRANCH   1  18
BRANCH   2  19
ATOM     19  S   UNL     1       6.708   8.575  17.601  0.00  0.00    +0.000 S 
BRANCH  19  20
ATOM     20  C   UNL     1       8.369   8.396  18.318  0.00  0.00    +0.000 C 
BRANCH  20  21
ATOM     21  C   UNL     1       8.964   9.721  18.763  0.00  0.00    +0.000 C 
ATOM     22  O   UNL     1       9.171   9.956  19.953  0.00  0.00    +0.000 OA
ATOM     23  N   UNL     1       9.226  10.588  17.711  0.00  0.00    +0.000 N 
ATOM     24  H   UNL     1       8.842  10.360  16.801  0.00  0.00    +0.000 HD
BRANCH  23  25
ATOM     25  C   UNL     1       9.898  11.827  17.797  0.00  0.00    +0.000 A 
ATOM     26  C   UNL     1       9.239  13.058  17.865  0.00  0.00    +0.000 A 
ATOM     27  C   UNL     1       9.968  14.252  17.926  0.00  0.00    +0.000 A 
ATOM     28  C   UNL     1      11.359  14.226  17.911  0.00  0.00    +0.000 A 
ATOM     29  C   UNL     1      12.026  13.005  17.866  0.00  0.00    +0.000 A 
ATOM     30  C   UNL     1      11.297  11.811  17.836  0.00  0.00    +0.000 A 
ENDBRANCH  23  25
ENDBRANCH  20  21
ENDBRANCH  19  20
ENDBRANCH   2  19
TORSDOF 7
ENDMDL
MODEL 7
REMARK VINA RESULT:      -7.4      4.265      9.181
REMARK  Name = 
REMARK  7 active torsions:
REMARK  status: ('A' for Active; 'I' for Inactive)
REMARK    1  A    between atoms: C_2  and  C_3
REMARK    2  A    between atoms: C_4  and  S_5
REMARK    3  A    between atoms: S_5  and  C_6
REMARK    4  A    between atoms: C_6  and  C_7
REMARK    5  A    between atoms: N_9  and  C_10
REMARK    6  A    between atoms: C_20  and  C_21
REMARK    7  A    between atoms: C_24  and  O_25
REMARK                            x       y       z     vdW  Elec       q    Type
REMARK                         _______ _______ _______ _____ _____    ______ ____
ROOT
ATOM      1  C   UNL     1       0.916  10.338  20.094  0.00  0.00    +0.000 C 
ATOM      2  C   UNL     1       1.255  10.288  18.795  0.00  0.00    +0.000 C 
ATOM      3  N   UNL     1       1.644  11.417  18.139  0.00  0.00    +0.000 N 
ATOM      4  C   UNL     1       1.788  12.664  18.669  0.00  0.00    +0.000 C 
ATOM      5  O   UNL     1       2.151  13.604  17.969  0.00  0.00    +0.000 OA
ATOM      6  C   UNL     1       1.548  12.828  20.150  0.00  0.00    +0.000 C 
ATOM      7  C   UNL     1       0.901  11.631  20.869  0.00  0.00    +0.000 C 
ATOM      8  H   UNL     1       1.873  11.330  17.152  0.00  0.00    +0.000 HD
ENDROOT
BRANCH   7   9
ATOM      9  C   UNL     1      -0.506  11.995  21.331  0.00  0.00    +0.000 A 
ATOM     10  C   UNL     1      -0.881  11.875  22.678  0.00  0.00    +0.000 A 
ATOM     11  C   UNL     1      -2.194  12.137  23.071  0.00  0.00    +0.000 A 
ATOM     12  C   UNL     1      -3.125  12.553  22.128  0.00  0.00    +0.000 A 
ATOM     13  C   UNL     1      -2.768  12.703  20.796  0.00  0.00    +0.000 A 
ATOM     14  C   UNL     1      -1.462  12.422  20.394  0.00  0.00    +0.000 A 
BRANCH  12  15
ATOM     15  O   UNL     1      -4.414  12.821  22.479  0.00  0.00    +0.000 OA
ATOM     16  H   UNL     1      -4.594  13.761  22.315  0.00  0.00    +0.000 HD
ENDBRANCH  12  15
ENDBRANCH   7   9
BRANCH   1  18
ATOM     17  N   UNL     1       0.080   8.015  21.374  0.00  0.00    +0.000 NA
ATOM     18  C   UNL     1       0.459   9.068  20.794  0.00  0.00    +0.000 C 
ENDBRANCH   1  18
BRANCH   2  19
ATOM     19  S   UNL     1       1.367   8.877  17.801  0.00  0.00    +0.000 S 
BRANCH  19  20
ATOM     20  C   UNL     1       3.038   8.216  18.075  0.00  0.00    +0.000 C 
BRANCH  20  21
ATOM     21  C   UNL     1       3.041   6.724  18.361  0.00  0.00    +0.000 C 
ATOM     22  O   UNL     1       3.851   5.975  17.816  0.00  0.00    +0.000 OA
ATOM     23  N   UNL     1       2.064   6.335  19.266  0.00  0.00    +0.000 N 
ATOM     24  H   UNL     1       1.341   7.005  19.502  0.00  0.00    +0.000 HD
BRANCH  23  25
ATOM     25  C   UNL     1       1.908   5.047  19.825  0.00  0.00    +0.000 A 
ATOM     26  C   UNL     1       2.277   4.726  21.134  0.00  0.00    +0.000 A 
ATOM     27  C   UNL     1       2.115   3.421  21.618  0.00  0.00    +0.000 A 
ATOM     28  C   UNL     1       1.592   2.428  20.796  0.00  0.00    +0.000 A 
ATOM     29  C   UNL     1       1.200   2.743  19.498  0.00  0.00    +0.000 A 
ATOM     30  C   UNL     1       1.334   4.052  19.026  0.00  0.00    +0.000 A 
ENDBRANCH  23  25
ENDBRANCH  20  21
ENDBRANCH  19  20
ENDBRANCH   2  19
TORSDOF 7
ENDMDL
MODEL 8
REMARK VINA RESULT:      -7.4      4.257      6.972
REMARK  Name = 
REMARK  7 active torsions:
REMARK  status: ('A' for Active; 'I' for Inactive)
REMARK    1  A    between atoms: C_2  and  C_3
REMARK    2  A    between atoms: C_4  and  S_5
REMARK    3  A    between atoms: S_5  and  C_6
REMARK    4  A    between atoms: C_6  and  C_7
REMARK    5  A    between atoms: N_9  and  C_10
REMARK    6  A    between atoms: C_20  and  C_21
REMARK    7  A    between atoms: C_24  and  O_25
REMARK                            x       y       z     vdW  Elec       q    Type
REMARK                         _______ _______ _______ _____ _____    ______ ____
ROOT
ATOM      1  C   UNL     1       4.637   6.085  18.666  0.00  0.00    +0.000 C 
ATOM      2  C   UNL     1       4.943   6.901  17.642  0.00  0.00    +0.000 C 
ATOM      3  N   UNL     1       4.057   7.850  17.228  0.00  0.00    +0.000 N 
ATOM      4  C   UNL     1       2.843   8.133  17.778  0.00  0.00    +0.000 C 
ATOM      5  O   UNL     1       2.136   9.021  17.311  0.00  0.00    +0.000 OA
ATOM      6  C   UNL     1       2.433   7.361  19.009  0.00  0.00    +0.000 C 
ATOM      7  C   UNL     1       3.304   6.143  19.366  0.00  0.00    +0.000 C 
ATOM      8  H   UNL     1       4.328   8.430  16.438  0.00  0.00    +0.000 HD
ENDROOT
BRANCH   7   9
ATOM      9  C   UNL     1       2.509   4.856  19.173  0.00  0.00    +0.000 A 
ATOM     10  C   UNL     1       2.498   4.190  17.938  0.00  0.00    +0.000 A 
ATOM     11  C   UNL     1       1.704   3.057  17.755  0.00  0.00    +0.000 A 
ATOM     12  C   UNL     1       0.949   2.567  18.812  0.00  0.00    +0.000 A 
ATOM     13  C   UNL     1       0.966   3.196  20.049  0.00  0.00    +0.000 A 
ATOM     14  C   UNL     1       1.742   4.341  20.231  0.00  0.00    +0.000 A 
BRANCH  12  15
ATOM     15  O   UNL     1       0.165   1.461  18.668  0.00  0.00    +0.000 OA
ATOM     16  H   UNL     1       0.540   0.903  17.969  0.00  0.00    +0.000 HD
ENDBRANCH  12  15
ENDBRANCH   7   9
BRANCH   1  18
ATOM     17  N   UNL     1       6.458   4.129  19.438  0.00  0.00    +0.000 NA
ATOM     18  C   UNL     1       5.632   5.016  19.088  0.00  0.00    +0.000 C 
ENDBRANCH   1  18
BRANCH   2  19
ATOM     19  S   UNL     1       6.443   6.980  16.786  0.00  0.00    +0.000 S 
BRANCH  19  20
ATOM     20  C   UNL     1       7.705   7.351  18.041  0.00  0.00    +0.000 C 
BRANCH  20  21
ATOM     21  C   UNL     1       8.062   8.827  18.099  0.00  0.00    +0.000 C 
ATOM     22  O   UNL     1       7.466   9.651  17.406  0.00  0.00    +0.000 OA
ATOM     23  N   UNL     1       9.093   9.109  18.982  0.00  0.00    +0.000 N 
ATOM     24  H   UNL     1       9.628   8.332  19.353  0.00  0.00    +0.000 HD
BRANCH  23  25
ATOM     25  C   UNL     1       9.551  10.394  19.349  0.00  0.00    +0.000 A 
ATOM     26  C   UNL     1      10.240  11.244  18.479  0.00  0.00    +0.000 A 
ATOM     27  C   UNL     1      10.686  12.498  18.916  0.00  0.00    +0.000 A 
ATOM     28  C   UNL     1      10.455  12.908  20.225  0.00  0.00    +0.000 A 
ATOM     29  C   UNL     1       9.750  12.079  21.093  0.00  0.00    +0.000 A 
ATOM     30  C   UNL     1       9.278  10.840  20.647  0.00  0.00    +0.000 A 
ENDBRANCH  23  25
ENDBRANCH  20  21
ENDBRANCH  19  20
ENDBRANCH   2  19
TORSDOF 7
ENDMDL
MODEL 9
REMARK VINA RESULT:      -7.3      3.999      7.094
REMARK  Name = 
REMARK  7 active torsions:
REMARK  status: ('A' for Active; 'I' for Inactive)
REMARK    1  A    between atoms: C_2  and  C_3
REMARK    2  A    between atoms: C_4  and  S_5
REMARK    3  A    between atoms: S_5  and  C_6
REMARK    4  A    between atoms: C_6  and  C_7
REMARK    5  A    between atoms: N_9  and  C_10
REMARK    6  A    between atoms: C_20  and  C_21
REMARK    7  A    between atoms: C_24  and  O_25
REMARK                            x       y       z     vdW  Elec       q    Type
REMARK                         _______ _______ _______ _____ _____    ______ ____
ROOT
ATOM      1  C   UNL     1       3.410   6.174  17.672  0.00  0.00    +0.000 C 
ATOM      2  C   UNL     1       4.694   6.410  17.352  0.00  0.00    +0.000 C 
ATOM      3  N   UNL     1       5.468   5.418  16.829  0.00  0.00    +0.000 N 
ATOM      4  C   UNL     1       5.078   4.149  16.524  0.00  0.00    +0.000 C 
ATOM      5  O   UNL     1       5.877   3.345  16.051  0.00  0.00    +0.000 OA
ATOM      6  C   UNL     1       3.626   3.793  16.729  0.00  0.00    +0.000 C 
ATOM      7  C   UNL     1       2.782   4.812  17.516  0.00  0.00    +0.000 C 
ATOM      8  H   UNL     1       6.438   5.642  16.622  0.00  0.00    +0.000 HD
ENDROOT
BRANCH   7   9
ATOM      9  C   UNL     1       2.372   4.224  18.862  0.00  0.00    +0.000 A 
ATOM     10  C   UNL     1       3.188   4.367  19.995  0.00  0.00    +0.000 A 
ATOM     11  C   UNL     1       2.837   3.756  21.200  0.00  0.00    +0.000 A 
ATOM     12  C   UNL     1       1.655   3.034  21.286  0.00  0.00    +0.000 A 
ATOM     13  C   UNL     1       0.821   2.902  20.185  0.00  0.00    +0.000 A 
ATOM     14  C   UNL     1       1.178   3.493  18.972  0.00  0.00    +0.000 A 
BRANCH  12  15
ATOM     15  O   UNL     1       1.280   2.428  22.448  0.00  0.00    +0.000 OA
ATOM     16  H   UNL     1       1.528   3.000  23.192  0.00  0.00    +0.000 HD
ENDBRANCH  12  15
ENDBRANCH   7   9
BRANCH   1  18
ATOM     17  N   UNL     1       1.886   8.217  18.784  0.00  0.00    +0.000 NA
ATOM     18  C   UNL     1       2.577   7.291  18.279  0.00  0.00    +0.000 C 
ENDBRANCH   1  18
BRANCH   2  19
ATOM     19  S   UNL     1       5.525   7.924  17.428  0.00  0.00    +0.000 S 
BRANCH  19  20
ATOM     20  C   UNL     1       7.275   7.539  17.124  0.00  0.00    +0.000 C 
BRANCH  20  21
ATOM     21  C   UNL     1       8.207   8.204  18.123  0.00  0.00    +0.000 C 
ATOM     22  O   UNL     1       8.718   7.561  19.039  0.00  0.00    +0.000 OA
ATOM     23  N   UNL     1       8.393   9.558  17.885  0.00  0.00    +0.000 N 
ATOM     24  H   UNL     1       7.777  10.013  17.220  0.00  0.00    +0.000 HD
BRANCH  23  25
ATOM     25  C   UNL     1       9.299  10.408  18.556  0.00  0.00    +0.000 A 
ATOM     26  C   UNL     1      10.332  11.096  17.913  0.00  0.00    +0.000 A 
ATOM     27  C   UNL     1      11.210  11.905  18.644  0.00  0.00    +0.000 A 
ATOM     28  C   UNL     1      11.069  12.026  20.023  0.00  0.00    +0.000 A 
ATOM     29  C   UNL     1      10.030  11.363  20.671  0.00  0.00    +0.000 A 
ATOM     30  C   UNL     1       9.135  10.580  19.935  0.00  0.00    +0.000 A 
ENDBRANCH  23  25
ENDBRANCH  20  21
ENDBRANCH  19  20
ENDBRANCH   2  19
TORSDOF 7
ENDMDL
