MODEL 1
REMARK VINA RESULT:      -8.7      0.000      0.000
REMARK  Name = 
REMARK  7 active torsions:
REMARK  status: ('A' for Active; 'I' for Inactive)
REMARK    1  A    between atoms: C_1  and  C_2
REMARK    2  A    between atoms: C_3  and  C_4
REMARK    3  A    between atoms: N_6  and  C_7
REMARK    4  A    between atoms: C_13  and  C_14
REMARK    5  A    between atoms: C_22  and  S_23
REMARK    6  A    between atoms: S_23  and  C_24
REMARK    7  A    between atoms: C_24  and  C_25
REMARK                            x       y       z     vdW  Elec       q    Type
REMARK                         _______ _______ _______ _____ _____    ______ ____
ROOT
ATOM      1  C   UNL     1       1.832  14.600  18.720  0.00  0.00    +0.000 C 
ATOM      2  C   UNL     1       1.237  13.213  18.790  0.00  0.00    +0.000 C 
ATOM      3  C   UNL     1       0.161  12.780  19.506  0.00  0.00    +0.000 C 
ATOM      4  C   UNL     1      -0.276  11.286  19.408  0.00  0.00    +0.000 C 
ATOM      5  N   UNL     1       0.764  10.446  18.791  0.00  0.00    +0.000 N 
ATOM      6  N   UNL     1       0.867   9.091  18.887  0.00  0.00    +0.000 NA
ATOM      7  C   UNL     1       1.985   8.874  18.172  0.00  0.00    +0.000 A 
ATOM      8  N   UNL     1       2.580  10.008  17.663  0.00  0.00    +0.000 NA
ATOM      9  C   UNL     1       1.812  10.970  18.094  0.00  0.00    +0.000 A 
ATOM     10  N   UNL     1       1.953  12.303  18.007  0.00  0.00    +0.000 N 
ATOM     11  H   UNL     1       2.811  12.640  17.574  0.00  0.00    +0.000 HD
ENDROOT
BRANCH   4  12
ATOM     12  C   UNL     1      -1.570  11.116  18.608  0.00  0.00    +0.000 A 
ATOM     13  C   UNL     1      -1.636  10.299  17.464  0.00  0.00    +0.000 A 
ATOM     14  C   UNL     1      -2.832  10.143  16.764  0.00  0.00    +0.000 A 
ATOM     15  C   UNL     1      -3.986  10.779  17.209  0.00  0.00    +0.000 A 
ATOM     16  C   UNL     1      -3.945  11.573  18.353  0.00  0.00    +0.000 A 
ATOM     17  C   UNL     1      -2.747  11.744  19.047  0.00  0.00    +0.000 A 
ENDBRANCH   4  12
BRANCH   3  18
ATOM     18  C   UNL     1      -0.708  13.540  20.481  0.00  0.00    +0.000 C 
ATOM     19  O   UNL     1      -1.188  14.609  20.114  0.00  0.00    +0.000 OA
ATOM     20  N   UNL     1      -0.867  12.997  21.738  0.00  0.00    +0.000 N 
ATOM     21  H   UNL     1      -0.377  12.142  21.950  0.00  0.00    +0.000 HD
BRANCH  20  22
ATOM     22  C   UNL     1      -1.648  13.516  22.805  0.00  0.00    +0.000 A 
ATOM     23  C   UNL     1      -2.956  13.134  23.096  0.00  0.00    +0.000 A 
ATOM     24  C   UNL     1      -3.648  13.747  24.145  0.00  0.00    +0.000 A 
ATOM     25  C   UNL     1      -3.003  14.718  24.892  0.00  0.00    +0.000 A 
ATOM     26  N   UNL     1      -1.732  15.107  24.660  0.00  0.00    +0.000 NA
ATOM     27  C   UNL     1      -1.093  14.500  23.627  0.00  0.00    +0.000 A 
ENDBRANCH  20  22
ENDBRANCH   3  18
BRANCH   7  28
ATOM     28  S   UNL     1       2.807   7.342  18.020  0.00  0.00    +0.000 S 
BRANCH  28  29
ATOM     29  C   UNL     1       2.595   6.544  19.630  0.00  0.00    +0.000 C 
BRANCH  29  30
ATOM     30  C   UNL     1       1.987   5.157  19.466  0.00  0.00    +0.000 A 
ATOM     31  C   UNL     1       1.526   4.442  20.584  0.00  0.00    +0.000 A 
ATOM     32  C   UNL     1       1.013   3.148  20.445  0.00  0.00    +0.000 A 
ATOM     33  C   UNL     1       0.954   2.545  19.189  0.00  0.00    +0.000 A 
ATOM     34  C   UNL     1       1.410   3.241  18.070  0.00  0.00    +0.000 A 
ATOM     35  C   UNL     1       1.924   4.539  18.207  0.00  0.00    +0.000 A 
ENDBRANCH  29  30
ENDBRANCH  28  29
ENDBRANCH   7  28
TORSDOF 6
ENDMDL
MODEL 2
REMARK VINA RESULT:      -8.5      0.688      1.523
REMARK  Name = 
REMARK  7 active torsions:
REMARK  status: ('A' for Active; 'I' for Inactive)
REMARK    1  A    between atoms: C_1  and  C_2
REMARK    2  A    between atoms: C_3  and  C_4
REMARK    3  A    between atoms: N_6  and  C_7
REMARK    4  A    between atoms: C_13  and  C_14
REMARK    5  A    between atoms: C_22  and  S_23
REMARK    6  A    between atoms: S_23  and  C_24
REMARK    7  A    between atoms: C_24  and  C_25
REMARK                            x       y       z     vdW  Elec       q    Type
REMARK                         _______ _______ _______ _____ _____    ______ ____
ROOT
ATOM      1  C   UNL     1       1.663  14.978  19.020  0.00  0.00    +0.000 C 
ATOM      2  C   UNL     1       1.041  13.602  19.027  0.00  0.00    +0.000 C 
ATOM      3  C   UNL     1      -0.042  13.158  19.726  0.00  0.00    +0.000 C 
ATOM      4  C   UNL     1      -0.510  11.679  19.561  0.00  0.00    +0.000 C 
ATOM      5  N   UNL     1       0.512  10.848  18.902  0.00  0.00    +0.000 N 
ATOM      6  N   UNL     1       0.587   9.488  18.935  0.00  0.00    +0.000 NA
ATOM      7  C   UNL     1       1.699   9.282  18.207  0.00  0.00    +0.000 A 
ATOM      8  N   UNL     1       2.316  10.426  17.750  0.00  0.00    +0.000 NA
ATOM      9  C   UNL     1       1.568  11.382  18.227  0.00  0.00    +0.000 A 
ATOM     10  N   UNL     1       1.736  12.715  18.201  0.00  0.00    +0.000 N 
ATOM     11  H   UNL     1       2.600  13.055  17.781  0.00  0.00    +0.000 HD
ENDROOT
BRANCH   4  12
ATOM     12  C   UNL     1      -1.809  11.573  18.757  0.00  0.00    +0.000 A 
ATOM     13  C   UNL     1      -3.064  11.852  19.330  0.00  0.00    +0.000 A 
ATOM     14  C   UNL     1      -4.232  11.769  18.572  0.00  0.00    +0.000 A 
ATOM     15  C   UNL     1      -4.163  11.430  17.225  0.00  0.00    +0.000 A 
ATOM     16  C   UNL     1      -2.927  11.173  16.635  0.00  0.00    +0.000 A 
ATOM     17  C   UNL     1      -1.758  11.240  17.394  0.00  0.00    +0.000 A 
ENDBRANCH   4  12
BRANCH   3  18
ATOM     18  C   UNL     1      -0.894  13.890  20.738  0.00  0.00    +0.000 C 
ATOM     19  O   UNL     1      -1.572  14.835  20.345  0.00  0.00    +0.000 OA
ATOM     20  N   UNL     1      -0.816  13.468  22.048  0.00  0.00    +0.000 N 
ATOM     21  H   UNL     1      -0.179  12.718  22.267  0.00  0.00    +0.000 HD
BRANCH  20  22
ATOM     22  C   UNL     1      -1.533  13.985  23.159  0.00  0.00    +0.000 A 
ATOM     23  C   UNL     1      -1.104  15.035  23.969  0.00  0.00    +0.000 A 
ATOM     24  C   UNL     1      -1.872  15.431  25.069  0.00  0.00    +0.000 A 
ATOM     25  C   UNL     1      -3.066  14.776  25.319  0.00  0.00    +0.000 A 
ATOM     26  N   UNL     1      -3.531  13.768  24.553  0.00  0.00    +0.000 NA
ATOM     27  C   UNL     1      -2.756  13.401  23.501  0.00  0.00    +0.000 A 
ENDBRANCH  20  22
ENDBRANCH   3  18
BRANCH   7  28
ATOM     28  S   UNL     1       2.489   7.743  17.983  0.00  0.00    +0.000 S 
BRANCH  28  29
ATOM     29  C   UNL     1       2.452   6.963  19.615  0.00  0.00    +0.000 C 
BRANCH  29  30
ATOM     30  C   UNL     1       1.995   5.514  19.508  0.00  0.00    +0.000 A 
ATOM     31  C   UNL     1       1.994   4.855  18.267  0.00  0.00    +0.000 A 
ATOM     32  C   UNL     1       1.528   3.541  18.154  0.00  0.00    +0.000 A 
ATOM     33  C   UNL     1       1.053   2.864  19.277  0.00  0.00    +0.000 A 
ATOM     34  C   UNL     1       1.046   3.505  20.515  0.00  0.00    +0.000 A 
ATOM     35  C   UNL     1       1.513   4.822  20.631  0.00  0.00    +0.000 A 
ENDBRANCH  29  30
ENDBRANCH  28  29
ENDBRANCH   7  28
TORSDOF 6
ENDMDL
MODEL 3
REMARK VINA RESULT:      -8.4      1.370      1.741
REMARK  Name = 
REMARK  7 active torsions:
REMARK  status: ('A' for Active; 'I' for Inactive)
REMARK    1  A    between atoms: C_1  and  C_2
REMARK    2  A    between atoms: C_3  and  C_4
REMARK    3  A    between atoms: N_6  and  C_7
REMARK    4  A    between atoms: C_13  and  C_14
REMARK    5  A    between atoms: C_22  and  S_23
REMARK    6  A    between atoms: S_23  and  C_24
REMARK    7  A    between atoms: C_24  and  C_25
REMARK                            x       y       z     vdW  Elec       q    Type
REMARK                         _______ _______ _______ _____ _____    ______ ____
ROOT
ATOM      1  C   UNL     1       0.606  14.818  19.753  0.00  0.00    +0.000 C 
ATOM      2  C   UNL     1       0.193  13.404  19.418  0.00  0.00    +0.000 C 
ATOM      3  C   UNL     1      -0.952  12.746  19.757  0.00  0.00    +0.000 C 
ATOM      4  C   UNL     1      -1.162  11.274  19.282  0.00  0.00    +0.000 C 
ATOM      5  N   UNL     1       0.089  10.669  18.794  0.00  0.00    +0.000 N 
ATOM      6  N   UNL     1       0.340   9.337  18.661  0.00  0.00    +0.000 NA
ATOM      7  C   UNL     1       1.608   9.365  18.213  0.00  0.00    +0.000 A 
ATOM      8  N   UNL     1       2.151  10.624  18.083  0.00  0.00    +0.000 NA
ATOM      9  C   UNL     1       1.189  11.410  18.483  0.00  0.00    +0.000 A 
ATOM     10  N   UNL     1       1.175  12.739  18.679  0.00  0.00    +0.000 N 
ATOM     11  H   UNL     1       2.058  13.227  18.539  0.00  0.00    +0.000 HD
ENDROOT
BRANCH   4  12
ATOM     12  C   UNL     1      -2.212  11.172  18.173  0.00  0.00    +0.000 A 
ATOM     13  C   UNL     1      -3.562  11.503  18.394  0.00  0.00    +0.000 A 
ATOM     14  C   UNL     1      -4.497  11.422  17.362  0.00  0.00    +0.000 A 
ATOM     15  C   UNL     1      -4.093  11.035  16.088  0.00  0.00    +0.000 A 
ATOM     16  C   UNL     1      -2.757  10.727  15.845  0.00  0.00    +0.000 A 
ATOM     17  C   UNL     1      -1.822  10.791  16.879  0.00  0.00    +0.000 A 
ENDBRANCH   4  12
BRANCH   3  18
ATOM     18  C   UNL     1      -2.107  13.213  20.613  0.00  0.00    +0.000 C 
ATOM     19  O   UNL     1      -2.498  14.368  20.474  0.00  0.00    +0.000 OA
ATOM     20  N   UNL     1      -2.615  12.314  21.527  0.00  0.00    +0.000 N 
ATOM     21  H   UNL     1      -2.177  11.410  21.596  0.00  0.00    +0.000 HD
BRANCH  20  22
ATOM     22  C   UNL     1      -3.704  12.519  22.416  0.00  0.00    +0.000 A 
ATOM     23  C   UNL     1      -4.996  12.866  22.030  0.00  0.00    +0.000 A 
ATOM     24  C   UNL     1      -5.981  13.090  22.997  0.00  0.00    +0.000 A 
ATOM     25  C   UNL     1      -5.651  12.938  24.333  0.00  0.00    +0.000 A 
ATOM     26  N   UNL     1      -4.419  12.585  24.754  0.00  0.00    +0.000 NA
ATOM     27  C   UNL     1      -3.484  12.388  23.790  0.00  0.00    +0.000 A 
ENDBRANCH  20  22
ENDBRANCH   3  18
BRANCH   7  28
ATOM     28  S   UNL     1       2.631   7.970  17.988  0.00  0.00    +0.000 S 
BRANCH  28  29
ATOM     29  C   UNL     1       2.560   7.086  19.565  0.00  0.00    +0.000 C 
BRANCH  29  30
ATOM     30  C   UNL     1       2.028   5.673  19.365  0.00  0.00    +0.000 A 
ATOM     31  C   UNL     1       1.521   4.941  20.451  0.00  0.00    +0.000 A 
ATOM     32  C   UNL     1       1.077   3.625  20.283  0.00  0.00    +0.000 A 
ATOM     33  C   UNL     1       1.135   3.017  19.029  0.00  0.00    +0.000 A 
ATOM     34  C   UNL     1       1.638   3.731  17.942  0.00  0.00    +0.000 A 
ATOM     35  C   UNL     1       2.083   5.050  18.108  0.00  0.00    +0.000 A 
ENDBRANCH  29  30
ENDBRANCH  28  29
ENDBRANCH   7  28
TORSDOF 6
ENDMDL
MODEL 4
REMARK VINA RESULT:      -8.2      3.240      7.348
REMARK  Name = 
REMARK  7 active torsions:
REMARK  status: ('A' for Active; 'I' for Inactive)
REMARK    1  A    between atoms: C_1  and  C_2
REMARK    2  A    between atoms: C_3  and  C_4
REMARK    3  A    between atoms: N_6  and  C_7
REMARK    4  A    between atoms: C_13  and  C_14
REMARK    5  A    between atoms: C_22  and  S_23
REMARK    6  A    between atoms: S_23  and  C_24
REMARK    7  A    between atoms: C_24  and  C_25
REMARK                            x       y       z     vdW  Elec       q    Type
REMARK                         _______ _______ _______ _____ _____    ______ ____
ROOT
ATOM      1  C   UNL     1      -0.482  14.135  22.460  0.00  0.00    +0.000 C 
ATOM      2  C   UNL     1      -0.557  13.307  21.199  0.00  0.00    +0.000 C 
ATOM      3  C   UNL     1       0.426  13.040  20.293  0.00  0.00    +0.000 C 
ATOM      4  C   UNL     1       0.110  12.140  19.058  0.00  0.00    +0.000 C 
ATOM      5  N   UNL     1      -1.338  11.965  18.860  0.00  0.00    +0.000 N 
ATOM      6  N   UNL     1      -1.952  11.569  17.710  0.00  0.00    +0.000 NA
ATOM      7  C   UNL     1      -3.242  11.610  18.088  0.00  0.00    +0.000 A 
ATOM      8  N   UNL     1      -3.455  12.022  19.385  0.00  0.00    +0.000 NA
ATOM      9  C   UNL     1      -2.252  12.265  19.825  0.00  0.00    +0.000 A 
ATOM     10  N   UNL     1      -1.842  12.799  20.988  0.00  0.00    +0.000 N 
ATOM     11  H   UNL     1      -2.572  13.109  21.627  0.00  0.00    +0.000 HD
ENDROOT
BRANCH   4  12
ATOM     12  C   UNL     1       0.751  10.755  19.176  0.00  0.00    +0.000 A 
ATOM     13  C   UNL     1       0.620   9.971  20.338  0.00  0.00    +0.000 A 
ATOM     14  C   UNL     1       1.195   8.702  20.414  0.00  0.00    +0.000 A 
ATOM     15  C   UNL     1       1.887   8.187  19.323  0.00  0.00    +0.000 A 
ATOM     16  C   UNL     1       2.006   8.938  18.157  0.00  0.00    +0.000 A 
ATOM     17  C   UNL     1       1.446  10.214  18.083  0.00  0.00    +0.000 A 
ENDBRANCH   4  12
BRANCH   3  18
ATOM     18  C   UNL     1       1.852  13.540  20.252  0.00  0.00    +0.000 C 
ATOM     19  O   UNL     1       2.605  13.210  21.163  0.00  0.00    +0.000 OA
ATOM     20  N   UNL     1       2.197  14.373  19.209  0.00  0.00    +0.000 N 
ATOM     21  H   UNL     1       1.479  14.626  18.548  0.00  0.00    +0.000 HD
BRANCH  20  22
ATOM     22  C   UNL     1       3.472  14.944  18.953  0.00  0.00    +0.000 A 
ATOM     23  C   UNL     1       4.447  14.385  18.130  0.00  0.00    +0.000 A 
ATOM     24  C   UNL     1       5.688  15.012  17.987  0.00  0.00    +0.000 A 
ATOM     25  C   UNL     1       5.916  16.201  18.659  0.00  0.00    +0.000 A 
ATOM     26  N   UNL     1       4.996  16.790  19.452  0.00  0.00    +0.000 NA
ATOM     27  C   UNL     1       3.807  16.149  19.578  0.00  0.00    +0.000 A 
ENDBRANCH  20  22
ENDBRANCH   3  18
BRANCH   7  28
ATOM     28  S   UNL     1      -4.612  11.378  17.032  0.00  0.00    +0.000 S 
BRANCH  28  29
ATOM     29  C   UNL     1      -5.973  12.253  17.844  0.00  0.00    +0.000 C 
BRANCH  29  30
ATOM     30  C   UNL     1      -6.643  11.360  18.879  0.00  0.00    +0.000 A 
ATOM     31  C   UNL     1      -7.242  11.916  20.022  0.00  0.00    +0.000 A 
ATOM     32  C   UNL     1      -7.815  11.097  21.001  0.00  0.00    +0.000 A 
ATOM     33  C   UNL     1      -7.799   9.710  20.856  0.00  0.00    +0.000 A 
ATOM     34  C   UNL     1      -7.207   9.143  19.728  0.00  0.00    +0.000 A 
ATOM     35  C   UNL     1      -6.631   9.962  18.745  0.00  0.00    +0.000 A 
ENDBRANCH  29  30
ENDBRANCH  28  29
ENDBRANCH   7  28
TORSDOF 6
ENDMDL
MODEL 5
REMARK VINA RESULT:      -8.1      0.849      1.034
REMARK  Name = 
REMARK  7 active torsions:
REMARK  status: ('A' for Active; 'I' for Inactive)
REMARK    1  A    between atoms: C_1  and  C_2
REMARK    2  A    between atoms: C_3  and  C_4
REMARK    3  A    between atoms: N_6  and  C_7
REMARK    4  A    between atoms: C_13  and  C_14
REMARK    5  A    between atoms: C_22  and  S_23
REMARK    6  A    between atoms: S_23  and  C_24
REMARK    7  A    between atoms: C_24  and  C_25
REMARK                            x       y       z     vdW  Elec       q    Type
REMARK                         _______ _______ _______ _____ _____    ______ ____
ROOT
ATOM      1  C   UNL     1       1.565  14.540  19.127  0.00  0.00    +0.000 C 
ATOM      2  C   UNL     1       1.076  13.117  18.996  0.00  0.00    +0.000 C 
ATOM      3  C   UNL     1      -0.024  12.537  19.555  0.00  0.00    +0.000 C 
ATOM      4  C   UNL     1      -0.333  11.036  19.263  0.00  0.00    +0.000 C 
ATOM      5  N   UNL     1       0.821  10.341  18.669  0.00  0.00    +0.000 N 
ATOM      6  N   UNL     1       1.020   8.993  18.636  0.00  0.00    +0.000 NA
ATOM      7  C   UNL     1       2.212   8.932  18.016  0.00  0.00    +0.000 A 
ATOM      8  N   UNL     1       2.760  10.152  17.687  0.00  0.00    +0.000 NA
ATOM      9  C   UNL     1       1.884  11.007  18.136  0.00  0.00    +0.000 A 
ATOM     10  N   UNL     1       1.928  12.348  18.198  0.00  0.00    +0.000 N 
ATOM     11  H   UNL     1       2.793  12.788  17.889  0.00  0.00    +0.000 HD
ENDROOT
BRANCH   4  12
ATOM     12  C   UNL     1      -1.532  10.867  18.327  0.00  0.00    +0.000 A 
ATOM     13  C   UNL     1      -1.715  11.686  17.196  0.00  0.00    +0.000 A 
ATOM     14  C   UNL     1      -2.804  11.498  16.346  0.00  0.00    +0.000 A 
ATOM     15  C   UNL     1      -3.713  10.475  16.595  0.00  0.00    +0.000 A 
ATOM     16  C   UNL     1      -3.535   9.640  17.695  0.00  0.00    +0.000 A 
ATOM     17  C   UNL     1      -2.455   9.834  18.558  0.00  0.00    +0.000 A 
ENDBRANCH   4  12
BRANCH   3  18
ATOM     18  C   UNL     1      -1.035  13.126  20.512  0.00  0.00    +0.000 C 
ATOM     19  O   UNL     1      -1.897  13.869  20.054  0.00  0.00    +0.000 OA
ATOM     20  N   UNL     1      -0.888  12.819  21.848  0.00  0.00    +0.000 N 
ATOM     21  H   UNL     1      -0.106  12.245  22.120  0.00  0.00    +0.000 HD
BRANCH  20  22
ATOM     22  C   UNL     1      -1.722  13.235  22.920  0.00  0.00    +0.000 A 
ATOM     23  C   UNL     1      -2.947  12.658  23.249  0.00  0.00    +0.000 A 
ATOM     24  C   UNL     1      -3.709  13.181  24.299  0.00  0.00    +0.000 A 
ATOM     25  C   UNL     1      -3.213  14.261  25.009  0.00  0.00    +0.000 A 
ATOM     26  N   UNL     1      -2.025  14.840  24.739  0.00  0.00    +0.000 NA
ATOM     27  C   UNL     1      -1.317  14.316  23.707  0.00  0.00    +0.000 A 
ENDBRANCH  20  22
ENDBRANCH   3  18
BRANCH   7  28
ATOM     28  S   UNL     1       3.160   7.484  17.791  0.00  0.00    +0.000 S 
BRANCH  28  29
ATOM     29  C   UNL     1       2.621   6.369  19.111  0.00  0.00    +0.000 C 
BRANCH  29  30
ATOM     30  C   UNL     1       2.513   4.941  18.595  0.00  0.00    +0.000 A 
ATOM     31  C   UNL     1       1.517   4.078  19.083  0.00  0.00    +0.000 A 
ATOM     32  C   UNL     1       1.445   2.750  18.650  0.00  0.00    +0.000 A 
ATOM     33  C   UNL     1       2.367   2.259  17.726  0.00  0.00    +0.000 A 
ATOM     34  C   UNL     1       3.363   3.102  17.234  0.00  0.00    +0.000 A 
ATOM     35  C   UNL     1       3.437   4.435  17.666  0.00  0.00    +0.000 A 
ENDBRANCH  29  30
ENDBRANCH  28  29
ENDBRANCH   7  28
TORSDOF 6
ENDMDL
MODEL 6
REMARK VINA RESULT:      -8.1      2.143      3.677
REMARK  Name = 
REMARK  7 active torsions:
REMARK  status: ('A' for Active; 'I' for Inactive)
REMARK    1  A    between atoms: C_1  and  C_2
REMARK    2  A    between atoms: C_3  and  C_4
REMARK    3  A    between atoms: N_6  and  C_7
REMARK    4  A    between atoms: C_13  and  C_14
REMARK    5  A    between atoms: C_22  and  S_23
REMARK    6  A    between atoms: S_23  and  C_24
REMARK    7  A    between atoms: C_24  and  C_25
REMARK                            x       y       z     vdW  Elec       q    Type
REMARK                         _______ _______ _______ _____ _____    ______ ____
ROOT
ATOM      1  C   UNL     1      -0.876   9.749  23.214  0.00  0.00    +0.000 C 
ATOM      2  C   UNL     1      -0.178   9.850  21.878  0.00  0.00    +0.000 C 
ATOM      3  C   UNL     1      -0.424  10.709  20.848  0.00  0.00    +0.000 C 
ATOM      4  C   UNL     1       0.446  10.628  19.556  0.00  0.00    +0.000 C 
ATOM      5  N   UNL     1       1.224   9.380  19.492  0.00  0.00    +0.000 N 
ATOM      6  N   UNL     1       1.778   8.832  18.374  0.00  0.00    +0.000 NA
ATOM      7  C   UNL     1       2.328   7.718  18.888  0.00  0.00    +0.000 A 
ATOM      8  N   UNL     1       2.131   7.542  20.240  0.00  0.00    +0.000 NA
ATOM      9  C   UNL     1       1.414   8.577  20.577  0.00  0.00    +0.000 A 
ATOM     10  N   UNL     1       0.826   8.887  21.745  0.00  0.00    +0.000 N 
ATOM     11  H   UNL     1       0.907   8.197  22.490  0.00  0.00    +0.000 HD
ENDROOT
BRANCH   4  12
ATOM     12  C   UNL     1       1.416  11.807  19.441  0.00  0.00    +0.000 A 
ATOM     13  C   UNL     1       1.950  12.214  18.203  0.00  0.00    +0.000 A 
ATOM     14  C   UNL     1       2.815  13.305  18.121  0.00  0.00    +0.000 A 
ATOM     15  C   UNL     1       3.141  14.021  19.268  0.00  0.00    +0.000 A 
ATOM     16  C   UNL     1       2.604  13.647  20.497  0.00  0.00    +0.000 A 
ATOM     17  C   UNL     1       1.750  12.547  20.586  0.00  0.00    +0.000 A 
ENDBRANCH   4  12
BRANCH   3  18
ATOM     18  C   UNL     1      -1.499  11.764  20.717  0.00  0.00    +0.000 C 
ATOM     19  O   UNL     1      -2.143  11.803  19.673  0.00  0.00    +0.000 OA
ATOM     20  N   UNL     1      -1.651  12.641  21.770  0.00  0.00    +0.000 N 
ATOM     21  H   UNL     1      -1.025  12.552  22.555  0.00  0.00    +0.000 HD
BRANCH  20  22
ATOM     22  C   UNL     1      -2.600  13.691  21.881  0.00  0.00    +0.000 A 
ATOM     23  C   UNL     1      -2.452  14.963  21.330  0.00  0.00    +0.000 A 
ATOM     24  C   UNL     1      -3.432  15.937  21.542  0.00  0.00    +0.000 A 
ATOM     25  C   UNL     1      -4.551  15.606  22.288  0.00  0.00    +0.000 A 
ATOM     26  N   UNL     1      -4.747  14.384  22.825  0.00  0.00    +0.000 NA
ATOM     27  C   UNL     1      -3.771  13.466  22.609  0.00  0.00    +0.000 A 
ENDBRANCH  20  22
ENDBRANCH   3  18
BRANCH   7  28
ATOM     28  S   UNL     1       3.071   6.438  17.963  0.00  0.00    +0.000 S 
BRANCH  28  29
ATOM     29  C   UNL     1       1.851   5.102  17.962  0.00  0.00    +0.000 C 
BRANCH  29  30
ATOM     30  C   UNL     1       2.072   4.172  19.147  0.00  0.00    +0.000 A 
ATOM     31  C   UNL     1       1.065   3.988  20.108  0.00  0.00    +0.000 A 
ATOM     32  C   UNL     1       1.281   3.174  21.226  0.00  0.00    +0.000 A 
ATOM     33  C   UNL     1       2.507   2.532  21.403  0.00  0.00    +0.000 A 
ATOM     34  C   UNL     1       3.517   2.707  20.458  0.00  0.00    +0.000 A 
ATOM     35  C   UNL     1       3.303   3.522  19.337  0.00  0.00    +0.000 A 
ENDBRANCH  29  30
ENDBRANCH  28  29
ENDBRANCH   7  28
TORSDOF 6
ENDMDL
MODEL 7
REMARK VINA RESULT:      -8.1      0.850      1.420
REMARK  Name = 
REMARK  7 active torsions:
REMARK  status: ('A' for Active; 'I' for Inactive)
REMARK    1  A    between atoms: C_1  and  C_2
REMARK    2  A    between atoms: C_3  and  C_4
REMARK    3  A    between atoms: N_6  and  C_7
REMARK    4  A    between atoms: C_13  and  C_14
REMARK    5  A    between atoms: C_22  and  S_23
REMARK    6  A    between atoms: S_23  and  C_24
REMARK    7  A    between atoms: C_24  and  C_25
REMARK                            x       y       z     vdW  Elec       q    Type
REMARK                         _______ _______ _______ _____ _____    ______ ____
ROOT
ATOM      1  C   UNL     1       2.370  14.295  17.947  0.00  0.00    +0.000 C 
ATOM      2  C   UNL     1       1.689  12.989  18.283  0.00  0.00    +0.000 C 
ATOM      3  C   UNL     1       0.619  12.769  19.098  0.00  0.00    +0.000 C 
ATOM      4  C   UNL     1       0.080  11.316  19.284  0.00  0.00    +0.000 C 
ATOM      5  N   UNL     1       1.035  10.308  18.795  0.00  0.00    +0.000 N 
ATOM      6  N   UNL     1       1.053   8.987  19.130  0.00  0.00    +0.000 NA
ATOM      7  C   UNL     1       2.122   8.567  18.431  0.00  0.00    +0.000 A 
ATOM      8  N   UNL     1       2.768   9.547  17.709  0.00  0.00    +0.000 NA
ATOM      9  C   UNL     1       2.084  10.623  17.984  0.00  0.00    +0.000 A 
ATOM     10  N   UNL     1       2.308  11.905  17.654  0.00  0.00    +0.000 N 
ATOM     11  H   UNL     1       3.167  12.098  17.141  0.00  0.00    +0.000 HD
ENDROOT
BRANCH   4  12
ATOM     12  C   UNL     1      -1.255  11.102  18.568  0.00  0.00    +0.000 A 
ATOM     13  C   UNL     1      -2.442  11.722  19.003  0.00  0.00    +0.000 A 
ATOM     14  C   UNL     1      -3.643  11.529  18.321  0.00  0.00    +0.000 A 
ATOM     15  C   UNL     1      -3.674  10.733  17.180  0.00  0.00    +0.000 A 
ATOM     16  C   UNL     1      -2.505  10.130  16.722  0.00  0.00    +0.000 A 
ATOM     17  C   UNL     1      -1.305  10.308  17.410  0.00  0.00    +0.000 A 
ENDBRANCH   4  12
BRANCH   3  18
ATOM     18  C   UNL     1      -0.156  13.750  19.948  0.00  0.00    +0.000 C 
ATOM     19  O   UNL     1      -0.727  14.677  19.382  0.00  0.00    +0.000 OA
ATOM     20  N   UNL     1      -0.130  13.557  21.313  0.00  0.00    +0.000 N 
ATOM     21  H   UNL     1       0.422  12.795  21.673  0.00  0.00    +0.000 HD
BRANCH  20  22
ATOM     22  C   UNL     1      -0.794  14.332  22.301  0.00  0.00    +0.000 A 
ATOM     23  C   UNL     1      -0.184  15.289  23.109  0.00  0.00    +0.000 A 
ATOM     24  C   UNL     1      -0.927  15.960  24.085  0.00  0.00    +0.000 A 
ATOM     25  C   UNL     1      -2.275  15.669  24.213  0.00  0.00    +0.000 A 
ATOM     26  N   UNL     1      -2.913  14.765  23.442  0.00  0.00    +0.000 NA
ATOM     27  C   UNL     1      -2.160  14.123  22.513  0.00  0.00    +0.000 A 
ENDBRANCH  20  22
ENDBRANCH   3  18
BRANCH   7  28
ATOM     28  S   UNL     1       2.834   6.977  18.531  0.00  0.00    +0.000 S 
BRANCH  28  29
ATOM     29  C   UNL     1       2.192   6.280  20.073  0.00  0.00    +0.000 C 
BRANCH  29  30
ATOM     30  C   UNL     1       1.819   4.816  19.885  0.00  0.00    +0.000 A 
ATOM     31  C   UNL     1       1.749   3.949  20.989  0.00  0.00    +0.000 A 
ATOM     32  C   UNL     1       1.457   2.592  20.818  0.00  0.00    +0.000 A 
ATOM     33  C   UNL     1       1.231   2.076  19.542  0.00  0.00    +0.000 A 
ATOM     34  C   UNL     1       1.299   2.923  18.436  0.00  0.00    +0.000 A 
ATOM     35  C   UNL     1       1.592   4.284  18.605  0.00  0.00    +0.000 A 
ENDBRANCH  29  30
ENDBRANCH  28  29
ENDBRANCH   7  28
TORSDOF 6
ENDMDL
MODEL 8
REMARK VINA RESULT:      -8.1      2.148      3.648
REMARK  Name = 
REMARK  7 active torsions:
REMARK  status: ('A' for Active; 'I' for Inactive)
REMARK    1  A    between atoms: C_1  and  C_2
REMARK    2  A    between atoms: C_3  and  C_4
REMARK    3  A    between atoms: N_6  and  C_7
REMARK    4  A    between atoms: C_13  and  C_14
REMARK    5  A    between atoms: C_22  and  S_23
REMARK    6  A    between atoms: S_23  and  C_24
REMARK    7  A    between atoms: C_24  and  C_25
REMARK                            x       y       z     vdW  Elec       q    Type
REMARK                         _______ _______ _______ _____ _____    ______ ____
ROOT
ATOM      1  C   UNL     1      -0.822   9.615  23.221  0.00  0.00    +0.000 C 
ATOM      2  C   UNL     1      -0.142   9.734  21.877  0.00  0.00    +0.000 C 
ATOM      3  C   UNL     1      -0.411  10.597  20.857  0.00  0.00    +0.000 C 
ATOM      4  C   UNL     1       0.444  10.537  19.553  0.00  0.00    +0.000 C 
ATOM      5  N   UNL     1       1.238   9.300  19.472  0.00  0.00    +0.000 N 
ATOM      6  N   UNL     1       1.785   8.768  18.343  0.00  0.00    +0.000 NA
ATOM      7  C   UNL     1       2.357   7.658  18.842  0.00  0.00    +0.000 A 
ATOM      8  N   UNL     1       2.178   7.469  20.195  0.00  0.00    +0.000 NA
ATOM      9  C   UNL     1       1.451   8.493  20.548  0.00  0.00    +0.000 A 
ATOM     10  N   UNL     1       0.874   8.786  21.725  0.00  0.00    +0.000 N 
ATOM     11  H   UNL     1       0.973   8.092  22.464  0.00  0.00    +0.000 HD
ENDROOT
BRANCH   4  12
ATOM     12  C   UNL     1       1.396  11.730  19.435  0.00  0.00    +0.000 A 
ATOM     13  C   UNL     1       1.947  12.123  18.201  0.00  0.00    +0.000 A 
ATOM     14  C   UNL     1       2.796  13.227  18.115  0.00  0.00    +0.000 A 
ATOM     15  C   UNL     1       3.088  13.969  19.254  0.00  0.00    +0.000 A 
ATOM     16  C   UNL     1       2.534  13.608  20.480  0.00  0.00    +0.000 A 
ATOM     17  C   UNL     1       1.697  12.496  20.573  0.00  0.00    +0.000 A 
ENDBRANCH   4  12
BRANCH   3  18
ATOM     18  C   UNL     1      -1.502  11.638  20.747  0.00  0.00    +0.000 C 
ATOM     19  O   UNL     1      -2.049  11.787  19.658  0.00  0.00    +0.000 OA
ATOM     20  N   UNL     1      -1.776  12.383  21.874  0.00  0.00    +0.000 N 
ATOM     21  H   UNL     1      -1.223  12.216  22.699  0.00  0.00    +0.000 HD
BRANCH  20  22
ATOM     22  C   UNL     1      -2.764  13.394  22.014  0.00  0.00    +0.000 A 
ATOM     23  C   UNL     1      -4.128  13.161  22.180  0.00  0.00    +0.000 A 
ATOM     24  C   UNL     1      -5.018  14.236  22.260  0.00  0.00    +0.000 A 
ATOM     25  C   UNL     1      -4.515  15.525  22.193  0.00  0.00    +0.000 A 
ATOM     26  N   UNL     1      -3.202  15.800  22.051  0.00  0.00    +0.000 NA
ATOM     27  C   UNL     1      -2.367  14.733  21.965  0.00  0.00    +0.000 A 
ENDBRANCH  20  22
ENDBRANCH   3  18
BRANCH   7  28
ATOM     28  S   UNL     1       3.105   6.394  17.899  0.00  0.00    +0.000 S 
BRANCH  28  29
ATOM     29  C   UNL     1       1.923   5.025  17.942  0.00  0.00    +0.000 C 
BRANCH  29  30
ATOM     30  C   UNL     1       2.130   4.176  19.188  0.00  0.00    +0.000 A 
ATOM     31  C   UNL     1       3.356   3.529  19.418  0.00  0.00    +0.000 A 
ATOM     32  C   UNL     1       3.535   2.708  20.535  0.00  0.00    +0.000 A 
ATOM     33  C   UNL     1       2.493   2.516  21.442  0.00  0.00    +0.000 A 
ATOM     34  C   UNL     1       1.269   3.149  21.227  0.00  0.00    +0.000 A 
ATOM     35  C   UNL     1       1.087   3.973  20.107  0.00  0.00    +0.000 A 
ENDBRANCH  29  30
ENDBRANCH  28  29
ENDBRANCH   7  28
TORSDOF 6
ENDMDL
MODEL 9
REMARK VINA RESULT:      -8.1      2.169      3.685
REMARK  Name = 
REMARK  7 active torsions:
REMARK  status: ('A' for Active; 'I' for Inactive)
REMARK    1  A    between atoms: C_1  and  C_2
REMARK    2  A    between atoms: C_3  and  C_4
REMARK    3  A    between atoms: N_6  and  C_7
REMARK    4  A    between atoms: C_13  and  C_14
REMARK    5  A    between atoms: C_22  and  S_23
REMARK    6  A    between atoms: S_23  and  C_24
REMARK    7  A    between atoms: C_24  and  C_25
REMARK                            x       y       z     vdW  Elec       q    Type
REMARK                         _______ _______ _______ _____ _____    ______ ____
ROOT
ATOM      1  C   UNL     1      -0.820   9.685  23.260  0.00  0.00    +0.000 C 
ATOM      2  C   UNL     1      -0.152   9.787  21.909  0.00  0.00    +0.000 C 
ATOM      3  C   UNL     1      -0.441  10.628  20.876  0.00  0.00    +0.000 C 
ATOM      4  C   UNL     1       0.404  10.554  19.566  0.00  0.00    +0.000 C 
ATOM      5  N   UNL     1       1.212   9.325  19.500  0.00  0.00    +0.000 N 
ATOM      6  N   UNL     1       1.756   8.778  18.377  0.00  0.00    +0.000 NA
ATOM      7  C   UNL     1       2.345   7.685  18.892  0.00  0.00    +0.000 A 
ATOM      8  N   UNL     1       2.181   7.519  20.249  0.00  0.00    +0.000 NA
ATOM      9  C   UNL     1       1.444   8.540  20.590  0.00  0.00    +0.000 A 
ATOM     10  N   UNL     1       0.874   8.849  21.766  0.00  0.00    +0.000 N 
ATOM     11  H   UNL     1       0.987   8.170  22.517  0.00  0.00    +0.000 HD
ENDROOT
BRANCH   4  12
ATOM     12  C   UNL     1       1.340  11.755  19.417  0.00  0.00    +0.000 A 
ATOM     13  C   UNL     1       1.708  12.554  20.517  0.00  0.00    +0.000 A 
ATOM     14  C   UNL     1       2.580  13.630  20.360  0.00  0.00    +0.000 A 
ATOM     15  C   UNL     1       3.119  13.911  19.109  0.00  0.00    +0.000 A 
ATOM     16  C   UNL     1       2.786  13.118  18.014  0.00  0.00    +0.000 A 
ATOM     17  C   UNL     1       1.901  12.049  18.164  0.00  0.00    +0.000 A 
ENDBRANCH   4  12
BRANCH   3  18
ATOM     18  C   UNL     1      -1.545  11.653  20.755  0.00  0.00    +0.000 C 
ATOM     19  O   UNL     1      -2.115  11.763  19.674  0.00  0.00    +0.000 OA
ATOM     20  N   UNL     1      -1.806  12.429  21.865  0.00  0.00    +0.000 N 
ATOM     21  H   UNL     1      -1.235  12.292  22.683  0.00  0.00    +0.000 HD
BRANCH  20  22
ATOM     22  C   UNL     1      -2.802  13.433  21.993  0.00  0.00    +0.000 A 
ATOM     23  C   UNL     1      -4.095  13.220  22.467  0.00  0.00    +0.000 A 
ATOM     24  C   UNL     1      -5.011  14.276  22.507  0.00  0.00    +0.000 A 
ATOM     25  C   UNL     1      -4.600  15.531  22.089  0.00  0.00    +0.000 A 
ATOM     26  N   UNL     1      -3.354  15.789  21.640  0.00  0.00    +0.000 NA
ATOM     27  C   UNL     1      -2.495  14.740  21.603  0.00  0.00    +0.000 A 
ENDBRANCH  20  22
ENDBRANCH   3  18
BRANCH   7  28
ATOM     28  S   UNL     1       3.101   6.413  17.965  0.00  0.00    +0.000 S 
BRANCH  28  29
ATOM     29  C   UNL     1       1.887   5.072  17.947  0.00  0.00    +0.000 C 
BRANCH  29  30
ATOM     30  C   UNL     1       2.085   4.151  19.143  0.00  0.00    +0.000 A 
ATOM     31  C   UNL     1       1.062   3.979  20.090  0.00  0.00    +0.000 A 
ATOM     32  C   UNL     1       1.257   3.175  21.218  0.00  0.00    +0.000 A 
ATOM     33  C   UNL     1       2.477   2.530  21.420  0.00  0.00    +0.000 A 
ATOM     34  C   UNL     1       3.503   2.693  20.490  0.00  0.00    +0.000 A 
ATOM     35  C   UNL     1       3.310   3.499  19.359  0.00  0.00    +0.000 A 
ENDBRANCH  29  30
ENDBRANCH  28  29
ENDBRANCH   7  28
TORSDOF 6
ENDMDL
