MODEL 1
REMARK VINA RESULT:      -6.6      0.000      0.000
REMARK  Name = 
REMARK  10 active torsions:
REMARK  status: ('A' for Active; 'I' for Inactive)
REMARK    1  A    between atoms: C_1  and  C_2
REMARK    2  A    between atoms: C_6  and  C_7
REMARK    3  A    between atoms: C_7  and  S_8
REMARK    4  A    between atoms: N_9  and  C_10
REMARK    5  A    between atoms: C_15  and  C_16
REMARK    6  A    between atoms: N_17  and  O_18
REMARK    7  A    between atoms: O_18  and  C_19
REMARK    8  A    between atoms: C_19  and  C_20
REMARK    9  A    between atoms: C_19  and  C_21
REMARK   10  A    between atoms: C_19  and  C_22
REMARK                            x       y       z     vdW  Elec       q    Type
REMARK                         _______ _______ _______ _____ _____    ______ ____
ROOT
ATOM      1  C   UNL     1       2.799   7.743  18.223  0.00  0.00    +0.000 A 
ATOM      2  C   UNL     1       2.826   7.200  19.514  0.00  0.00    +0.000 A 
ATOM      3  C   UNL     1       1.892   7.583  20.480  0.00  0.00    +0.000 A 
ATOM      4  C   UNL     1       0.922   8.539  20.172  0.00  0.00    +0.000 A 
ATOM      5 CL   UNL     1      -0.189   8.985  21.414  0.00  0.00    +0.000 Cl
ATOM      6  C   UNL     1       0.901   9.108  18.895  0.00  0.00    +0.000 A 
ATOM      7  C   UNL     1       1.808   8.681  17.917  0.00  0.00    +0.000 A 
ENDROOT
BRANCH   1   9
ATOM      8  C   UNL     1       4.221   6.045  17.269  0.00  0.00    +0.000 C 
ATOM      9  N   UNL     1       3.723   7.239  17.308  0.00  0.00    +0.000 NA
BRANCH   8  15
ATOM     10  C   UNL     1       1.422   4.347  17.550  0.00  0.00    +0.000 C 
ATOM     11  C   UNL     1       2.738   4.133  18.229  0.00  0.00    +0.000 A 
ATOM     12  C   UNL     1       2.915   3.052  19.164  0.00  0.00    +0.000 A 
ATOM     13  C   UNL     1       4.197   2.953  19.643  0.00  0.00    +0.000 A 
ATOM     14  S   UNL     1       5.191   4.184  19.032  0.00  0.00    +0.000 S 
ATOM     15  C   UNL     1       3.918   4.859  18.065  0.00  0.00    +0.000 A 
ENDBRANCH   8  15
BRANCH   8  16
ATOM     16  S   UNL     1       5.471   5.827  16.034  0.00  0.00    +0.000 S 
ATOM     17  H   UNL     1       6.513   6.073  16.843  0.00  0.00    +0.000 HD
ENDBRANCH   8  16
ENDBRANCH   1   9
BRANCH   6  18
ATOM     18  C   UNL     1      -0.031  10.197  18.543  0.00  0.00    +0.000 C 
ATOM     19  N   UNL     1      -1.008   9.988  17.710  0.00  0.00    +0.000 NA
BRANCH  19  20
ATOM     20  O   UNL     1      -1.726  11.183  17.534  0.00  0.00    +0.000 OA
BRANCH  20  21
ATOM     21  C   UNL     1      -3.074  10.914  17.095  0.00  0.00    +0.000 C 
ATOM     22  C   UNL     1      -3.213  10.988  15.571  0.00  0.00    +0.000 C 
ATOM     23  C   UNL     1      -3.389   9.481  17.546  0.00  0.00    +0.000 C 
ATOM     24  C   UNL     1      -4.040  11.883  17.787  0.00  0.00    +0.000 C 
ENDBRANCH  20  21
ENDBRANCH  19  20
ENDBRANCH   6  18
TORSDOF 6
ENDMDL
MODEL 2
REMARK VINA RESULT:      -6.6      3.626      5.161
REMARK  Name = 
REMARK  10 active torsions:
REMARK  status: ('A' for Active; 'I' for Inactive)
REMARK    1  A    between atoms: C_1  and  C_2
REMARK    2  A    between atoms: C_6  and  C_7
REMARK    3  A    between atoms: C_7  and  S_8
REMARK    4  A    between atoms: N_9  and  C_10
REMARK    5  A    between atoms: C_15  and  C_16
REMARK    6  A    between atoms: N_17  and  O_18
REMARK    7  A    between atoms: O_18  and  C_19
REMARK    8  A    between atoms: C_19  and  C_20
REMARK    9  A    between atoms: C_19  and  C_21
REMARK   10  A    between atoms: C_19  and  C_22
REMARK                            x       y       z     vdW  Elec       q    Type
REMARK                         _______ _______ _______ _____ _____    ______ ____
ROOT
ATOM      1  C   UNL     1       3.746   3.343  17.542  0.00  0.00    +0.000 A 
ATOM      2  C   UNL     1       3.120   2.134  17.872  0.00  0.00    +0.000 A 
ATOM      3  C   UNL     1       2.305   2.026  19.002  0.00  0.00    +0.000 A 
ATOM      4  C   UNL     1       2.121   3.131  19.838  0.00  0.00    +0.000 A 
ATOM      5 CL   UNL     1       1.121   2.927  21.228  0.00  0.00    +0.000 Cl
ATOM      6  C   UNL     1       2.762   4.334  19.533  0.00  0.00    +0.000 A 
ATOM      7  C   UNL     1       3.535   4.449  18.371  0.00  0.00    +0.000 A 
ENDROOT
BRANCH   1   9
ATOM      8  C   UNL     1       5.443   4.170  16.042  0.00  0.00    +0.000 C 
ATOM      9  N   UNL     1       4.474   3.370  16.353  0.00  0.00    +0.000 NA
BRANCH   8  15
ATOM     10  C   UNL     1       4.805   7.377  16.361  0.00  0.00    +0.000 C 
ATOM     11  C   UNL     1       5.902   6.559  16.965  0.00  0.00    +0.000 A 
ATOM     12  C   UNL     1       6.879   7.168  17.831  0.00  0.00    +0.000 A 
ATOM     13  C   UNL     1       7.774   6.269  18.356  0.00  0.00    +0.000 A 
ATOM     14  S   UNL     1       7.498   4.699  17.776  0.00  0.00    +0.000 S 
ATOM     15  C   UNL     1       6.128   5.190  16.830  0.00  0.00    +0.000 A 
ENDBRANCH   8  15
BRANCH   8  16
ATOM     16  S   UNL     1       6.028   3.978  14.381  0.00  0.00    +0.000 S 
ATOM     17  H   UNL     1       4.823   3.766  13.831  0.00  0.00    +0.000 HD
ENDBRANCH   8  16
ENDBRANCH   1   9
BRANCH   6  18
ATOM     18  C   UNL     1       2.691   5.503  20.432  0.00  0.00    +0.000 C 
ATOM     19  N   UNL     1       1.703   6.344  20.346  0.00  0.00    +0.000 NA
BRANCH  19  20
ATOM     20  O   UNL     1       1.886   7.367  21.293  0.00  0.00    +0.000 OA
BRANCH  20  21
ATOM     21  C   UNL     1       0.971   8.457  21.057  0.00  0.00    +0.000 C 
ATOM     22  C   UNL     1      -0.490   8.039  21.254  0.00  0.00    +0.000 C 
ATOM     23  C   UNL     1       1.316   9.534  22.095  0.00  0.00    +0.000 C 
ATOM     24  C   UNL     1       1.201   9.022  19.650  0.00  0.00    +0.000 C 
ENDBRANCH  20  21
ENDBRANCH  19  20
ENDBRANCH   6  18
TORSDOF 6
ENDMDL
MODEL 3
REMARK VINA RESULT:      -6.5      2.638      3.703
REMARK  Name = 
REMARK  10 active torsions:
REMARK  status: ('A' for Active; 'I' for Inactive)
REMARK    1  A    between atoms: C_1  and  C_2
REMARK    2  A    between atoms: C_6  and  C_7
REMARK    3  A    between atoms: C_7  and  S_8
REMARK    4  A    between atoms: N_9  and  C_10
REMARK    5  A    between atoms: C_15  and  C_16
REMARK    6  A    between atoms: N_17  and  O_18
REMARK    7  A    between atoms: O_18  and  C_19
REMARK    8  A    between atoms: C_19  and  C_20
REMARK    9  A    between atoms: C_19  and  C_21
REMARK   10  A    between atoms: C_19  and  C_22
REMARK                            x       y       z     vdW  Elec       q    Type
REMARK                         _______ _______ _______ _____ _____    ______ ____
ROOT
ATOM      1  C   UNL     1       2.669   5.993  19.315  0.00  0.00    +0.000 A 
ATOM      2  C   UNL     1       2.924   6.466  18.021  0.00  0.00    +0.000 A 
ATOM      3  C   UNL     1       2.635   7.786  17.664  0.00  0.00    +0.000 A 
ATOM      4  C   UNL     1       2.063   8.653  18.599  0.00  0.00    +0.000 A 
ATOM      5 CL   UNL     1       1.712  10.263  18.089  0.00  0.00    +0.000 Cl
ATOM      6  C   UNL     1       1.780   8.184  19.884  0.00  0.00    +0.000 A 
ATOM      7  C   UNL     1       2.120   6.875  20.250  0.00  0.00    +0.000 A 
ENDROOT
BRANCH   1   9
ATOM      8  C   UNL     1       4.148   4.091  19.212  0.00  0.00    +0.000 C 
ATOM      9  N   UNL     1       3.064   4.685  19.595  0.00  0.00    +0.000 NA
BRANCH   8  15
ATOM     10  C   UNL     1       4.864   3.937  16.009  0.00  0.00    +0.000 C 
ATOM     11  C   UNL     1       5.654   4.525  17.135  0.00  0.00    +0.000 A 
ATOM     12  C   UNL     1       6.933   5.141  16.890  0.00  0.00    +0.000 A 
ATOM     13  C   UNL     1       7.494   5.691  18.015  0.00  0.00    +0.000 A 
ATOM     14  S   UNL     1       6.533   5.429  19.387  0.00  0.00    +0.000 S 
ATOM     15  C   UNL     1       5.307   4.598  18.483  0.00  0.00    +0.000 A 
ENDBRANCH   8  15
BRANCH   8  16
ATOM     16  S   UNL     1       4.226   2.380  19.661  0.00  0.00    +0.000 S 
ATOM     17  H   UNL     1       4.957   1.990  18.605  0.00  0.00    +0.000 HD
ENDBRANCH   8  16
ENDBRANCH   1   9
BRANCH   6  18
ATOM     18  C   UNL     1       1.081   9.019  20.881  0.00  0.00    +0.000 C 
ATOM     19  N   UNL     1      -0.096   9.509  20.624  0.00  0.00    +0.000 NA
BRANCH  19  20
ATOM     20  O   UNL     1      -0.525  10.276  21.722  0.00  0.00    +0.000 OA
BRANCH  20  21
ATOM     21  C   UNL     1      -0.927  11.596  21.302  0.00  0.00    +0.000 C 
ATOM     22  C   UNL     1      -1.548  11.594  19.901  0.00  0.00    +0.000 C 
ATOM     23  C   UNL     1      -1.989  12.056  22.308  0.00  0.00    +0.000 C 
ATOM     24  C   UNL     1       0.277  12.544  21.373  0.00  0.00    +0.000 C 
ENDBRANCH  20  21
ENDBRANCH  19  20
ENDBRANCH   6  18
TORSDOF 6
ENDMDL
MODEL 4
REMARK VINA RESULT:      -6.5      3.448      4.957
REMARK  Name = 
REMARK  10 active torsions:
REMARK  status: ('A' for Active; 'I' for Inactive)
REMARK    1  A    between atoms: C_1  and  C_2
REMARK    2  A    between atoms: C_6  and  C_7
REMARK    3  A    between atoms: C_7  and  S_8
REMARK    4  A    between atoms: N_9  and  C_10
REMARK    5  A    between atoms: C_15  and  C_16
REMARK    6  A    between atoms: N_17  and  O_18
REMARK    7  A    between atoms: O_18  and  C_19
REMARK    8  A    between atoms: C_19  and  C_20
REMARK    9  A    between atoms: C_19  and  C_21
REMARK   10  A    between atoms: C_19  and  C_22
REMARK                            x       y       z     vdW  Elec       q    Type
REMARK                         _______ _______ _______ _____ _____    ______ ____
ROOT
ATOM      1  C   UNL     1       4.539   4.613  19.717  0.00  0.00    +0.000 A 
ATOM      2  C   UNL     1       4.308   3.304  19.276  0.00  0.00    +0.000 A 
ATOM      3  C   UNL     1       3.012   2.787  19.190  0.00  0.00    +0.000 A 
ATOM      4  C   UNL     1       1.921   3.574  19.567  0.00  0.00    +0.000 A 
ATOM      5 CL   UNL     1       0.350   2.871  19.458  0.00  0.00    +0.000 Cl
ATOM      6  C   UNL     1       2.141   4.873  20.034  0.00  0.00    +0.000 A 
ATOM      7  C   UNL     1       3.438   5.400  20.069  0.00  0.00    +0.000 A 
ENDROOT
BRANCH   1   9
ATOM      8  C   UNL     1       6.565   5.376  18.655  0.00  0.00    +0.000 C 
ATOM      9  N   UNL     1       5.859   5.061  19.694  0.00  0.00    +0.000 NA
BRANCH   8  15
ATOM     10  C   UNL     1       4.311   7.244  17.164  0.00  0.00    +0.000 C 
ATOM     11  C   UNL     1       5.233   6.219  16.585  0.00  0.00    +0.000 A 
ATOM     12  C   UNL     1       5.214   5.928  15.174  0.00  0.00    +0.000 A 
ATOM     13  C   UNL     1       6.166   5.016  14.795  0.00  0.00    +0.000 A 
ATOM     14  S   UNL     1       7.056   4.451  16.123  0.00  0.00    +0.000 S 
ATOM     15  C   UNL     1       6.200   5.461  17.244  0.00  0.00    +0.000 A 
ENDBRANCH   8  15
BRANCH   8  16
ATOM     16  S   UNL     1       8.250   5.774  19.026  0.00  0.00    +0.000 S 
ATOM     17  H   UNL     1       8.715   5.597  17.780  0.00  0.00    +0.000 HD
ENDBRANCH   8  16
ENDBRANCH   1   9
BRANCH   6  18
ATOM     18  C   UNL     1       1.040   5.714  20.545  0.00  0.00    +0.000 C 
ATOM     19  N   UNL     1       1.245   6.964  20.836  0.00  0.00    +0.000 NA
BRANCH  19  20
ATOM     20  O   UNL     1       0.049   7.526  21.317  0.00  0.00    +0.000 OA
BRANCH  20  21
ATOM     21  C   UNL     1       0.231   8.918  21.648  0.00  0.00    +0.000 C 
ATOM     22  C   UNL     1      -0.614   9.342  22.854  0.00  0.00    +0.000 C 
ATOM     23  C   UNL     1       1.714   9.078  22.009  0.00  0.00    +0.000 C 
ATOM     24  C   UNL     1      -0.084   9.781  20.420  0.00  0.00    +0.000 C 
ENDBRANCH  20  21
ENDBRANCH  19  20
ENDBRANCH   6  18
TORSDOF 6
ENDMDL
MODEL 5
REMARK VINA RESULT:      -6.4      4.094      6.448
REMARK  Name = 
REMARK  10 active torsions:
REMARK  status: ('A' for Active; 'I' for Inactive)
REMARK    1  A    between atoms: C_1  and  C_2
REMARK    2  A    between atoms: C_6  and  C_7
REMARK    3  A    between atoms: C_7  and  S_8
REMARK    4  A    between atoms: N_9  and  C_10
REMARK    5  A    between atoms: C_15  and  C_16
REMARK    6  A    between atoms: N_17  and  O_18
REMARK    7  A    between atoms: O_18  and  C_19
REMARK    8  A    between atoms: C_19  and  C_20
REMARK    9  A    between atoms: C_19  and  C_21
REMARK   10  A    between atoms: C_19  and  C_22
REMARK                            x       y       z     vdW  Elec       q    Type
REMARK                         _______ _______ _______ _____ _____    ______ ____
ROOT
ATOM      1  C   UNL     1       2.126   6.000  20.337  0.00  0.00    +0.000 A 
ATOM      2  C   UNL     1       1.387   7.160  20.601  0.00  0.00    +0.000 A 
ATOM      3  C   UNL     1       1.464   8.274  19.760  0.00  0.00    +0.000 A 
ATOM      4  C   UNL     1       2.305   8.249  18.645  0.00  0.00    +0.000 A 
ATOM      5 CL   UNL     1       2.371   9.663  17.659  0.00  0.00    +0.000 Cl
ATOM      6  C   UNL     1       3.067   7.107  18.386  0.00  0.00    +0.000 A 
ATOM      7  C   UNL     1       2.945   5.976  19.204  0.00  0.00    +0.000 A 
ENDROOT
BRANCH   1   9
ATOM      8  C   UNL     1       2.013   3.658  20.900  0.00  0.00    +0.000 C 
ATOM      9  N   UNL     1       1.921   4.916  21.190  0.00  0.00    +0.000 NA
BRANCH   8  15
ATOM     10  C   UNL     1       4.793   2.041  20.231  0.00  0.00    +0.000 C 
ATOM     11  C   UNL     1       3.619   2.322  19.349  0.00  0.00    +0.000 A 
ATOM     12  C   UNL     1       3.601   1.862  17.983  0.00  0.00    +0.000 A 
ATOM     13  C   UNL     1       2.426   2.142  17.332  0.00  0.00    +0.000 A 
ATOM     14  S   UNL     1       1.354   3.009  18.320  0.00  0.00    +0.000 S 
ATOM     15  C   UNL     1       2.439   2.990  19.673  0.00  0.00    +0.000 A 
ENDBRANCH   8  15
BRANCH   8  16
ATOM     16  S   UNL     1       1.546   2.579  22.225  0.00  0.00    +0.000 S 
ATOM     17  H   UNL     1       0.222   2.739  22.077  0.00  0.00    +0.000 HD
ENDBRANCH   8  16
ENDBRANCH   1   9
BRANCH   6  18
ATOM     18  C   UNL     1       4.050   7.060  17.286  0.00  0.00    +0.000 C 
ATOM     19  N   UNL     1       4.922   6.097  17.220  0.00  0.00    +0.000 NA
BRANCH  19  20
ATOM     20  O   UNL     1       5.745   6.298  16.098  0.00  0.00    +0.000 OA
BRANCH  20  21
ATOM     21  C   UNL     1       6.363   5.062  15.684  0.00  0.00    +0.000 C 
ATOM     22  C   UNL     1       7.165   5.220  14.388  0.00  0.00    +0.000 C 
ATOM     23  C   UNL     1       7.326   4.670  16.812  0.00  0.00    +0.000 C 
ATOM     24  C   UNL     1       5.288   3.977  15.542  0.00  0.00    +0.000 C 
ENDBRANCH  20  21
ENDBRANCH  19  20
ENDBRANCH   6  18
TORSDOF 6
ENDMDL
MODEL 6
REMARK VINA RESULT:      -6.4      3.460      5.039
REMARK  Name = 
REMARK  10 active torsions:
REMARK  status: ('A' for Active; 'I' for Inactive)
REMARK    1  A    between atoms: C_1  and  C_2
REMARK    2  A    between atoms: C_6  and  C_7
REMARK    3  A    between atoms: C_7  and  S_8
REMARK    4  A    between atoms: N_9  and  C_10
REMARK    5  A    between atoms: C_15  and  C_16
REMARK    6  A    between atoms: N_17  and  O_18
REMARK    7  A    between atoms: O_18  and  C_19
REMARK    8  A    between atoms: C_19  and  C_20
REMARK    9  A    between atoms: C_19  and  C_21
REMARK   10  A    between atoms: C_19  and  C_22
REMARK                            x       y       z     vdW  Elec       q    Type
REMARK                         _______ _______ _______ _____ _____    ______ ____
ROOT
ATOM      1  C   UNL     1       3.612   3.471  17.877  0.00  0.00    +0.000 A 
ATOM      2  C   UNL     1       3.956   2.374  18.678  0.00  0.00    +0.000 A 
ATOM      3  C   UNL     1       3.370   2.181  19.932  0.00  0.00    +0.000 A 
ATOM      4  C   UNL     1       2.437   3.101  20.415  0.00  0.00    +0.000 A 
ATOM      5 CL   UNL     1       1.765   2.817  21.978  0.00  0.00    +0.000 Cl
ATOM      6  C   UNL     1       2.105   4.214  19.637  0.00  0.00    +0.000 A 
ATOM      7  C   UNL     1       2.659   4.373  18.360  0.00  0.00    +0.000 A 
ENDROOT
BRANCH   1   9
ATOM      8  C   UNL     1       5.128   4.335  16.214  0.00  0.00    +0.000 C 
ATOM      9  N   UNL     1       4.193   3.533  16.612  0.00  0.00    +0.000 NA
BRANCH   8  15
ATOM     10  C   UNL     1       4.390   7.420  17.070  0.00  0.00    +0.000 C 
ATOM     11  C   UNL     1       5.646   6.641  17.302  0.00  0.00    +0.000 A 
ATOM     12  C   UNL     1       6.761   7.236  17.995  0.00  0.00    +0.000 A 
ATOM     13  C   UNL     1       7.806   6.368  18.186  0.00  0.00    +0.000 A 
ATOM     14  S   UNL     1       7.497   4.852  17.491  0.00  0.00    +0.000 S 
ATOM     15  C   UNL     1       5.917   5.320  16.949  0.00  0.00    +0.000 A 
ENDBRANCH   8  15
BRANCH   8  16
ATOM     16  S   UNL     1       5.508   4.196  14.490  0.00  0.00    +0.000 S 
ATOM     17  H   UNL     1       6.841   4.251  14.634  0.00  0.00    +0.000 HD
ENDBRANCH   8  16
ENDBRANCH   1   9
BRANCH   6  18
ATOM     18  C   UNL     1       1.208   5.274  20.137  0.00  0.00    +0.000 C 
ATOM     19  N   UNL     1       1.691   6.314  20.749  0.00  0.00    +0.000 NA
BRANCH  19  20
ATOM     20  O   UNL     1       0.632   7.153  21.137  0.00  0.00    +0.000 OA
BRANCH  20  21
ATOM     21  C   UNL     1       0.968   8.540  20.922  0.00  0.00    +0.000 C 
ATOM     22  C   UNL     1       1.762   8.750  19.629  0.00  0.00    +0.000 C 
ATOM     23  C   UNL     1      -0.367   9.286  20.804  0.00  0.00    +0.000 C 
ATOM     24  C   UNL     1       1.736   9.073  22.138  0.00  0.00    +0.000 C 
ENDBRANCH  20  21
ENDBRANCH  19  20
ENDBRANCH   6  18
TORSDOF 6
ENDMDL
MODEL 7
REMARK VINA RESULT:      -6.4      2.621      3.860
REMARK  Name = 
REMARK  10 active torsions:
REMARK  status: ('A' for Active; 'I' for Inactive)
REMARK    1  A    between atoms: C_1  and  C_2
REMARK    2  A    between atoms: C_6  and  C_7
REMARK    3  A    between atoms: C_7  and  S_8
REMARK    4  A    between atoms: N_9  and  C_10
REMARK    5  A    between atoms: C_15  and  C_16
REMARK    6  A    between atoms: N_17  and  O_18
REMARK    7  A    between atoms: O_18  and  C_19
REMARK    8  A    between atoms: C_19  and  C_20
REMARK    9  A    between atoms: C_19  and  C_21
REMARK   10  A    between atoms: C_19  and  C_22
REMARK                            x       y       z     vdW  Elec       q    Type
REMARK                         _______ _______ _______ _____ _____    ______ ____
ROOT
ATOM      1  C   UNL     1       2.782   5.899  19.363  0.00  0.00    +0.000 A 
ATOM      2  C   UNL     1       3.049   6.337  18.059  0.00  0.00    +0.000 A 
ATOM      3  C   UNL     1       2.748   7.641  17.658  0.00  0.00    +0.000 A 
ATOM      4  C   UNL     1       2.150   8.527  18.558  0.00  0.00    +0.000 A 
ATOM      5 CL   UNL     1       1.783  10.116  17.995  0.00  0.00    +0.000 Cl
ATOM      6  C   UNL     1       1.854   8.093  19.853  0.00  0.00    +0.000 A 
ATOM      7  C   UNL     1       2.206   6.801  20.262  0.00  0.00    +0.000 A 
ENDROOT
BRANCH   1   9
ATOM      8  C   UNL     1       4.158   3.929  19.158  0.00  0.00    +0.000 C 
ATOM      9  N   UNL     1       3.191   4.606  19.688  0.00  0.00    +0.000 NA
BRANCH   8  15
ATOM     10  C   UNL     1       6.987   5.558  19.525  0.00  0.00    +0.000 C 
ATOM     11  C   UNL     1       6.349   5.025  18.281  0.00  0.00    +0.000 A 
ATOM     12  C   UNL     1       6.984   5.197  17.000  0.00  0.00    +0.000 A 
ATOM     13  C   UNL     1       6.305   4.591  15.972  0.00  0.00    +0.000 A 
ATOM     14  S   UNL     1       4.873   3.862  16.513  0.00  0.00    +0.000 S 
ATOM     15  C   UNL     1       5.157   4.312  18.164  0.00  0.00    +0.000 A 
ENDBRANCH   8  15
BRANCH   8  16
ATOM     16  S   UNL     1       4.281   2.265  19.751  0.00  0.00    +0.000 S 
ATOM     17  H   UNL     1       3.199   2.318  20.543  0.00  0.00    +0.000 HD
ENDBRANCH   8  16
ENDBRANCH   1   9
BRANCH   6  18
ATOM     18  C   UNL     1       1.128   8.948  20.813  0.00  0.00    +0.000 C 
ATOM     19  N   UNL     1      -0.043   9.429  20.516  0.00  0.00    +0.000 NA
BRANCH  19  20
ATOM     20  O   UNL     1      -0.501  10.218  21.585  0.00  0.00    +0.000 OA
BRANCH  20  21
ATOM     21  C   UNL     1      -0.858  11.541  21.134  0.00  0.00    +0.000 C 
ATOM     22  C   UNL     1      -1.479  11.527  19.733  0.00  0.00    +0.000 C 
ATOM     23  C   UNL     1      -1.904  12.061  22.128  0.00  0.00    +0.000 C 
ATOM     24  C   UNL     1       0.378  12.448  21.183  0.00  0.00    +0.000 C 
ENDBRANCH  20  21
ENDBRANCH  19  20
ENDBRANCH   6  18
TORSDOF 6
ENDMDL
MODEL 8
REMARK VINA RESULT:      -6.3      5.681      7.741
REMARK  Name = 
REMARK  10 active torsions:
REMARK  status: ('A' for Active; 'I' for Inactive)
REMARK    1  A    between atoms: C_1  and  C_2
REMARK    2  A    between atoms: C_6  and  C_7
REMARK    3  A    between atoms: C_7  and  S_8
REMARK    4  A    between atoms: N_9  and  C_10
REMARK    5  A    between atoms: C_15  and  C_16
REMARK    6  A    between atoms: N_17  and  O_18
REMARK    7  A    between atoms: O_18  and  C_19
REMARK    8  A    between atoms: C_19  and  C_20
REMARK    9  A    between atoms: C_19  and  C_21
REMARK   10  A    between atoms: C_19  and  C_22
REMARK                            x       y       z     vdW  Elec       q    Type
REMARK                         _______ _______ _______ _____ _____    ______ ____
ROOT
ATOM      1  C   UNL     1      -2.410  11.779  18.781  0.00  0.00    +0.000 A 
ATOM      2  C   UNL     1      -2.854  10.761  17.928  0.00  0.00    +0.000 A 
ATOM      3  C   UNL     1      -4.216  10.487  17.775  0.00  0.00    +0.000 A 
ATOM      4  C   UNL     1      -5.160  11.221  18.497  0.00  0.00    +0.000 A 
ATOM      5 CL   UNL     1      -6.824  10.820  18.281  0.00  0.00    +0.000 Cl
ATOM      6  C   UNL     1      -4.728  12.222  19.372  0.00  0.00    +0.000 A 
ATOM      7  C   UNL     1      -3.364  12.524  19.480  0.00  0.00    +0.000 A 
ENDROOT
BRANCH   1   9
ATOM      8  C   UNL     1      -0.201  11.728  19.745  0.00  0.00    +0.000 C 
ATOM      9  N   UNL     1      -1.038  12.026  18.804  0.00  0.00    +0.000 NA
BRANCH   8  15
ATOM     10  C   UNL     1      -1.301  12.731  22.674  0.00  0.00    +0.000 C 
ATOM     11  C   UNL     1      -0.822  11.380  22.248  0.00  0.00    +0.000 A 
ATOM     12  C   UNL     1      -0.798  10.282  23.181  0.00  0.00    +0.000 A 
ATOM     13  C   UNL     1      -0.398   9.098  22.615  0.00  0.00    +0.000 A 
ATOM     14  S   UNL     1       0.009   9.291  20.980  0.00  0.00    +0.000 S 
ATOM     15  C   UNL     1      -0.386  10.980  20.986  0.00  0.00    +0.000 A 
ENDBRANCH   8  15
BRANCH   8  16
ATOM     16  S   UNL     1       1.441  12.328  19.463  0.00  0.00    +0.000 S 
ATOM     17  H   UNL     1       1.299  13.464  20.163  0.00  0.00    +0.000 HD
ENDBRANCH   8  16
ENDBRANCH   1   9
BRANCH   6  18
ATOM     18  C   UNL     1      -5.669  12.958  20.239  0.00  0.00    +0.000 C 
ATOM     19  N   UNL     1      -5.597  12.852  21.533  0.00  0.00    +0.000 NA
BRANCH  19  20
ATOM     20  O   UNL     1      -6.611  13.632  22.116  0.00  0.00    +0.000 OA
BRANCH  20  21
ATOM     21  C   UNL     1      -6.331  13.883  23.508  0.00  0.00    +0.000 C 
ATOM     22  C   UNL     1      -6.111  15.372  23.796  0.00  0.00    +0.000 C 
ATOM     23  C   UNL     1      -7.570  13.413  24.281  0.00  0.00    +0.000 C 
ATOM     24  C   UNL     1      -5.120  13.049  23.944  0.00  0.00    +0.000 C 
ENDBRANCH  20  21
ENDBRANCH  19  20
ENDBRANCH   6  18
TORSDOF 6
ENDMDL
MODEL 9
REMARK VINA RESULT:      -6.3      2.887      4.692
REMARK  Name = 
REMARK  10 active torsions:
REMARK  status: ('A' for Active; 'I' for Inactive)
REMARK    1  A    between atoms: C_1  and  C_2
REMARK    2  A    between atoms: C_6  and  C_7
REMARK    3  A    between atoms: C_7  and  S_8
REMARK    4  A    between atoms: N_9  and  C_10
REMARK    5  A    between atoms: C_15  and  C_16
REMARK    6  A    between atoms: N_17  and  O_18
REMARK    7  A    between atoms: O_18  and  C_19
REMARK    8  A    between atoms: C_19  and  C_20
REMARK    9  A    between atoms: C_19  and  C_21
REMARK   10  A    between atoms: C_19  and  C_22
REMARK                            x       y       z     vdW  Elec       q    Type
REMARK                         _______ _______ _______ _____ _____    ______ ____
ROOT
ATOM      1  C   UNL     1       3.632   3.665  17.521  0.00  0.00    +0.000 A 
ATOM      2  C   UNL     1       3.433   2.454  18.197  0.00  0.00    +0.000 A 
ATOM      3  C   UNL     1       2.647   2.390  19.351  0.00  0.00    +0.000 A 
ATOM      4  C   UNL     1       2.062   3.551  19.862  0.00  0.00    +0.000 A 
ATOM      5 CL   UNL     1       1.121   3.410  21.301  0.00  0.00    +0.000 Cl
ATOM      6  C   UNL     1       2.276   4.770  19.211  0.00  0.00    +0.000 A 
ATOM      7  C   UNL     1       3.022   4.816  18.027  0.00  0.00    +0.000 A 
ENDROOT
BRANCH   1   9
ATOM      8  C   UNL     1       5.406   4.316  16.023  0.00  0.00    +0.000 C 
ATOM      9  N   UNL     1       4.367   3.611  16.337  0.00  0.00    +0.000 NA
BRANCH   8  15
ATOM     10  C   UNL     1       4.976   7.550  16.411  0.00  0.00    +0.000 C 
ATOM     11  C   UNL     1       6.039   6.657  16.967  0.00  0.00    +0.000 A 
ATOM     12  C   UNL     1       7.079   7.190  17.810  0.00  0.00    +0.000 A 
ATOM     13  C   UNL     1       7.933   6.230  18.292  0.00  0.00    +0.000 A 
ATOM     14  S   UNL     1       7.543   4.690  17.698  0.00  0.00    +0.000 S 
ATOM     15  C   UNL     1       6.177   5.279  16.804  0.00  0.00    +0.000 A 
ENDBRANCH   8  15
BRANCH   8  16
ATOM     16  S   UNL     1       5.981   4.051  14.369  0.00  0.00    +0.000 S 
ATOM     17  H   UNL     1       4.802   4.283  13.771  0.00  0.00    +0.000 HD
ENDBRANCH   8  16
ENDBRANCH   1   9
BRANCH   6  18
ATOM     18  C   UNL     1       1.772   6.045  19.760  0.00  0.00    +0.000 C 
ATOM     19  N   UNL     1       2.230   7.180  19.321  0.00  0.00    +0.000 NA
BRANCH  19  20
ATOM     20  O   UNL     1       1.605   8.228  20.018  0.00  0.00    +0.000 OA
BRANCH  20  21
ATOM     21  C   UNL     1       1.239   9.297  19.121  0.00  0.00    +0.000 C 
ATOM     22  C   UNL     1      -0.242   9.245  18.731  0.00  0.00    +0.000 C 
ATOM     23  C   UNL     1       1.498  10.601  19.886  0.00  0.00    +0.000 C 
ATOM     24  C   UNL     1       2.140   9.254  17.881  0.00  0.00    +0.000 C 
ENDBRANCH  20  21
ENDBRANCH  19  20
ENDBRANCH   6  18
TORSDOF 6
ENDMDL
