MODEL 1
REMARK VINA RESULT:      -7.2      0.000      0.000
REMARK  Name = 
REMARK  5 active torsions:
REMARK  status: ('A' for Active; 'I' for Inactive)
REMARK    1  A    between atoms: N_1  and  C_2
REMARK    2  A    between atoms: C_2  and  C_3
REMARK    3  A    between atoms: C_6  and  N_7
REMARK    4  A    between atoms: C_8  and  C_10
REMARK    5  A    between atoms: C_16  and  O_17
REMARK                            x       y       z     vdW  Elec       q    Type
REMARK                         _______ _______ _______ _____ _____    ______ ____
ROOT
ATOM      1  N   UNL     1       4.764   3.224  16.544  0.00  0.00    +0.000 N 
ATOM      2  C   UNL     1       5.064   4.447  15.965  0.00  0.00    +0.000 C 
ATOM      3  O   UNL     1       4.744   5.544  16.416  0.00  0.00    +0.000 OA
ATOM      4  H   UNL     1       5.151   2.400  16.093  0.00  0.00    +0.000 HD
ENDROOT
BRANCH   2   5
ATOM      5  C   UNL     1       5.831   4.445  14.680  0.00  0.00    +0.000 A 
ATOM      6  C   UNL     1       5.290   3.660  13.641  0.00  0.00    +0.000 A 
ATOM      7  C   UNL     1       5.932   3.535  12.410  0.00  0.00    +0.000 A 
ATOM      8  C   UNL     1       7.133   4.197  12.192  0.00  0.00    +0.000 A 
ATOM      9  C   UNL     1       7.676   4.991  13.204  0.00  0.00    +0.000 A 
ATOM     10 CL   UNL     1       9.168   5.807  12.905  0.00  0.00    +0.000 Cl
ATOM     11  C   UNL     1       7.033   5.124  14.449  0.00  0.00    +0.000 A 
BRANCH  11  12
ATOM     12  O   UNL     1       7.591   5.917  15.421  0.00  0.00    +0.000 OA
ATOM     13  H   UNL     1       8.102   5.326  16.011  0.00  0.00    +0.000 HD
ENDBRANCH  11  12
ENDBRANCH   2   5
BRANCH   1  17
ATOM     14  C   UNL     1       2.191   2.734  19.889  0.00  0.00    +0.000 A 
ATOM     15  C   UNL     1       3.567   2.871  20.077  0.00  0.00    +0.000 A 
ATOM     16  C   UNL     1       4.426   3.015  18.988  0.00  0.00    +0.000 A 
ATOM     17  C   UNL     1       3.940   3.025  17.678  0.00  0.00    +0.000 A 
ATOM     18  C   UNL     1       2.562   2.864  17.485  0.00  0.00    +0.000 A 
ATOM     19  C   UNL     1       1.695   2.716  18.580  0.00  0.00    +0.000 A 
BRANCH  14  20
ATOM     20  C   UNL     1       1.282   2.642  21.087  0.00  0.00    +0.000 C 
BRANCH  20  21
ATOM     21  N   UNL     1       1.990   3.021  22.306  0.00  0.00    +0.000 NA
ATOM     22  H   UNL     1       2.857   2.494  22.375  0.00  0.00    +0.000 HD
ATOM     23  H   UNL     1       1.421   2.762  23.111  0.00  0.00    +0.000 HD
ENDBRANCH  20  21
ENDBRANCH  14  20
ENDBRANCH   1  17
TORSDOF 5
ENDMDL
MODEL 2
REMARK VINA RESULT:      -7.1      0.907      1.095
REMARK  Name = 
REMARK  5 active torsions:
REMARK  status: ('A' for Active; 'I' for Inactive)
REMARK    1  A    between atoms: N_1  and  C_2
REMARK    2  A    between atoms: C_2  and  C_3
REMARK    3  A    between atoms: C_6  and  N_7
REMARK    4  A    between atoms: C_8  and  C_10
REMARK    5  A    between atoms: C_16  and  O_17
REMARK                            x       y       z     vdW  Elec       q    Type
REMARK                         _______ _______ _______ _____ _____    ______ ____
ROOT
ATOM      1  N   UNL     1       4.162   3.621  16.217  0.00  0.00    +0.000 N 
ATOM      2  C   UNL     1       5.482   4.030  16.112  0.00  0.00    +0.000 C 
ATOM      3  O   UNL     1       6.228   4.272  17.057  0.00  0.00    +0.000 OA
ATOM      4  H   UNL     1       3.686   3.395  15.349  0.00  0.00    +0.000 HD
ENDROOT
BRANCH   2   5
ATOM      5  C   UNL     1       6.055   4.206  14.741  0.00  0.00    +0.000 A 
ATOM      6  C   UNL     1       5.468   3.426  13.723  0.00  0.00    +0.000 A 
ATOM      7  C   UNL     1       5.940   3.460  12.412  0.00  0.00    +0.000 A 
ATOM      8  C   UNL     1       7.013   4.281  12.091  0.00  0.00    +0.000 A 
ATOM      9  C   UNL     1       7.597   5.072  13.082  0.00  0.00    +0.000 A 
ATOM     10 CL   UNL     1       8.927   6.086  12.655  0.00  0.00    +0.000 Cl
ATOM     11  C   UNL     1       7.125   5.044  14.407  0.00  0.00    +0.000 A 
BRANCH  11  12
ATOM     12  O   UNL     1       7.718   5.838  15.357  0.00  0.00    +0.000 OA
ATOM     13  H   UNL     1       7.111   5.867  16.124  0.00  0.00    +0.000 HD
ENDBRANCH  11  12
ENDBRANCH   2   5
BRANCH   1  17
ATOM     14  C   UNL     1       1.858   3.216  19.763  0.00  0.00    +0.000 A 
ATOM     15  C   UNL     1       1.924   4.446  19.107  0.00  0.00    +0.000 A 
ATOM     16  C   UNL     1       2.690   4.598  17.951  0.00  0.00    +0.000 A 
ATOM     17  C   UNL     1       3.416   3.531  17.417  0.00  0.00    +0.000 A 
ATOM     18  C   UNL     1       3.370   2.302  18.087  0.00  0.00    +0.000 A 
ATOM     19  C   UNL     1       2.601   2.145  19.252  0.00  0.00    +0.000 A 
BRANCH  14  20
ATOM     20  C   UNL     1       0.972   3.066  20.973  0.00  0.00    +0.000 C 
BRANCH  20  21
ATOM     21  N   UNL     1       1.761   2.738  22.157  0.00  0.00    +0.000 NA
ATOM     22  H   UNL     1       2.091   3.595  22.595  0.00  0.00    +0.000 HD
ATOM     23  H   UNL     1       2.587   2.216  21.867  0.00  0.00    +0.000 HD
ENDBRANCH  20  21
ENDBRANCH  14  20
ENDBRANCH   1  17
TORSDOF 5
ENDMDL
MODEL 3
REMARK VINA RESULT:      -6.7      6.056      8.298
REMARK  Name = 
REMARK  5 active torsions:
REMARK  status: ('A' for Active; 'I' for Inactive)
REMARK    1  A    between atoms: N_1  and  C_2
REMARK    2  A    between atoms: C_2  and  C_3
REMARK    3  A    between atoms: C_6  and  N_7
REMARK    4  A    between atoms: C_8  and  C_10
REMARK    5  A    between atoms: C_16  and  O_17
REMARK                            x       y       z     vdW  Elec       q    Type
REMARK                         _______ _______ _______ _____ _____    ______ ____
ROOT
ATOM      1  N   UNL     1       2.406   7.247  18.656  0.00  0.00    +0.000 N 
ATOM      2  C   UNL     1       1.962   8.526  18.360  0.00  0.00    +0.000 C 
ATOM      3  O   UNL     1       2.237   9.155  17.342  0.00  0.00    +0.000 OA
ATOM      4  H   UNL     1       2.044   6.825  19.506  0.00  0.00    +0.000 HD
ENDROOT
BRANCH   2   5
ATOM      5  C   UNL     1       1.083   9.212  19.358  0.00  0.00    +0.000 A 
ATOM      6  C   UNL     1       0.235  10.214  18.845  0.00  0.00    +0.000 A 
ATOM      7  C   UNL     1      -0.599  10.962  19.676  0.00  0.00    +0.000 A 
ATOM      8  C   UNL     1      -0.602  10.719  21.042  0.00  0.00    +0.000 A 
ATOM      9  C   UNL     1       0.221   9.720  21.566  0.00  0.00    +0.000 A 
ATOM     10 CL   UNL     1       0.195   9.436  23.270  0.00  0.00    +0.000 Cl
ATOM     11  C   UNL     1       1.063   8.960  20.734  0.00  0.00    +0.000 A 
BRANCH  11  12
ATOM     12  O   UNL     1       1.856   7.981  21.282  0.00  0.00    +0.000 OA
ATOM     13  H   UNL     1       2.698   7.984  20.782  0.00  0.00    +0.000 HD
ENDBRANCH  11  12
ENDBRANCH   2   5
BRANCH   1  17
ATOM     14  C   UNL     1       5.224   4.900  16.511  0.00  0.00    +0.000 A 
ATOM     15  C   UNL     1       5.404   6.279  16.626  0.00  0.00    +0.000 A 
ATOM     16  C   UNL     1       4.478   7.065  17.313  0.00  0.00    +0.000 A 
ATOM     17  C   UNL     1       3.344   6.500  17.902  0.00  0.00    +0.000 A 
ATOM     18  C   UNL     1       3.149   5.120  17.768  0.00  0.00    +0.000 A 
ATOM     19  C   UNL     1       4.078   4.326  17.076  0.00  0.00    +0.000 A 
BRANCH  14  20
ATOM     20  C   UNL     1       6.272   4.069  15.818  0.00  0.00    +0.000 C 
BRANCH  20  21
ATOM     21  N   UNL     1       7.613   4.480  16.225  0.00  0.00    +0.000 NA
ATOM     22  H   UNL     1       7.888   3.969  17.060  0.00  0.00    +0.000 HD
ATOM     23  H   UNL     1       7.593   5.468  16.474  0.00  0.00    +0.000 HD
ENDBRANCH  20  21
ENDBRANCH  14  20
ENDBRANCH   1  17
TORSDOF 5
ENDMDL
MODEL 4
REMARK VINA RESULT:      -6.7      5.855      8.358
REMARK  Name = 
REMARK  5 active torsions:
REMARK  status: ('A' for Active; 'I' for Inactive)
REMARK    1  A    between atoms: N_1  and  C_2
REMARK    2  A    between atoms: C_2  and  C_3
REMARK    3  A    between atoms: C_6  and  N_7
REMARK    4  A    between atoms: C_8  and  C_10
REMARK    5  A    between atoms: C_16  and  O_17
REMARK                            x       y       z     vdW  Elec       q    Type
REMARK                         _______ _______ _______ _____ _____    ______ ____
ROOT
ATOM      1  N   UNL     1       2.684   7.084  18.623  0.00  0.00    +0.000 N 
ATOM      2  C   UNL     1       2.111   8.322  18.382  0.00  0.00    +0.000 C 
ATOM      3  O   UNL     1       2.224   8.967  17.342  0.00  0.00    +0.000 OA
ATOM      4  H   UNL     1       2.450   6.639  19.506  0.00  0.00    +0.000 HD
ENDROOT
BRANCH   2   5
ATOM      5  C   UNL     1       1.295   8.943  19.472  0.00  0.00    +0.000 A 
ATOM      6  C   UNL     1       1.465   8.391  20.758  0.00  0.00    +0.000 A 
ATOM      7  C   UNL     1       0.729   8.846  21.851  0.00  0.00    +0.000 A 
ATOM      8  C   UNL     1      -0.195   9.867  21.679  0.00  0.00    +0.000 A 
ATOM      9  C   UNL     1      -0.366  10.436  20.415  0.00  0.00    +0.000 A 
ATOM     10 CL   UNL     1      -1.520  11.708  20.228  0.00  0.00    +0.000 Cl
ATOM     11  C   UNL     1       0.374   9.983  19.307  0.00  0.00    +0.000 A 
BRANCH  11  12
ATOM     12  O   UNL     1       0.185  10.568  18.079  0.00  0.00    +0.000 OA
ATOM     13  H   UNL     1      -0.190   9.880  17.492  0.00  0.00    +0.000 HD
ENDBRANCH  11  12
ENDBRANCH   2   5
BRANCH   1  17
ATOM     14  C   UNL     1       5.416   4.946  16.171  0.00  0.00    +0.000 A 
ATOM     15  C   UNL     1       5.563   6.323  16.349  0.00  0.00    +0.000 A 
ATOM     16  C   UNL     1       4.663   7.041  17.137  0.00  0.00    +0.000 A 
ATOM     17  C   UNL     1       3.590   6.409  17.769  0.00  0.00    +0.000 A 
ATOM     18  C   UNL     1       3.427   5.032  17.573  0.00  0.00    +0.000 A 
ATOM     19  C   UNL     1       4.329   4.307  16.778  0.00  0.00    +0.000 A 
BRANCH  14  20
ATOM     20  C   UNL     1       6.439   4.188  15.365  0.00  0.00    +0.000 C 
BRANCH  20  21
ATOM     21  N   UNL     1       7.502   5.077  14.906  0.00  0.00    +0.000 NA
ATOM     22  H   UNL     1       7.931   5.537  15.704  0.00  0.00    +0.000 HD
ATOM     23  H   UNL     1       7.091   5.809  14.327  0.00  0.00    +0.000 HD
ENDBRANCH  20  21
ENDBRANCH  14  20
ENDBRANCH   1  17
TORSDOF 5
ENDMDL
MODEL 5
REMARK VINA RESULT:      -6.7      5.979      8.318
REMARK  Name = 
REMARK  5 active torsions:
REMARK  status: ('A' for Active; 'I' for Inactive)
REMARK    1  A    between atoms: N_1  and  C_2
REMARK    2  A    between atoms: C_2  and  C_3
REMARK    3  A    between atoms: C_6  and  N_7
REMARK    4  A    between atoms: C_8  and  C_10
REMARK    5  A    between atoms: C_16  and  O_17
REMARK                            x       y       z     vdW  Elec       q    Type
REMARK                         _______ _______ _______ _____ _____    ______ ____
ROOT
ATOM      1  N   UNL     1       2.489   7.139  18.630  0.00  0.00    +0.000 N 
ATOM      2  C   UNL     1       2.028   8.404  18.303  0.00  0.00    +0.000 C 
ATOM      3  O   UNL     1       2.295   9.011  17.269  0.00  0.00    +0.000 OA
ATOM      4  H   UNL     1       2.132   6.734  19.491  0.00  0.00    +0.000 HD
ENDROOT
BRANCH   2   5
ATOM      5  C   UNL     1       1.142   9.104  19.283  0.00  0.00    +0.000 A 
ATOM      6  C   UNL     1       0.289  10.092  18.747  0.00  0.00    +0.000 A 
ATOM      7  C   UNL     1      -0.552  10.850  19.560  0.00  0.00    +0.000 A 
ATOM      8  C   UNL     1      -0.558  10.634  20.931  0.00  0.00    +0.000 A 
ATOM      9  C   UNL     1       0.268   9.651  21.478  0.00  0.00    +0.000 A 
ATOM     10 CL   UNL     1       0.237   9.400  23.187  0.00  0.00    +0.000 Cl
ATOM     11  C   UNL     1       1.118   8.879  20.664  0.00  0.00    +0.000 A 
BRANCH  11  12
ATOM     12  O   UNL     1       1.914   7.916  21.234  0.00  0.00    +0.000 OA
ATOM     13  H   UNL     1       1.953   8.110  22.192  0.00  0.00    +0.000 HD
ENDBRANCH  11  12
ENDBRANCH   2   5
BRANCH   1  17
ATOM     14  C   UNL     1       5.324   4.987  16.311  0.00  0.00    +0.000 A 
ATOM     15  C   UNL     1       4.238   4.323  16.883  0.00  0.00    +0.000 A 
ATOM     16  C   UNL     1       3.308   5.014  17.661  0.00  0.00    +0.000 A 
ATOM     17  C   UNL     1       3.435   6.385  17.895  0.00  0.00    +0.000 A 
ATOM     18  C   UNL     1       4.537   7.049  17.341  0.00  0.00    +0.000 A 
ATOM     19  C   UNL     1       5.475   6.357  16.559  0.00  0.00    +0.000 A 
BRANCH  14  20
ATOM     20  C   UNL     1       6.276   4.228  15.424  0.00  0.00    +0.000 C 
BRANCH  20  21
ATOM     21  N   UNL     1       7.373   5.086  14.985  0.00  0.00    +0.000 NA
ATOM     22  H   UNL     1       7.022   6.022  14.801  0.00  0.00    +0.000 HD
ATOM     23  H   UNL     1       7.739   4.727  14.104  0.00  0.00    +0.000 HD
ENDBRANCH  20  21
ENDBRANCH  14  20
ENDBRANCH   1  17
TORSDOF 5
ENDMDL
MODEL 6
REMARK VINA RESULT:      -6.7      5.772      8.324
REMARK  Name = 
REMARK  5 active torsions:
REMARK  status: ('A' for Active; 'I' for Inactive)
REMARK    1  A    between atoms: N_1  and  C_2
REMARK    2  A    between atoms: C_2  and  C_3
REMARK    3  A    between atoms: C_6  and  N_7
REMARK    4  A    between atoms: C_8  and  C_10
REMARK    5  A    between atoms: C_16  and  O_17
REMARK                            x       y       z     vdW  Elec       q    Type
REMARK                         _______ _______ _______ _____ _____    ______ ____
ROOT
ATOM      1  N   UNL     1       2.756   6.959  18.650  0.00  0.00    +0.000 N 
ATOM      2  C   UNL     1       2.187   8.189  18.360  0.00  0.00    +0.000 C 
ATOM      3  O   UNL     1       2.318   8.800  17.303  0.00  0.00    +0.000 OA
ATOM      4  H   UNL     1       2.507   6.542  19.542  0.00  0.00    +0.000 HD
ENDROOT
BRANCH   2   5
ATOM      5  C   UNL     1       1.351   8.841  19.415  0.00  0.00    +0.000 A 
ATOM      6  C   UNL     1       1.489   8.323  20.719  0.00  0.00    +0.000 A 
ATOM      7  C   UNL     1       0.732   8.810  21.783  0.00  0.00    +0.000 A 
ATOM      8  C   UNL     1      -0.182   9.832  21.564  0.00  0.00    +0.000 A 
ATOM      9  C   UNL     1      -0.322  10.368  20.282  0.00  0.00    +0.000 A 
ATOM     10 CL   UNL     1      -1.463  11.641  20.037  0.00  0.00    +0.000 Cl
ATOM     11  C   UNL     1       0.440   9.883  19.203  0.00  0.00    +0.000 A 
BRANCH  11  12
ATOM     12  O   UNL     1       0.282  10.435  17.956  0.00  0.00    +0.000 OA
ATOM     13  H   UNL     1       0.543  11.376  18.027  0.00  0.00    +0.000 HD
ENDBRANCH  11  12
ENDBRANCH   2   5
BRANCH   1  17
ATOM     14  C   UNL     1       5.514   4.977  16.097  0.00  0.00    +0.000 A 
ATOM     15  C   UNL     1       4.439   4.276  16.647  0.00  0.00    +0.000 A 
ATOM     16  C   UNL     1       3.535   4.910  17.501  0.00  0.00    +0.000 A 
ATOM     17  C   UNL     1       3.677   6.259  17.834  0.00  0.00    +0.000 A 
ATOM     18  C   UNL     1       4.768   6.958  17.302  0.00  0.00    +0.000 A 
ATOM     19  C   UNL     1       5.680   6.324  16.444  0.00  0.00    +0.000 A 
BRANCH  14  20
ATOM     20  C   UNL     1       6.437   4.283  15.129  0.00  0.00    +0.000 C 
BRANCH  20  21
ATOM     21  N   UNL     1       7.498   5.183  14.687  0.00  0.00    +0.000 NA
ATOM     22  H   UNL     1       7.163   6.143  14.710  0.00  0.00    +0.000 HD
ATOM     23  H   UNL     1       7.726   4.972  13.716  0.00  0.00    +0.000 HD
ENDBRANCH  20  21
ENDBRANCH  14  20
ENDBRANCH   1  17
TORSDOF 5
ENDMDL
MODEL 7
REMARK VINA RESULT:      -6.1      6.660      7.448
REMARK  Name = 
REMARK  5 active torsions:
REMARK  status: ('A' for Active; 'I' for Inactive)
REMARK    1  A    between atoms: N_1  and  C_2
REMARK    2  A    between atoms: C_2  and  C_3
REMARK    3  A    between atoms: C_6  and  N_7
REMARK    4  A    between atoms: C_8  and  C_10
REMARK    5  A    between atoms: C_16  and  O_17
REMARK                            x       y       z     vdW  Elec       q    Type
REMARK                         _______ _______ _______ _____ _____    ______ ____
ROOT
ATOM      1  N   UNL     1       2.069   8.509  17.683  0.00  0.00    +0.000 N 
ATOM      2  C   UNL     1       2.438   7.489  18.544  0.00  0.00    +0.000 C 
ATOM      3  O   UNL     1       2.236   7.474  19.756  0.00  0.00    +0.000 OA
ATOM      4  H   UNL     1       2.243   8.355  16.694  0.00  0.00    +0.000 HD
ENDROOT
BRANCH   2   5
ATOM      5  C   UNL     1       3.152   6.308  17.968  0.00  0.00    +0.000 A 
ATOM      6  C   UNL     1       4.267   6.598  17.154  0.00  0.00    +0.000 A 
ATOM      7  C   UNL     1       4.989   5.590  16.517  0.00  0.00    +0.000 A 
ATOM      8  C   UNL     1       4.611   4.265  16.685  0.00  0.00    +0.000 A 
ATOM      9  C   UNL     1       3.520   3.957  17.499  0.00  0.00    +0.000 A 
ATOM     10 CL   UNL     1       3.073   2.300  17.693  0.00  0.00    +0.000 Cl
ATOM     11  C   UNL     1       2.786   4.969  18.146  0.00  0.00    +0.000 A 
BRANCH  11  12
ATOM     12  O   UNL     1       1.720   4.631  18.944  0.00  0.00    +0.000 OA
ATOM     13  H   UNL     1       1.993   3.850  19.466  0.00  0.00    +0.000 HD
ENDBRANCH  11  12
ENDBRANCH   2   5
BRANCH   1  17
ATOM     14  C   UNL     1       0.281  12.223  18.715  0.00  0.00    +0.000 A 
ATOM     15  C   UNL     1       1.662  12.136  18.532  0.00  0.00    +0.000 A 
ATOM     16  C   UNL     1       2.265  10.920  18.210  0.00  0.00    +0.000 A 
ATOM     17  C   UNL     1       1.510   9.754  18.064  0.00  0.00    +0.000 A 
ATOM     18  C   UNL     1       0.128   9.833  18.270  0.00  0.00    +0.000 A 
ATOM     19  C   UNL     1      -0.483  11.055  18.596  0.00  0.00    +0.000 A 
BRANCH  14  20
ATOM     20  C   UNL     1      -0.349  13.561  19.000  0.00  0.00    +0.000 C 
BRANCH  20  21
ATOM     21  N   UNL     1      -1.753  13.406  19.371  0.00  0.00    +0.000 NA
ATOM     22  H   UNL     1      -2.299  13.169  18.547  0.00  0.00    +0.000 HD
ATOM     23  H   UNL     1      -2.104  14.300  19.713  0.00  0.00    +0.000 HD
ENDBRANCH  20  21
ENDBRANCH  14  20
ENDBRANCH   1  17
TORSDOF 5
ENDMDL
MODEL 8
REMARK VINA RESULT:      -6.1      6.836      7.616
REMARK  Name = 
REMARK  5 active torsions:
REMARK  status: ('A' for Active; 'I' for Inactive)
REMARK    1  A    between atoms: N_1  and  C_2
REMARK    2  A    between atoms: C_2  and  C_3
REMARK    3  A    between atoms: C_6  and  N_7
REMARK    4  A    between atoms: C_8  and  C_10
REMARK    5  A    between atoms: C_16  and  O_17
REMARK                            x       y       z     vdW  Elec       q    Type
REMARK                         _______ _______ _______ _____ _____    ______ ____
ROOT
ATOM      1  N   UNL     1       1.886   8.656  17.701  0.00  0.00    +0.000 N 
ATOM      2  C   UNL     1       2.350   7.673  18.560  0.00  0.00    +0.000 C 
ATOM      3  O   UNL     1       2.150   7.637  19.772  0.00  0.00    +0.000 OA
ATOM      4  H   UNL     1       2.075   8.521  16.712  0.00  0.00    +0.000 HD
ENDROOT
BRANCH   2   5
ATOM      5  C   UNL     1       3.172   6.565  17.981  0.00  0.00    +0.000 A 
ATOM      6  C   UNL     1       4.260   6.962  17.176  0.00  0.00    +0.000 A 
ATOM      7  C   UNL     1       5.076   6.028  16.539  0.00  0.00    +0.000 A 
ATOM      8  C   UNL     1       4.819   4.672  16.695  0.00  0.00    +0.000 A 
ATOM      9  C   UNL     1       3.756   4.261  17.501  0.00  0.00    +0.000 A 
ATOM     10 CL   UNL     1       3.460   2.569  17.682  0.00  0.00    +0.000 Cl
ATOM     11  C   UNL     1       2.929   5.198  18.149  0.00  0.00    +0.000 A 
BRANCH  11  12
ATOM     12  O   UNL     1       1.894   4.759  18.938  0.00  0.00    +0.000 OA
ATOM     13  H   UNL     1       1.746   3.818  18.715  0.00  0.00    +0.000 HD
ENDBRANCH  11  12
ENDBRANCH   2   5
BRANCH   1  17
ATOM     14  C   UNL     1      -0.029  12.230  18.968  0.00  0.00    +0.000 A 
ATOM     15  C   UNL     1      -0.786  11.093  18.680  0.00  0.00    +0.000 A 
ATOM     16  C   UNL     1      -0.172   9.917  18.247  0.00  0.00    +0.000 A 
ATOM     17  C   UNL     1       1.213   9.841  18.084  0.00  0.00    +0.000 A 
ATOM     18  C   UNL     1       1.972  10.988  18.350  0.00  0.00    +0.000 A 
ATOM     19  C   UNL     1       1.358  12.173  18.784  0.00  0.00    +0.000 A 
BRANCH  14  20
ATOM     20  C   UNL     1      -0.713  13.465  19.494  0.00  0.00    +0.000 C 
BRANCH  20  21
ATOM     21  N   UNL     1      -0.512  14.595  18.591  0.00  0.00    +0.000 NA
ATOM     22  H   UNL     1      -0.700  14.305  17.635  0.00  0.00    +0.000 HD
ATOM     23  H   UNL     1       0.466  14.876  18.629  0.00  0.00    +0.000 HD
ENDBRANCH  20  21
ENDBRANCH  14  20
ENDBRANCH   1  17
TORSDOF 5
ENDMDL
MODEL 9
REMARK VINA RESULT:      -6.0      5.882      6.785
REMARK  Name = 
REMARK  5 active torsions:
REMARK  status: ('A' for Active; 'I' for Inactive)
REMARK    1  A    between atoms: N_1  and  C_2
REMARK    2  A    between atoms: C_2  and  C_3
REMARK    3  A    between atoms: C_6  and  N_7
REMARK    4  A    between atoms: C_8  and  C_10
REMARK    5  A    between atoms: C_16  and  O_17
REMARK                            x       y       z     vdW  Elec       q    Type
REMARK                         _______ _______ _______ _____ _____    ______ ____
ROOT
ATOM      1  N   UNL     1       2.157   7.678  19.571  0.00  0.00    +0.000 N 
ATOM      2  C   UNL     1       2.615   7.707  18.264  0.00  0.00    +0.000 C 
ATOM      3  O   UNL     1       2.466   8.641  17.480  0.00  0.00    +0.000 OA
ATOM      4  H   UNL     1       2.411   6.864  20.124  0.00  0.00    +0.000 HD
ENDROOT
BRANCH   2   5
ATOM      5  C   UNL     1       3.344   6.507  17.748  0.00  0.00    +0.000 A 
ATOM      6  C   UNL     1       4.460   6.769  16.928  0.00  0.00    +0.000 A 
ATOM      7  C   UNL     1       5.196   5.738  16.344  0.00  0.00    +0.000 A 
ATOM      8  C   UNL     1       4.829   4.419  16.572  0.00  0.00    +0.000 A 
ATOM      9  C   UNL     1       3.736   4.140  17.393  0.00  0.00    +0.000 A 
ATOM     10 CL   UNL     1       3.303   2.490  17.663  0.00  0.00    +0.000 Cl
ATOM     11  C   UNL     1       2.989   5.174  17.988  0.00  0.00    +0.000 A 
BRANCH  11  12
ATOM     12  O   UNL     1       1.921   4.865  18.794  0.00  0.00    +0.000 OA
ATOM     13  H   UNL     1       1.697   5.677  19.293  0.00  0.00    +0.000 HD
ENDBRANCH  11  12
ENDBRANCH   2   5
BRANCH   1  17
ATOM     14  C   UNL     1      -0.365  10.502  21.498  0.00  0.00    +0.000 A 
ATOM     15  C   UNL     1      -0.194  10.544  20.114  0.00  0.00    +0.000 A 
ATOM     16  C   UNL     1       0.645   9.634  19.469  0.00  0.00    +0.000 A 
ATOM     17  C   UNL     1       1.340   8.657  20.186  0.00  0.00    +0.000 A 
ATOM     18  C   UNL     1       1.188   8.627  21.577  0.00  0.00    +0.000 A 
ATOM     19  C   UNL     1       0.346   9.542  22.230  0.00  0.00    +0.000 A 
BRANCH  14  20
ATOM     20  C   UNL     1      -1.325  11.457  22.159  0.00  0.00    +0.000 C 
BRANCH  20  21
ATOM     21  N   UNL     1      -0.620  12.359  23.064  0.00  0.00    +0.000 NA
ATOM     22  H   UNL     1       0.203  11.893  23.438  0.00  0.00    +0.000 HD
ATOM     23  H   UNL     1      -1.226  12.571  23.855  0.00  0.00    +0.000 HD
ENDBRANCH  20  21
ENDBRANCH  14  20
ENDBRANCH   1  17
TORSDOF 5
ENDMDL
