MODEL 1
REMARK VINA RESULT:      -8.0      0.000      0.000
REMARK  Name = 
REMARK  4 active torsions:
REMARK  status: ('A' for Active; 'I' for Inactive)
REMARK    1  A    between atoms: C_2  and  C_12
REMARK    2  A    between atoms: N_3  and  C_4
REMARK    3  A    between atoms: N_15  and  S_16
REMARK    4  A    between atoms: S_16  and  C_19
REMARK                            x       y       z     vdW  Elec       q    Type
REMARK                         _______ _______ _______ _____ _____    ______ ____
ROOT
ATOM      1  C   UNL     1       7.441   6.360  17.590  0.00  0.00    +0.000 C 
ATOM      2  C   UNL     1       7.156   5.736  18.964  0.00  0.00    +0.000 C 
ATOM      3  C   UNL     1       5.716   5.233  19.084  0.00  0.00    +0.000 C 
ATOM      4  N   UNL     1       4.751   6.340  18.818  0.00  0.00    +0.000 NA
ATOM      5  C   UNL     1       4.975   6.986  17.488  0.00  0.00    +0.000 C 
ATOM      6  C   UNL     1       6.417   7.468  17.334  0.00  0.00    +0.000 C 
ENDROOT
BRANCH   1   8
ATOM      7  O   UNL     1       7.946   4.174  16.733  0.00  0.00    +0.000 OA
ATOM      8  C   UNL     1       7.458   5.278  16.506  0.00  0.00    +0.000 C 
ATOM      9  N   UNL     1       6.955   5.663  15.278  0.00  0.00    +0.000 N 
ATOM     10  H   UNL     1       6.879   6.657  15.071  0.00  0.00    +0.000 HD
BRANCH   9  11
ATOM     11  C   UNL     1       6.785   4.790  14.172  0.00  0.00    +0.000 A 
ATOM     12  C   UNL     1       5.769   3.830  14.108  0.00  0.00    +0.000 A 
ATOM     13  C   UNL     1       5.657   2.980  13.002  0.00  0.00    +0.000 A 
ATOM     14  C   UNL     1       6.556   3.091  11.945  0.00  0.00    +0.000 A 
ATOM     15 CL   UNL     1       6.412   2.035  10.597  0.00  0.00    +0.000 Cl
ATOM     16  C   UNL     1       7.561   4.052  11.977  0.00  0.00    +0.000 A 
ATOM     17  C   UNL     1       7.662   4.896  13.083  0.00  0.00    +0.000 A 
ATOM     18  F   UNL     1       8.642   5.812  13.110  0.00  0.00    +0.000 F 
ENDBRANCH   9  11
ENDBRANCH   1   8
BRANCH   4  19
ATOM     19  S   UNL     1       3.094   5.860  18.998  0.00  0.00    +0.000 S 
ATOM     20  O   UNL     1       2.680   5.228  17.765  0.00  0.00    +0.000 OA
ATOM     21  O   UNL     1       2.981   5.168  20.266  0.00  0.00    +0.000 OA
BRANCH  19  22
ATOM     22  C   UNL     1       2.221   7.380  19.114  0.00  0.00    +0.000 A 
ATOM     23  C   UNL     1       2.020   8.203  18.008  0.00  0.00    +0.000 A 
ATOM     24  C   UNL     1       1.359   9.416  18.188  0.00  0.00    +0.000 A 
ATOM     25  C   UNL     1       0.922   9.745  19.463  0.00  0.00    +0.000 A 
ATOM     26  N   UNL     1       1.104   8.958  20.548  0.00  0.00    +0.000 NA
ATOM     27  C   UNL     1       1.762   7.790  20.353  0.00  0.00    +0.000 A 
ENDBRANCH  19  22
ENDBRANCH   4  19
TORSDOF 4
ENDMDL
MODEL 2
REMARK VINA RESULT:      -7.9      0.954      1.341
REMARK  Name = 
REMARK  4 active torsions:
REMARK  status: ('A' for Active; 'I' for Inactive)
REMARK    1  A    between atoms: C_2  and  C_12
REMARK    2  A    between atoms: N_3  and  C_4
REMARK    3  A    between atoms: N_15  and  S_16
REMARK    4  A    between atoms: S_16  and  C_19
REMARK                            x       y       z     vdW  Elec       q    Type
REMARK                         _______ _______ _______ _____ _____    ______ ____
ROOT
ATOM      1  C   UNL     1       7.457   6.326  17.788  0.00  0.00    +0.000 C 
ATOM      2  C   UNL     1       7.106   5.649  19.122  0.00  0.00    +0.000 C 
ATOM      3  C   UNL     1       5.649   5.183  19.167  0.00  0.00    +0.000 C 
ATOM      4  N   UNL     1       4.725   6.329  18.918  0.00  0.00    +0.000 NA
ATOM      5  C   UNL     1       5.015   7.027  17.628  0.00  0.00    +0.000 C 
ATOM      6  C   UNL     1       6.474   7.473  17.546  0.00  0.00    +0.000 C 
ENDROOT
BRANCH   1   8
ATOM      7  O   UNL     1       8.012   4.196  16.825  0.00  0.00    +0.000 OA
ATOM      8  C   UNL     1       7.485   5.293  16.658  0.00  0.00    +0.000 C 
ATOM      9  N   UNL     1       6.942   5.714  15.458  0.00  0.00    +0.000 N 
ATOM     10  H   UNL     1       6.830   6.712  15.297  0.00  0.00    +0.000 HD
BRANCH   9  11
ATOM     11  C   UNL     1       6.775   4.884  14.319  0.00  0.00    +0.000 A 
ATOM     12  C   UNL     1       7.659   4.890  13.235  0.00  0.00    +0.000 A 
ATOM     13  C   UNL     1       7.438   4.065  12.127  0.00  0.00    +0.000 A 
ATOM     14  C   UNL     1       6.335   3.217  12.100  0.00  0.00    +0.000 A 
ATOM     15 CL   UNL     1       6.071   2.215  10.729  0.00  0.00    +0.000 Cl
ATOM     16  C   UNL     1       5.454   3.177  13.175  0.00  0.00    +0.000 A 
ATOM     17  C   UNL     1       5.686   4.002  14.276  0.00  0.00    +0.000 A 
ATOM     18  F   UNL     1       4.823   3.965  15.304  0.00  0.00    +0.000 F 
ENDBRANCH   9  11
ENDBRANCH   1   8
BRANCH   4  19
ATOM     19  S   UNL     1       3.050   5.889  19.018  0.00  0.00    +0.000 S 
ATOM     20  O   UNL     1       2.683   5.257  17.770  0.00  0.00    +0.000 OA
ATOM     21  O   UNL     1       2.857   5.211  20.283  0.00  0.00    +0.000 OA
BRANCH  19  22
ATOM     22  C   UNL     1       2.209   7.431  19.080  0.00  0.00    +0.000 A 
ATOM     23  C   UNL     1       2.031   8.221  17.947  0.00  0.00    +0.000 A 
ATOM     24  C   UNL     1       1.394   9.453  18.083  0.00  0.00    +0.000 A 
ATOM     25  C   UNL     1       0.959   9.833  19.345  0.00  0.00    +0.000 A 
ATOM     26  N   UNL     1       1.119   9.078  20.456  0.00  0.00    +0.000 NA
ATOM     27  C   UNL     1       1.754   7.890  20.303  0.00  0.00    +0.000 A 
ENDBRANCH  19  22
ENDBRANCH   4  19
TORSDOF 4
ENDMDL
MODEL 3
REMARK VINA RESULT:      -7.9      2.035      3.012
REMARK  Name = 
REMARK  4 active torsions:
REMARK  status: ('A' for Active; 'I' for Inactive)
REMARK    1  A    between atoms: C_2  and  C_12
REMARK    2  A    between atoms: N_3  and  C_4
REMARK    3  A    between atoms: N_15  and  S_16
REMARK    4  A    between atoms: S_16  and  C_19
REMARK                            x       y       z     vdW  Elec       q    Type
REMARK                         _______ _______ _______ _____ _____    ______ ____
ROOT
ATOM      1  C   UNL     1       7.370   6.358  17.625  0.00  0.00    +0.000 C 
ATOM      2  C   UNL     1       7.009   5.757  18.992  0.00  0.00    +0.000 C 
ATOM      3  C   UNL     1       5.538   5.345  19.071  0.00  0.00    +0.000 C 
ATOM      4  N   UNL     1       4.651   6.509  18.777  0.00  0.00    +0.000 NA
ATOM      5  C   UNL     1       4.953   7.136  17.453  0.00  0.00    +0.000 C 
ATOM      6  C   UNL     1       6.425   7.527  17.338  0.00  0.00    +0.000 C 
ENDROOT
BRANCH   1   8
ATOM      7  O   UNL     1       7.840   4.168  16.758  0.00  0.00    +0.000 OA
ATOM      8  C   UNL     1       7.351   5.273  16.544  0.00  0.00    +0.000 C 
ATOM      9  N   UNL     1       6.812   5.657  15.330  0.00  0.00    +0.000 N 
ATOM     10  H   UNL     1       6.734   6.651  15.123  0.00  0.00    +0.000 HD
BRANCH   9  11
ATOM     11  C   UNL     1       6.605   4.782  14.232  0.00  0.00    +0.000 A 
ATOM     12  C   UNL     1       5.542   3.875  14.170  0.00  0.00    +0.000 A 
ATOM     13  C   UNL     1       5.394   3.020  13.073  0.00  0.00    +0.000 A 
ATOM     14  C   UNL     1       6.305   3.074  12.021  0.00  0.00    +0.000 A 
ATOM     15 CL   UNL     1       6.116   2.012  10.682  0.00  0.00    +0.000 Cl
ATOM     16  C   UNL     1       7.357   3.983  12.050  0.00  0.00    +0.000 A 
ATOM     17  C   UNL     1       7.493   4.832  13.148  0.00  0.00    +0.000 A 
ATOM     18  F   UNL     1       8.519   5.698  13.173  0.00  0.00    +0.000 F 
ENDBRANCH   9  11
ENDBRANCH   1   8
BRANCH   4  19
ATOM     19  S   UNL     1       2.963   6.133  18.911  0.00  0.00    +0.000 S 
ATOM     20  O   UNL     1       2.556   6.405  20.271  0.00  0.00    +0.000 OA
ATOM     21  O   UNL     1       2.291   6.761  17.792  0.00  0.00    +0.000 OA
BRANCH  19  22
ATOM     22  C   UNL     1       2.897   4.391  18.692  0.00  0.00    +0.000 A 
ATOM     23  C   UNL     1       2.954   3.802  17.431  0.00  0.00    +0.000 A 
ATOM     24  C   UNL     1       2.849   2.417  17.333  0.00  0.00    +0.000 A 
ATOM     25  C   UNL     1       2.700   1.684  18.502  0.00  0.00    +0.000 A 
ATOM     26  N   UNL     1       2.646   2.237  19.736  0.00  0.00    +0.000 NA
ATOM     27  C   UNL     1       2.735   3.587  19.806  0.00  0.00    +0.000 A 
ENDBRANCH  19  22
ENDBRANCH   4  19
TORSDOF 4
ENDMDL
MODEL 4
REMARK VINA RESULT:      -7.7      2.251      3.238
REMARK  Name = 
REMARK  4 active torsions:
REMARK  status: ('A' for Active; 'I' for Inactive)
REMARK    1  A    between atoms: C_2  and  C_12
REMARK    2  A    between atoms: N_3  and  C_4
REMARK    3  A    between atoms: N_15  and  S_16
REMARK    4  A    between atoms: S_16  and  C_19
REMARK                            x       y       z     vdW  Elec       q    Type
REMARK                         _______ _______ _______ _____ _____    ______ ____
ROOT
ATOM      1  C   UNL     1       7.452   6.297  17.856  0.00  0.00    +0.000 C 
ATOM      2  C   UNL     1       6.971   5.653  19.166  0.00  0.00    +0.000 C 
ATOM      3  C   UNL     1       5.477   5.323  19.133  0.00  0.00    +0.000 C 
ATOM      4  N   UNL     1       4.676   6.548  18.843  0.00  0.00    +0.000 NA
ATOM      5  C   UNL     1       5.096   7.219  17.574  0.00  0.00    +0.000 C 
ATOM      6  C   UNL     1       6.592   7.530  17.571  0.00  0.00    +0.000 C 
ENDROOT
BRANCH   1   8
ATOM      7  O   UNL     1       7.916   4.147  16.892  0.00  0.00    +0.000 OA
ATOM      8  C   UNL     1       7.444   5.267  16.722  0.00  0.00    +0.000 C 
ATOM      9  N   UNL     1       6.937   5.718  15.518  0.00  0.00    +0.000 N 
ATOM     10  H   UNL     1       6.875   6.721  15.359  0.00  0.00    +0.000 HD
BRANCH   9  11
ATOM     11  C   UNL     1       6.744   4.901  14.374  0.00  0.00    +0.000 A 
ATOM     12  C   UNL     1       7.630   4.884  13.291  0.00  0.00    +0.000 A 
ATOM     13  C   UNL     1       7.384   4.073  12.178  0.00  0.00    +0.000 A 
ATOM     14  C   UNL     1       6.253   3.262  12.144  0.00  0.00    +0.000 A 
ATOM     15 CL   UNL     1       5.958   2.277  10.766  0.00  0.00    +0.000 Cl
ATOM     16  C   UNL     1       5.369   3.246  13.218  0.00  0.00    +0.000 A 
ATOM     17  C   UNL     1       5.626   4.056  14.324  0.00  0.00    +0.000 A 
ATOM     18  F   UNL     1       4.762   4.042  15.350  0.00  0.00    +0.000 F 
ENDBRANCH   9  11
ENDBRANCH   1   8
BRANCH   4  19
ATOM     19  S   UNL     1       2.965   6.264  18.853  0.00  0.00    +0.000 S 
ATOM     20  O   UNL     1       2.454   6.687  20.137  0.00  0.00    +0.000 OA
ATOM     21  O   UNL     1       2.431   6.807  17.621  0.00  0.00    +0.000 OA
BRANCH  19  22
ATOM     22  C   UNL     1       2.825   4.513  18.795  0.00  0.00    +0.000 A 
ATOM     23  C   UNL     1       2.676   3.824  17.594  0.00  0.00    +0.000 A 
ATOM     24  C   UNL     1       2.525   2.439  17.631  0.00  0.00    +0.000 A 
ATOM     25  C   UNL     1       2.538   1.809  18.867  0.00  0.00    +0.000 A 
ATOM     26  N   UNL     1       2.685   2.460  20.043  0.00  0.00    +0.000 NA
ATOM     27  C   UNL     1       2.816   3.808  19.985  0.00  0.00    +0.000 A 
ENDBRANCH  19  22
ENDBRANCH   4  19
TORSDOF 4
ENDMDL
MODEL 5
REMARK VINA RESULT:      -7.5      3.819      7.906
REMARK  Name = 
REMARK  4 active torsions:
REMARK  status: ('A' for Active; 'I' for Inactive)
REMARK    1  A    between atoms: C_2  and  C_12
REMARK    2  A    between atoms: N_3  and  C_4
REMARK    3  A    between atoms: N_15  and  S_16
REMARK    4  A    between atoms: S_16  and  C_19
REMARK                            x       y       z     vdW  Elec       q    Type
REMARK                         _______ _______ _______ _____ _____    ______ ____
ROOT
ATOM      1  C   UNL     1       3.652   3.641  18.933  0.00  0.00    +0.000 C 
ATOM      2  C   UNL     1       5.047   4.148  19.332  0.00  0.00    +0.000 C 
ATOM      3  C   UNL     1       5.563   5.229  18.380  0.00  0.00    +0.000 C 
ATOM      4  N   UNL     1       5.588   4.723  16.977  0.00  0.00    +0.000 NA
ATOM      5  C   UNL     1       4.253   4.218  16.528  0.00  0.00    +0.000 C 
ATOM      6  C   UNL     1       3.702   3.160  17.482  0.00  0.00    +0.000 C 
ENDROOT
BRANCH   1   8
ATOM      7  O   UNL     1       1.408   4.438  19.244  0.00  0.00    +0.000 OA
ATOM      8  C   UNL     1       2.600   4.725  19.184  0.00  0.00    +0.000 C 
ATOM      9  N   UNL     1       3.089   6.016  19.269  0.00  0.00    +0.000 N 
ATOM     10  H   UNL     1       4.012   6.214  18.890  0.00  0.00    +0.000 HD
BRANCH   9  11
ATOM     11  C   UNL     1       2.302   7.150  19.598  0.00  0.00    +0.000 A 
ATOM     12  C   UNL     1       1.715   7.332  20.854  0.00  0.00    +0.000 A 
ATOM     13  C   UNL     1       0.932   8.461  21.121  0.00  0.00    +0.000 A 
ATOM     14  C   UNL     1       0.740   9.424  20.134  0.00  0.00    +0.000 A 
ATOM     15 CL   UNL     1      -0.231  10.802  20.472  0.00  0.00    +0.000 Cl
ATOM     16  C   UNL     1       1.332   9.275  18.884  0.00  0.00    +0.000 A 
ATOM     17  C   UNL     1       2.113   8.147  18.631  0.00  0.00    +0.000 A 
ATOM     18  F   UNL     1       2.670   8.007  17.418  0.00  0.00    +0.000 F 
ENDBRANCH   9  11
ENDBRANCH   1   8
BRANCH   4  19
ATOM     19  S   UNL     1       6.223   5.875  15.846  0.00  0.00    +0.000 S 
ATOM     20  O   UNL     1       5.218   6.892  15.639  0.00  0.00    +0.000 OA
ATOM     21  O   UNL     1       7.557   6.223  16.289  0.00  0.00    +0.000 OA
BRANCH  19  22
ATOM     22  C   UNL     1       6.356   4.969  14.346  0.00  0.00    +0.000 A 
ATOM     23  C   UNL     1       5.393   4.041  13.956  0.00  0.00    +0.000 A 
ATOM     24  C   UNL     1       5.589   3.328  12.776  0.00  0.00    +0.000 A 
ATOM     25  C   UNL     1       6.736   3.581  12.037  0.00  0.00    +0.000 A 
ATOM     26  N   UNL     1       7.680   4.481  12.397  0.00  0.00    +0.000 NA
ATOM     27  C   UNL     1       7.476   5.153  13.555  0.00  0.00    +0.000 A 
ENDBRANCH  19  22
ENDBRANCH   4  19
TORSDOF 4
ENDMDL
MODEL 6
REMARK VINA RESULT:      -7.4      2.035      2.843
REMARK  Name = 
REMARK  4 active torsions:
REMARK  status: ('A' for Active; 'I' for Inactive)
REMARK    1  A    between atoms: C_2  and  C_12
REMARK    2  A    between atoms: N_3  and  C_4
REMARK    3  A    between atoms: N_15  and  S_16
REMARK    4  A    between atoms: S_16  and  C_19
REMARK                            x       y       z     vdW  Elec       q    Type
REMARK                         _______ _______ _______ _____ _____    ______ ____
ROOT
ATOM      1  C   UNL     1       7.275   6.236  17.862  0.00  0.00    +0.000 C 
ATOM      2  C   UNL     1       6.807   5.571  19.165  0.00  0.00    +0.000 C 
ATOM      3  C   UNL     1       5.321   5.208  19.127  0.00  0.00    +0.000 C 
ATOM      4  N   UNL     1       4.493   6.418  18.846  0.00  0.00    +0.000 NA
ATOM      5  C   UNL     1       4.900   7.108  17.584  0.00  0.00    +0.000 C 
ATOM      6  C   UNL     1       6.389   7.452  17.586  0.00  0.00    +0.000 C 
ENDROOT
BRANCH   1   8
ATOM      7  O   UNL     1       7.877   4.144  16.847  0.00  0.00    +0.000 OA
ATOM      8  C   UNL     1       7.292   5.216  16.720  0.00  0.00    +0.000 C 
ATOM      9  N   UNL     1       6.669   5.623  15.554  0.00  0.00    +0.000 N 
ATOM     10  H   UNL     1       6.504   6.617  15.411  0.00  0.00    +0.000 HD
BRANCH   9  11
ATOM     11  C   UNL     1       6.482   4.797  14.416  0.00  0.00    +0.000 A 
ATOM     12  C   UNL     1       5.385   3.943  14.266  0.00  0.00    +0.000 A 
ATOM     13  C   UNL     1       5.257   3.135  13.131  0.00  0.00    +0.000 A 
ATOM     14  C   UNL     1       6.223   3.183  12.130  0.00  0.00    +0.000 A 
ATOM     15 CL   UNL     1       6.059   2.178  10.745  0.00  0.00    +0.000 Cl
ATOM     16  C   UNL     1       7.313   4.040  12.247  0.00  0.00    +0.000 A 
ATOM     17  C   UNL     1       7.428   4.843  13.382  0.00  0.00    +0.000 A 
ATOM     18  F   UNL     1       8.489   5.659  13.491  0.00  0.00    +0.000 F 
ENDBRANCH   9  11
ENDBRANCH   1   8
BRANCH   4  19
ATOM     19  S   UNL     1       2.789   6.096  18.850  0.00  0.00    +0.000 S 
ATOM     20  O   UNL     1       2.144   7.137  19.618  0.00  0.00    +0.000 OA
ATOM     21  O   UNL     1       2.397   5.827  17.482  0.00  0.00    +0.000 OA
BRANCH  19  22
ATOM     22  C   UNL     1       2.640   4.608  19.774  0.00  0.00    +0.000 A 
ATOM     23  C   UNL     1       2.676   3.355  19.166  0.00  0.00    +0.000 A 
ATOM     24  C   UNL     1       2.505   2.222  19.958  0.00  0.00    +0.000 A 
ATOM     25  C   UNL     1       2.314   2.395  21.321  0.00  0.00    +0.000 A 
ATOM     26  N   UNL     1       2.279   3.602  21.930  0.00  0.00    +0.000 NA
ATOM     27  C   UNL     1       2.433   4.692  21.139  0.00  0.00    +0.000 A 
ENDBRANCH  19  22
ENDBRANCH   4  19
TORSDOF 4
ENDMDL
MODEL 7
REMARK VINA RESULT:      -7.4      2.230      3.229
REMARK  Name = 
REMARK  4 active torsions:
REMARK  status: ('A' for Active; 'I' for Inactive)
REMARK    1  A    between atoms: C_2  and  C_12
REMARK    2  A    between atoms: N_3  and  C_4
REMARK    3  A    between atoms: N_15  and  S_16
REMARK    4  A    between atoms: S_16  and  C_19
REMARK                            x       y       z     vdW  Elec       q    Type
REMARK                         _______ _______ _______ _____ _____    ______ ____
ROOT
ATOM      1  C   UNL     1       7.355   6.228  17.994  0.00  0.00    +0.000 C 
ATOM      2  C   UNL     1       6.808   5.543  19.256  0.00  0.00    +0.000 C 
ATOM      3  C   UNL     1       5.314   5.231  19.143  0.00  0.00    +0.000 C 
ATOM      4  N   UNL     1       4.540   6.475  18.862  0.00  0.00    +0.000 NA
ATOM      5  C   UNL     1       5.024   7.186  17.639  0.00  0.00    +0.000 C 
ATOM      6  C   UNL     1       6.522   7.480  17.716  0.00  0.00    +0.000 C 
ENDROOT
BRANCH   1   8
ATOM      7  O   UNL     1       7.964   4.160  16.934  0.00  0.00    +0.000 OA
ATOM      8  C   UNL     1       7.390   5.240  16.824  0.00  0.00    +0.000 C 
ATOM      9  N   UNL     1       6.795   5.684  15.658  0.00  0.00    +0.000 N 
ATOM     10  H   UNL     1       6.640   6.682  15.539  0.00  0.00    +0.000 HD
BRANCH   9  11
ATOM     11  C   UNL     1       6.627   4.891  14.493  0.00  0.00    +0.000 A 
ATOM     12  C   UNL     1       7.532   4.904  13.426  0.00  0.00    +0.000 A 
ATOM     13  C   UNL     1       7.309   4.117  12.291  0.00  0.00    +0.000 A 
ATOM     14  C   UNL     1       6.184   3.301  12.219  0.00  0.00    +0.000 A 
ATOM     15 CL   UNL     1       5.918   2.346  10.814  0.00  0.00    +0.000 Cl
ATOM     16  C   UNL     1       5.281   3.256  13.276  0.00  0.00    +0.000 A 
ATOM     17  C   UNL     1       5.515   4.042  14.404  0.00  0.00    +0.000 A 
ATOM     18  F   UNL     1       4.633   4.001  15.415  0.00  0.00    +0.000 F 
ENDBRANCH   9  11
ENDBRANCH   1   8
BRANCH   4  19
ATOM     19  S   UNL     1       2.827   6.210  18.783  0.00  0.00    +0.000 S 
ATOM     20  O   UNL     1       2.181   7.271  19.521  0.00  0.00    +0.000 OA
ATOM     21  O   UNL     1       2.494   5.955  17.396  0.00  0.00    +0.000 OA
BRANCH  19  22
ATOM     22  C   UNL     1       2.584   4.727  19.695  0.00  0.00    +0.000 A 
ATOM     23  C   UNL     1       2.331   4.736  21.064  0.00  0.00    +0.000 A 
ATOM     24  C   UNL     1       2.195   3.518  21.727  0.00  0.00    +0.000 A 
ATOM     25  C   UNL     1       2.310   2.350  20.988  0.00  0.00    +0.000 A 
ATOM     26  N   UNL     1       2.552   2.321  19.657  0.00  0.00    +0.000 NA
ATOM     27  C   UNL     1       2.695   3.517  19.035  0.00  0.00    +0.000 A 
ENDBRANCH  19  22
ENDBRANCH   4  19
TORSDOF 4
ENDMDL
MODEL 8
REMARK VINA RESULT:      -7.1      6.534      9.565
REMARK  Name = 
REMARK  4 active torsions:
REMARK  status: ('A' for Active; 'I' for Inactive)
REMARK    1  A    between atoms: C_2  and  C_12
REMARK    2  A    between atoms: N_3  and  C_4
REMARK    3  A    between atoms: N_15  and  S_16
REMARK    4  A    between atoms: S_16  and  C_19
REMARK                            x       y       z     vdW  Elec       q    Type
REMARK                         _______ _______ _______ _____ _____    ______ ____
ROOT
ATOM      1  C   UNL     1      -0.244  12.924  18.694  0.00  0.00    +0.000 C 
ATOM      2  C   UNL     1       0.157  14.148  19.533  0.00  0.00    +0.000 C 
ATOM      3  C   UNL     1       0.066  13.874  21.035  0.00  0.00    +0.000 C 
ATOM      4  N   UNL     1      -1.311  13.432  21.404  0.00  0.00    +0.000 NA
ATOM      5  C   UNL     1      -1.757  12.238  20.623  0.00  0.00    +0.000 C 
ATOM      6  C   UNL     1      -1.645  12.478  19.118  0.00  0.00    +0.000 C 
ENDROOT
BRANCH   1   8
ATOM      7  O   UNL     1       1.993  12.110  19.010  0.00  0.00    +0.000 OA
ATOM      8  C   UNL     1       0.815  11.825  18.817  0.00  0.00    +0.000 C 
ATOM      9  N   UNL     1       0.352  10.535  18.633  0.00  0.00    +0.000 N 
ATOM     10  H   UNL     1      -0.540  10.399  18.162  0.00  0.00    +0.000 HD
BRANCH   9  11
ATOM     11  C   UNL     1       1.141   9.369  18.804  0.00  0.00    +0.000 A 
ATOM     12  C   UNL     1       1.895   8.799  17.772  0.00  0.00    +0.000 A 
ATOM     13  C   UNL     1       2.642   7.637  17.988  0.00  0.00    +0.000 A 
ATOM     14  C   UNL     1       2.651   7.039  19.246  0.00  0.00    +0.000 A 
ATOM     15 CL   UNL     1       3.566   5.606  19.496  0.00  0.00    +0.000 Cl
ATOM     16  C   UNL     1       1.927   7.599  20.293  0.00  0.00    +0.000 A 
ATOM     17  C   UNL     1       1.188   8.760  20.066  0.00  0.00    +0.000 A 
ATOM     18  F   UNL     1       0.484   9.286  21.081  0.00  0.00    +0.000 F 
ENDBRANCH   9  11
ENDBRANCH   1   8
BRANCH   4  19
ATOM     19  S   UNL     1      -1.509  13.164  23.107  0.00  0.00    +0.000 S 
ATOM     20  O   UNL     1      -1.095  11.808  23.391  0.00  0.00    +0.000 OA
ATOM     21  O   UNL     1      -0.906  14.288  23.794  0.00  0.00    +0.000 OA
BRANCH  19  22
ATOM     22  C   UNL     1      -3.248  13.232  23.349  0.00  0.00    +0.000 A 
ATOM     23  C   UNL     1      -4.036  14.224  22.770  0.00  0.00    +0.000 A 
ATOM     24  C   UNL     1      -5.401  14.240  23.045  0.00  0.00    +0.000 A 
ATOM     25  C   UNL     1      -5.916  13.259  23.880  0.00  0.00    +0.000 A 
ATOM     26  N   UNL     1      -5.168  12.285  24.448  0.00  0.00    +0.000 NA
ATOM     27  C   UNL     1      -3.840  12.297  24.179  0.00  0.00    +0.000 A 
ENDBRANCH  19  22
ENDBRANCH   4  19
TORSDOF 4
ENDMDL
MODEL 9
REMARK VINA RESULT:      -7.0      4.006      7.839
REMARK  Name = 
REMARK  4 active torsions:
REMARK  status: ('A' for Active; 'I' for Inactive)
REMARK    1  A    between atoms: C_2  and  C_12
REMARK    2  A    between atoms: N_3  and  C_4
REMARK    3  A    between atoms: N_15  and  S_16
REMARK    4  A    between atoms: S_16  and  C_19
REMARK                            x       y       z     vdW  Elec       q    Type
REMARK                         _______ _______ _______ _____ _____    ______ ____
ROOT
ATOM      1  C   UNL     1       2.913   3.783  18.689  0.00  0.00    +0.000 C 
ATOM      2  C   UNL     1       4.050   3.972  19.706  0.00  0.00    +0.000 C 
ATOM      3  C   UNL     1       5.226   4.755  19.118  0.00  0.00    +0.000 C 
ATOM      4  N   UNL     1       5.745   4.078  17.893  0.00  0.00    +0.000 NA
ATOM      5  C   UNL     1       4.683   3.870  16.862  0.00  0.00    +0.000 C 
ATOM      6  C   UNL     1       3.483   3.118  17.435  0.00  0.00    +0.000 C 
ENDROOT
BRANCH   1   8
ATOM      7  O   UNL     1       1.273   5.183  17.632  0.00  0.00    +0.000 OA
ATOM      8  C   UNL     1       2.218   5.119  18.414  0.00  0.00    +0.000 C 
ATOM      9  N   UNL     1       2.770   6.216  19.049  0.00  0.00    +0.000 N 
ATOM     10  H   UNL     1       3.721   6.146  19.405  0.00  0.00    +0.000 HD
BRANCH   9  11
ATOM     11  C   UNL     1       2.221   7.524  19.012  0.00  0.00    +0.000 A 
ATOM     12  C   UNL     1       2.312   8.357  17.893  0.00  0.00    +0.000 A 
ATOM     13  C   UNL     1       1.770   9.647  17.915  0.00  0.00    +0.000 A 
ATOM     14  C   UNL     1       1.121  10.109  19.056  0.00  0.00    +0.000 A 
ATOM     15 CL   UNL     1       0.467  11.699  19.073  0.00  0.00    +0.000 Cl
ATOM     16  C   UNL     1       0.999   9.291  20.174  0.00  0.00    +0.000 A 
ATOM     17  C   UNL     1       1.541   8.006  20.139  0.00  0.00    +0.000 A 
ATOM     18  F   UNL     1       1.428   7.228  21.227  0.00  0.00    +0.000 F 
ENDBRANCH   9  11
ENDBRANCH   1   8
BRANCH   4  19
ATOM     19  S   UNL     1       7.124   4.875  17.205  0.00  0.00    +0.000 S 
ATOM     20  O   UNL     1       6.988   6.292  17.458  0.00  0.00    +0.000 OA
ATOM     21  O   UNL     1       8.301   4.150  17.638  0.00  0.00    +0.000 OA
BRANCH  19  22
ATOM     22  C   UNL     1       6.931   4.640  15.475  0.00  0.00    +0.000 A 
ATOM     23  C   UNL     1       6.141   3.620  14.951  0.00  0.00    +0.000 A 
ATOM     24  C   UNL     1       6.073   3.468  13.568  0.00  0.00    +0.000 A 
ATOM     25  C   UNL     1       6.793   4.348  12.774  0.00  0.00    +0.000 A 
ATOM     26  N   UNL     1       7.563   5.347  13.262  0.00  0.00    +0.000 NA
ATOM     27  C   UNL     1       7.626   5.467  14.611  0.00  0.00    +0.000 A 
ENDBRANCH  19  22
ENDBRANCH   4  19
TORSDOF 4
ENDMDL
