MODEL 1
REMARK VINA RESULT:      -8.2      0.000      0.000
REMARK  Name = 
REMARK  8 active torsions:
REMARK  status: ('A' for Active; 'I' for Inactive)
REMARK    1  A    between atoms: O_1  and  C_2
REMARK    2  A    between atoms: C_2  and  C_3
REMARK    3  A    between atoms: C_2  and  C_24
REMARK    4  A    between atoms: C_3  and  N_4
REMARK    5  A    between atoms: C_7  and  C_8
REMARK    6  A    between atoms: C_11  and  O_12
REMARK    7  A    between atoms: O_12  and  C_13
REMARK    8  A    between atoms: C_13  and  C_14
REMARK                            x       y       z     vdW  Elec       q    Type
REMARK                         _______ _______ _______ _____ _____    ______ ____
ROOT
ATOM      1  N   UNL     1       0.710  10.276  17.948  0.00  0.00    +0.000 N 
ATOM      2  C   UNL     1       1.343   9.168  18.558  0.00  0.00    +0.000 A 
ATOM      3  C   UNL     1       2.233   8.434  17.800  0.00  0.00    +0.000 A 
ATOM      4  C   UNL     1       2.827   7.337  18.403  0.00  0.00    +0.000 A 
ATOM      5  N   UNL     1       2.637   7.064  19.710  0.00  0.00    +0.000 NA
ATOM      6  C   UNL     1       1.796   7.867  20.369  0.00  0.00    +0.000 A 
ATOM      7  N   UNL     1       1.124   8.899  19.849  0.00  0.00    +0.000 NA
ATOM      8  H   UNL     1       1.381  11.041  18.017  0.00  0.00    +0.000 HD
ENDROOT
BRANCH   4   9
ATOM      9  C   UNL     1       3.647   6.355  17.662  0.00  0.00    +0.000 A 
ATOM     10  C   UNL     1       4.634   6.764  16.745  0.00  0.00    +0.000 A 
ATOM     11  C   UNL     1       5.364   5.835  15.997  0.00  0.00    +0.000 A 
ATOM     12  C   UNL     1       5.140   4.472  16.154  0.00  0.00    +0.000 A 
ATOM     13  C   UNL     1       4.158   4.047  17.049  0.00  0.00    +0.000 A 
ATOM     14  F   UNL     1       3.876   2.745  17.196  0.00  0.00    +0.000 F 
ATOM     15  C   UNL     1       3.425   4.973  17.794  0.00  0.00    +0.000 A 
BRANCH  12  16
ATOM     16  O   UNL     1       5.909   3.676  15.354  0.00  0.00    +0.000 OA
BRANCH  16  17
ATOM     17  C   UNL     1       6.577   4.318  14.261  0.00  0.00    +0.000 C 
BRANCH  17  18
ATOM     18  C   UNL     1       6.074   3.762  12.931  0.00  0.00    +0.000 C 
ATOM     19  F   UNL     1       4.737   3.897  12.778  0.00  0.00    +0.000 F 
ATOM     20  F   UNL     1       6.662   4.402  11.891  0.00  0.00    +0.000 F 
ATOM     21  F   UNL     1       6.364   2.447  12.809  0.00  0.00    +0.000 F 
ENDBRANCH  17  18
ENDBRANCH  16  17
ENDBRANCH  12  16
ENDBRANCH   4   9
BRANCH   1  22
ATOM     22  C   UNL     1      -0.552  10.633  18.630  0.00  0.00    +0.000 C 
BRANCH  22  23
ATOM     23  C   UNL     1      -0.393  11.960  19.404  0.00  0.00    +0.000 C 
BRANCH  23  24
ATOM     24  C   UNL     1      -1.172  11.971  20.702  0.00  0.00    +0.000 A 
ATOM     25  C   UNL     1      -2.429  12.592  20.769  0.00  0.00    +0.000 A 
ATOM     26  C   UNL     1      -3.138  12.632  21.972  0.00  0.00    +0.000 A 
ATOM     27  C   UNL     1      -2.605  12.047  23.119  0.00  0.00    +0.000 A 
ATOM     28  C   UNL     1      -1.365  11.417  23.064  0.00  0.00    +0.000 A 
ATOM     29  C   UNL     1      -0.652  11.381  21.865  0.00  0.00    +0.000 A 
ENDBRANCH  23  24
BRANCH  23  30
ATOM     30  O   UNL     1       0.990  12.176  19.713  0.00  0.00    +0.000 OA
ATOM     31  H   UNL     1       1.335  11.315  19.997  0.00  0.00    +0.000 HD
ENDBRANCH  23  30
ENDBRANCH  22  23
ENDBRANCH   1  22
TORSDOF 8
ENDMDL
MODEL 2
REMARK VINA RESULT:      -8.1      0.431      1.209
REMARK  Name = 
REMARK  8 active torsions:
REMARK  status: ('A' for Active; 'I' for Inactive)
REMARK    1  A    between atoms: O_1  and  C_2
REMARK    2  A    between atoms: C_2  and  C_3
REMARK    3  A    between atoms: C_2  and  C_24
REMARK    4  A    between atoms: C_3  and  N_4
REMARK    5  A    between atoms: C_7  and  C_8
REMARK    6  A    between atoms: C_11  and  O_12
REMARK    7  A    between atoms: O_12  and  C_13
REMARK    8  A    between atoms: C_13  and  C_14
REMARK                            x       y       z     vdW  Elec       q    Type
REMARK                         _______ _______ _______ _____ _____    ______ ____
ROOT
ATOM      1  N   UNL     1       1.112  10.294  18.049  0.00  0.00    +0.000 N 
ATOM      2  C   UNL     1       1.617   9.086  18.585  0.00  0.00    +0.000 A 
ATOM      3  C   UNL     1       2.504   8.359  17.818  0.00  0.00    +0.000 A 
ATOM      4  C   UNL     1       2.971   7.166  18.344  0.00  0.00    +0.000 A 
ATOM      5  N   UNL     1       2.666   6.785  19.602  0.00  0.00    +0.000 NA
ATOM      6  C   UNL     1       1.839   7.587  20.282  0.00  0.00    +0.000 A 
ATOM      7  N   UNL     1       1.283   8.713  19.826  0.00  0.00    +0.000 NA
ATOM      8  H   UNL     1       1.830  10.993  18.239  0.00  0.00    +0.000 HD
ENDROOT
BRANCH   4   9
ATOM      9  C   UNL     1       3.769   6.197  17.565  0.00  0.00    +0.000 A 
ATOM     10  C   UNL     1       4.655   6.618  16.556  0.00  0.00    +0.000 A 
ATOM     11  C   UNL     1       5.361   5.698  15.775  0.00  0.00    +0.000 A 
ATOM     12  C   UNL     1       5.213   4.332  15.988  0.00  0.00    +0.000 A 
ATOM     13  C   UNL     1       4.330   3.894  16.975  0.00  0.00    +0.000 A 
ATOM     14  F   UNL     1       4.121   2.586  17.182  0.00  0.00    +0.000 F 
ATOM     15  C   UNL     1       3.621   4.811  17.754  0.00  0.00    +0.000 A 
BRANCH  12  16
ATOM     16  O   UNL     1       5.947   3.545  15.148  0.00  0.00    +0.000 OA
BRANCH  16  17
ATOM     17  C   UNL     1       6.572   4.199  14.037  0.00  0.00    +0.000 C 
BRANCH  17  18
ATOM     18  C   UNL     1       6.049   3.627  12.721  0.00  0.00    +0.000 C 
ATOM     19  F   UNL     1       6.193   2.285  12.638  0.00  0.00    +0.000 F 
ATOM     20  F   UNL     1       4.729   3.897  12.573  0.00  0.00    +0.000 F 
ATOM     21  F   UNL     1       6.691   4.169  11.662  0.00  0.00    +0.000 F 
ENDBRANCH  17  18
ENDBRANCH  16  17
ENDBRANCH  12  16
ENDBRANCH   4   9
BRANCH   1  22
ATOM     22  C   UNL     1      -0.168  10.684  18.679  0.00  0.00    +0.000 C 
BRANCH  22  23
ATOM     23  C   UNL     1       0.030  11.915  19.591  0.00  0.00    +0.000 C 
BRANCH  23  24
ATOM     24  C   UNL     1      -1.152  12.157  20.504  0.00  0.00    +0.000 A 
ATOM     25  C   UNL     1      -1.042  11.926  21.883  0.00  0.00    +0.000 A 
ATOM     26  C   UNL     1      -2.139  12.118  22.727  0.00  0.00    +0.000 A 
ATOM     27  C   UNL     1      -3.356  12.550  22.204  0.00  0.00    +0.000 A 
ATOM     28  C   UNL     1      -3.478  12.795  20.838  0.00  0.00    +0.000 A 
ATOM     29  C   UNL     1      -2.385  12.598  19.994  0.00  0.00    +0.000 A 
ENDBRANCH  23  24
BRANCH  23  30
ATOM     30  O   UNL     1       1.193  11.729  20.408  0.00  0.00    +0.000 OA
ATOM     31  H   UNL     1       1.859  12.345  20.066  0.00  0.00    +0.000 HD
ENDBRANCH  23  30
ENDBRANCH  22  23
ENDBRANCH   1  22
TORSDOF 8
ENDMDL
MODEL 3
REMARK VINA RESULT:      -8.1      1.325      2.201
REMARK  Name = 
REMARK  8 active torsions:
REMARK  status: ('A' for Active; 'I' for Inactive)
REMARK    1  A    between atoms: O_1  and  C_2
REMARK    2  A    between atoms: C_2  and  C_3
REMARK    3  A    between atoms: C_2  and  C_24
REMARK    4  A    between atoms: C_3  and  N_4
REMARK    5  A    between atoms: C_7  and  C_8
REMARK    6  A    between atoms: C_11  and  O_12
REMARK    7  A    between atoms: O_12  and  C_13
REMARK    8  A    between atoms: C_13  and  C_14
REMARK                            x       y       z     vdW  Elec       q    Type
REMARK                         _______ _______ _______ _____ _____    ______ ____
ROOT
ATOM      1  N   UNL     1       1.470   8.075  21.570  0.00  0.00    +0.000 N 
ATOM      2  C   UNL     1       1.783   8.166  20.194  0.00  0.00    +0.000 A 
ATOM      3  C   UNL     1       2.448   7.108  19.609  0.00  0.00    +0.000 A 
ATOM      4  C   UNL     1       2.769   7.222  18.267  0.00  0.00    +0.000 A 
ATOM      5  N   UNL     1       2.348   8.270  17.529  0.00  0.00    +0.000 NA
ATOM      6  C   UNL     1       1.665   9.218  18.179  0.00  0.00    +0.000 A 
ATOM      7  N   UNL     1       1.377   9.225  19.484  0.00  0.00    +0.000 NA
ATOM      8  H   UNL     1       0.612   7.526  21.615  0.00  0.00    +0.000 HD
ENDROOT
BRANCH   4   9
ATOM      9  C   UNL     1       3.641   6.259  17.560  0.00  0.00    +0.000 A 
ATOM     10  C   UNL     1       4.723   6.690  16.771  0.00  0.00    +0.000 A 
ATOM     11  C   UNL     1       5.507   5.783  16.051  0.00  0.00    +0.000 A 
ATOM     12  C   UNL     1       5.242   4.419  16.110  0.00  0.00    +0.000 A 
ATOM     13  C   UNL     1       4.166   3.974  16.878  0.00  0.00    +0.000 A 
ATOM     14  F   UNL     1       3.845   2.673  16.926  0.00  0.00    +0.000 F 
ATOM     15  C   UNL     1       3.379   4.878  17.595  0.00  0.00    +0.000 A 
BRANCH  12  16
ATOM     16  O   UNL     1       6.072   3.647  15.350  0.00  0.00    +0.000 OA
BRANCH  16  17
ATOM     17  C   UNL     1       6.697   4.286  14.231  0.00  0.00    +0.000 C 
BRANCH  17  18
ATOM     18  C   UNL     1       6.088   3.783  12.924  0.00  0.00    +0.000 C 
ATOM     19  F   UNL     1       6.717   4.271  11.830  0.00  0.00    +0.000 F 
ATOM     20  F   UNL     1       6.155   2.431  12.853  0.00  0.00    +0.000 F 
ATOM     21  F   UNL     1       4.784   4.126  12.827  0.00  0.00    +0.000 F 
ENDBRANCH  17  18
ENDBRANCH  16  17
ENDBRANCH  12  16
ENDBRANCH   4   9
BRANCH   1  22
ATOM     22  C   UNL     1       1.265   9.406  22.179  0.00  0.00    +0.000 C 
BRANCH  22  23
ATOM     23  C   UNL     1      -0.166   9.528  22.746  0.00  0.00    +0.000 C 
BRANCH  23  24
ATOM     24  C   UNL     1      -0.855  10.804  22.312  0.00  0.00    +0.000 A 
ATOM     25  C   UNL     1      -1.675  11.507  23.208  0.00  0.00    +0.000 A 
ATOM     26  C   UNL     1      -2.338  12.668  22.805  0.00  0.00    +0.000 A 
ATOM     27  C   UNL     1      -2.186  13.144  21.504  0.00  0.00    +0.000 A 
ATOM     28  C   UNL     1      -1.366  12.464  20.607  0.00  0.00    +0.000 A 
ATOM     29  C   UNL     1      -0.708  11.301  21.007  0.00  0.00    +0.000 A 
ENDBRANCH  23  24
BRANCH  23  30
ATOM     30  O   UNL     1      -0.958   8.419  22.299  0.00  0.00    +0.000 OA
ATOM     31  H   UNL     1      -1.857   8.589  22.623  0.00  0.00    +0.000 HD
ENDBRANCH  23  30
ENDBRANCH  22  23
ENDBRANCH   1  22
TORSDOF 8
ENDMDL
MODEL 4
REMARK VINA RESULT:      -8.0      3.310      4.651
REMARK  Name = 
REMARK  8 active torsions:
REMARK  status: ('A' for Active; 'I' for Inactive)
REMARK    1  A    between atoms: O_1  and  C_2
REMARK    2  A    between atoms: C_2  and  C_3
REMARK    3  A    between atoms: C_2  and  C_24
REMARK    4  A    between atoms: C_3  and  N_4
REMARK    5  A    between atoms: C_7  and  C_8
REMARK    6  A    between atoms: C_11  and  O_12
REMARK    7  A    between atoms: O_12  and  C_13
REMARK    8  A    between atoms: C_13  and  C_14
REMARK                            x       y       z     vdW  Elec       q    Type
REMARK                         _______ _______ _______ _____ _____    ______ ____
ROOT
ATOM      1  N   UNL     1      -1.021  11.240  17.487  0.00  0.00    +0.000 N 
ATOM      2  C   UNL     1      -0.402  10.552  18.556  0.00  0.00    +0.000 A 
ATOM      3  C   UNL     1       0.581   9.633  18.252  0.00  0.00    +0.000 A 
ATOM      4  C   UNL     1       1.162   8.949  19.307  0.00  0.00    +0.000 A 
ATOM      5  N   UNL     1       0.866   9.250  20.588  0.00  0.00    +0.000 NA
ATOM      6  C   UNL     1      -0.063  10.194  20.778  0.00  0.00    +0.000 A 
ATOM      7  N   UNL     1      -0.726  10.848  19.820  0.00  0.00    +0.000 NA
ATOM      8  H   UNL     1      -0.390  12.008  17.259  0.00  0.00    +0.000 HD
ENDROOT
BRANCH   4   9
ATOM      9  C   UNL     1       2.083   7.808  19.120  0.00  0.00    +0.000 A 
ATOM     10  C   UNL     1       2.880   7.689  17.967  0.00  0.00    +0.000 A 
ATOM     11  C   UNL     1       3.703   6.577  17.761  0.00  0.00    +0.000 A 
ATOM     12  C   UNL     1       3.764   5.560  18.708  0.00  0.00    +0.000 A 
ATOM     13  C   UNL     1       2.973   5.655  19.852  0.00  0.00    +0.000 A 
ATOM     14  F   UNL     1       2.965   4.675  20.767  0.00  0.00    +0.000 F 
ATOM     15  C   UNL     1       2.147   6.762  20.058  0.00  0.00    +0.000 A 
BRANCH  12  16
ATOM     16  O   UNL     1       4.594   4.527  18.377  0.00  0.00    +0.000 OA
BRANCH  16  17
ATOM     17  C   UNL     1       4.004   3.430  17.670  0.00  0.00    +0.000 C 
BRANCH  17  18
ATOM     18  C   UNL     1       3.713   2.277  18.628  0.00  0.00    +0.000 C 
ATOM     19  F   UNL     1       3.905   1.064  18.061  0.00  0.00    +0.000 F 
ATOM     20  F   UNL     1       4.520   2.342  19.715  0.00  0.00    +0.000 F 
ATOM     21  F   UNL     1       2.437   2.318  19.072  0.00  0.00    +0.000 F 
ENDBRANCH  17  18
ENDBRANCH  16  17
ENDBRANCH  12  16
ENDBRANCH   4   9
BRANCH   1  22
ATOM     22  C   UNL     1      -2.353  11.760  17.864  0.00  0.00    +0.000 C 
BRANCH  22  23
ATOM     23  C   UNL     1      -3.456  11.090  17.015  0.00  0.00    +0.000 C 
BRANCH  23  24
ATOM     24  C   UNL     1      -4.848  11.423  17.506  0.00  0.00    +0.000 A 
ATOM     25  C   UNL     1      -5.471  10.616  18.471  0.00  0.00    +0.000 A 
ATOM     26  C   UNL     1      -6.768  10.900  18.906  0.00  0.00    +0.000 A 
ATOM     27  C   UNL     1      -7.455  11.996  18.388  0.00  0.00    +0.000 A 
ATOM     28  C   UNL     1      -6.846  12.813  17.439  0.00  0.00    +0.000 A 
ATOM     29  C   UNL     1      -5.553  12.527  16.999  0.00  0.00    +0.000 A 
ENDBRANCH  23  24
BRANCH  23  30
ATOM     30  O   UNL     1      -3.349  11.526  15.653  0.00  0.00    +0.000 OA
ATOM     31  H   UNL     1      -2.758  12.295  15.667  0.00  0.00    +0.000 HD
ENDBRANCH  23  30
ENDBRANCH  22  23
ENDBRANCH   1  22
TORSDOF 8
ENDMDL
MODEL 5
REMARK VINA RESULT:      -8.0      3.330      4.180
REMARK  Name = 
REMARK  8 active torsions:
REMARK  status: ('A' for Active; 'I' for Inactive)
REMARK    1  A    between atoms: O_1  and  C_2
REMARK    2  A    between atoms: C_2  and  C_3
REMARK    3  A    between atoms: C_2  and  C_24
REMARK    4  A    between atoms: C_3  and  N_4
REMARK    5  A    between atoms: C_7  and  C_8
REMARK    6  A    between atoms: C_11  and  O_12
REMARK    7  A    between atoms: O_12  and  C_13
REMARK    8  A    between atoms: C_13  and  C_14
REMARK                            x       y       z     vdW  Elec       q    Type
REMARK                         _______ _______ _______ _____ _____    ______ ____
ROOT
ATOM      1  N   UNL     1      -1.199  11.191  17.730  0.00  0.00    +0.000 N 
ATOM      2  C   UNL     1      -0.439  10.506  18.707  0.00  0.00    +0.000 A 
ATOM      3  C   UNL     1       0.572   9.673  18.272  0.00  0.00    +0.000 A 
ATOM      4  C   UNL     1       1.293   8.990  19.238  0.00  0.00    +0.000 A 
ATOM      5  N   UNL     1       1.096   9.217  20.553  0.00  0.00    +0.000 NA
ATOM      6  C   UNL     1       0.127  10.082  20.870  0.00  0.00    +0.000 A 
ATOM      7  N   UNL     1      -0.664  10.726  20.007  0.00  0.00    +0.000 NA
ATOM      8  H   UNL     1      -0.645  12.011  17.484  0.00  0.00    +0.000 HD
ENDROOT
BRANCH   4   9
ATOM      9  C   UNL     1       2.268   7.927  18.917  0.00  0.00    +0.000 A 
ATOM     10  C   UNL     1       3.075   7.994  17.766  0.00  0.00    +0.000 A 
ATOM     11  C   UNL     1       3.952   6.958  17.428  0.00  0.00    +0.000 A 
ATOM     12  C   UNL     1       4.056   5.832  18.237  0.00  0.00    +0.000 A 
ATOM     13  C   UNL     1       3.256   5.741  19.375  0.00  0.00    +0.000 A 
ATOM     14  F   UNL     1       3.290   4.653  20.157  0.00  0.00    +0.000 F 
ATOM     15  C   UNL     1       2.377   6.773  19.713  0.00  0.00    +0.000 A 
BRANCH  12  16
ATOM     16  O   UNL     1       4.936   4.890  17.785  0.00  0.00    +0.000 OA
BRANCH  16  17
ATOM     17  C   UNL     1       6.147   4.731  18.533  0.00  0.00    +0.000 C 
BRANCH  17  18
ATOM     18  C   UNL     1       7.351   5.143  17.689  0.00  0.00    +0.000 C 
ATOM     19  F   UNL     1       7.012   5.488  16.426  0.00  0.00    +0.000 F 
ATOM     20  F   UNL     1       7.980   6.210  18.239  0.00  0.00    +0.000 F 
ATOM     21  F   UNL     1       8.256   4.142  17.606  0.00  0.00    +0.000 F 
ENDBRANCH  17  18
ENDBRANCH  16  17
ENDBRANCH  12  16
ENDBRANCH   4   9
BRANCH   1  22
ATOM     22  C   UNL     1      -2.523  11.598  18.248  0.00  0.00    +0.000 C 
BRANCH  22  23
ATOM     23  C   UNL     1      -3.641  11.176  17.270  0.00  0.00    +0.000 C 
BRANCH  23  24
ATOM     24  C   UNL     1      -5.006  11.662  17.705  0.00  0.00    +0.000 A 
ATOM     25  C   UNL     1      -5.753  12.514  16.877  0.00  0.00    +0.000 A 
ATOM     26  C   UNL     1      -7.001  12.990  17.287  0.00  0.00    +0.000 A 
ATOM     27  C   UNL     1      -7.521  12.615  18.524  0.00  0.00    +0.000 A 
ATOM     28  C   UNL     1      -6.797  11.760  19.351  0.00  0.00    +0.000 A 
ATOM     29  C   UNL     1      -5.548  11.288  18.946  0.00  0.00    +0.000 A 
ENDBRANCH  23  24
BRANCH  23  30
ATOM     30  O   UNL     1      -3.371  11.714  15.968  0.00  0.00    +0.000 OA
ATOM     31  H   UNL     1      -3.596  11.010  15.339  0.00  0.00    +0.000 HD
ENDBRANCH  23  30
ENDBRANCH  22  23
ENDBRANCH   1  22
TORSDOF 8
ENDMDL
MODEL 6
REMARK VINA RESULT:      -8.0      4.776     10.743
REMARK  Name = 
REMARK  8 active torsions:
REMARK  status: ('A' for Active; 'I' for Inactive)
REMARK    1  A    between atoms: O_1  and  C_2
REMARK    2  A    between atoms: C_2  and  C_3
REMARK    3  A    between atoms: C_2  and  C_24
REMARK    4  A    between atoms: C_3  and  N_4
REMARK    5  A    between atoms: C_7  and  C_8
REMARK    6  A    between atoms: C_11  and  O_12
REMARK    7  A    between atoms: O_12  and  C_13
REMARK    8  A    between atoms: C_13  and  C_14
REMARK                            x       y       z     vdW  Elec       q    Type
REMARK                         _______ _______ _______ _____ _____    ______ ____
ROOT
ATOM      1  N   UNL     1       4.543   5.458  16.722  0.00  0.00    +0.000 N 
ATOM      2  C   UNL     1       3.795   5.493  17.921  0.00  0.00    +0.000 A 
ATOM      3  C   UNL     1       3.119   6.656  18.229  0.00  0.00    +0.000 A 
ATOM      4  C   UNL     1       2.410   6.684  19.418  0.00  0.00    +0.000 A 
ATOM      5  N   UNL     1       2.285   5.584  20.189  0.00  0.00    +0.000 NA
ATOM      6  C   UNL     1       2.936   4.492  19.776  0.00  0.00    +0.000 A 
ATOM      7  N   UNL     1       3.702   4.398  18.685  0.00  0.00    +0.000 NA
ATOM      8  H   UNL     1       3.868   5.245  15.989  0.00  0.00    +0.000 HD
ENDROOT
BRANCH   4   9
ATOM      9  C   UNL     1       1.801   7.915  19.966  0.00  0.00    +0.000 A 
ATOM     10  C   UNL     1       1.456   8.022  21.326  0.00  0.00    +0.000 A 
ATOM     11  C   UNL     1       0.821   9.161  21.831  0.00  0.00    +0.000 A 
ATOM     12  C   UNL     1       0.524  10.231  20.994  0.00  0.00    +0.000 A 
ATOM     13  C   UNL     1       0.847  10.139  19.640  0.00  0.00    +0.000 A 
ATOM     14  F   UNL     1       0.535  11.127  18.789  0.00  0.00    +0.000 F 
ATOM     15  C   UNL     1       1.477   9.001  19.133  0.00  0.00    +0.000 A 
BRANCH  12  16
ATOM     16  O   UNL     1      -0.109  11.272  21.609  0.00  0.00    +0.000 OA
BRANCH  16  17
ATOM     17  C   UNL     1      -0.895  10.954  22.764  0.00  0.00    +0.000 C 
BRANCH  17  18
ATOM     18  C   UNL     1      -1.959  12.025  22.993  0.00  0.00    +0.000 C 
ATOM     19  F   UNL     1      -2.958  11.606  23.804  0.00  0.00    +0.000 F 
ATOM     20  F   UNL     1      -1.416  13.126  23.565  0.00  0.00    +0.000 F 
ATOM     21  F   UNL     1      -2.522  12.414  21.826  0.00  0.00    +0.000 F 
ENDBRANCH  17  18
ENDBRANCH  16  17
ENDBRANCH  12  16
ENDBRANCH   4   9
BRANCH   1  22
ATOM     22  C   UNL     1       5.603   4.427  16.763  0.00  0.00    +0.000 C 
BRANCH  22  23
ATOM     23  C   UNL     1       6.881   4.936  16.061  0.00  0.00    +0.000 C 
BRANCH  23  24
ATOM     24  C   UNL     1       6.872   4.666  14.572  0.00  0.00    +0.000 A 
ATOM     25  C   UNL     1       5.988   3.722  14.028  0.00  0.00    +0.000 A 
ATOM     26  C   UNL     1       5.996   3.446  12.659  0.00  0.00    +0.000 A 
ATOM     27  C   UNL     1       6.880   4.116  11.816  0.00  0.00    +0.000 A 
ATOM     28  C   UNL     1       7.755   5.065  12.339  0.00  0.00    +0.000 A 
ATOM     29  C   UNL     1       7.753   5.336  13.708  0.00  0.00    +0.000 A 
ENDBRANCH  23  24
BRANCH  23  30
ATOM     30  O   UNL     1       7.009   6.350  16.257  0.00  0.00    +0.000 OA
ATOM     31  H   UNL     1       6.140   6.655  16.562  0.00  0.00    +0.000 HD
ENDBRANCH  23  30
ENDBRANCH  22  23
ENDBRANCH   1  22
TORSDOF 8
ENDMDL
MODEL 7
REMARK VINA RESULT:      -7.9      5.732     10.453
REMARK  Name = 
REMARK  8 active torsions:
REMARK  status: ('A' for Active; 'I' for Inactive)
REMARK    1  A    between atoms: O_1  and  C_2
REMARK    2  A    between atoms: C_2  and  C_3
REMARK    3  A    between atoms: C_2  and  C_24
REMARK    4  A    between atoms: C_3  and  N_4
REMARK    5  A    between atoms: C_7  and  C_8
REMARK    6  A    between atoms: C_11  and  O_12
REMARK    7  A    between atoms: O_12  and  C_13
REMARK    8  A    between atoms: C_13  and  C_14
REMARK                            x       y       z     vdW  Elec       q    Type
REMARK                         _______ _______ _______ _____ _____    ______ ____
ROOT
ATOM      1  N   UNL     1       3.229   6.004  18.955  0.00  0.00    +0.000 N 
ATOM      2  C   UNL     1       2.580   7.249  18.780  0.00  0.00    +0.000 A 
ATOM      3  C   UNL     1       1.969   7.820  19.877  0.00  0.00    +0.000 A 
ATOM      4  C   UNL     1       1.317   9.027  19.686  0.00  0.00    +0.000 A 
ATOM      5  N   UNL     1       1.375   9.678  18.506  0.00  0.00    +0.000 NA
ATOM      6  C   UNL     1       2.036   9.064  17.520  0.00  0.00    +0.000 A 
ATOM      7  N   UNL     1       2.629   7.868  17.595  0.00  0.00    +0.000 NA
ATOM      8  H   UNL     1       4.148   6.231  19.334  0.00  0.00    +0.000 HD
ENDROOT
BRANCH   4   9
ATOM      9  C   UNL     1       0.463   9.656  20.716  0.00  0.00    +0.000 A 
ATOM     10  C   UNL     1      -0.384  10.736  20.409  0.00  0.00    +0.000 A 
ATOM     11  C   UNL     1      -1.143  11.372  21.397  0.00  0.00    +0.000 A 
ATOM     12  C   UNL     1      -1.087  10.938  22.717  0.00  0.00    +0.000 A 
ATOM     13  C   UNL     1      -0.244   9.876  23.043  0.00  0.00    +0.000 A 
ATOM     14  F   UNL     1      -0.124   9.456  24.311  0.00  0.00    +0.000 F 
ATOM     15  C   UNL     1       0.517   9.242  22.060  0.00  0.00    +0.000 A 
BRANCH  12  16
ATOM     16  O   UNL     1      -1.864  11.654  23.581  0.00  0.00    +0.000 OA
BRANCH  16  17
ATOM     17  C   UNL     1      -2.879  12.481  22.999  0.00  0.00    +0.000 C 
BRANCH  17  18
ATOM     18  C   UNL     1      -3.950  12.815  24.035  0.00  0.00    +0.000 C 
ATOM     19  F   UNL     1      -4.214  11.783  24.868  0.00  0.00    +0.000 F 
ATOM     20  F   UNL     1      -3.563  13.861  24.804  0.00  0.00    +0.000 F 
ATOM     21  F   UNL     1      -5.114  13.163  23.440  0.00  0.00    +0.000 F 
ENDBRANCH  17  18
ENDBRANCH  16  17
ENDBRANCH  12  16
ENDBRANCH   4   9
BRANCH   1  22
ATOM     22  C   UNL     1       3.363   5.269  17.679  0.00  0.00    +0.000 C 
BRANCH  22  23
ATOM     23  C   UNL     1       2.542   3.961  17.719  0.00  0.00    +0.000 C 
BRANCH  23  24
ATOM     24  C   UNL     1       2.384   3.418  19.123  0.00  0.00    +0.000 A 
ATOM     25  C   UNL     1       1.138   3.472  19.768  0.00  0.00    +0.000 A 
ATOM     26  C   UNL     1       0.993   3.000  21.075  0.00  0.00    +0.000 A 
ATOM     27  C   UNL     1       2.087   2.464  21.750  0.00  0.00    +0.000 A 
ATOM     28  C   UNL     1       3.327   2.392  21.119  0.00  0.00    +0.000 A 
ATOM     29  C   UNL     1       3.475   2.868  19.816  0.00  0.00    +0.000 A 
ENDBRANCH  23  24
BRANCH  23  30
ATOM     30  O   UNL     1       1.233   4.196  17.182  0.00  0.00    +0.000 OA
ATOM     31  H   UNL     1       0.912   5.004  17.613  0.00  0.00    +0.000 HD
ENDBRANCH  23  30
ENDBRANCH  22  23
ENDBRANCH   1  22
TORSDOF 8
ENDMDL
MODEL 8
REMARK VINA RESULT:      -7.9      1.933      2.505
REMARK  Name = 
REMARK  8 active torsions:
REMARK  status: ('A' for Active; 'I' for Inactive)
REMARK    1  A    between atoms: O_1  and  C_2
REMARK    2  A    between atoms: C_2  and  C_3
REMARK    3  A    between atoms: C_2  and  C_24
REMARK    4  A    between atoms: C_3  and  N_4
REMARK    5  A    between atoms: C_7  and  C_8
REMARK    6  A    between atoms: C_11  and  O_12
REMARK    7  A    between atoms: O_12  and  C_13
REMARK    8  A    between atoms: C_13  and  C_14
REMARK                            x       y       z     vdW  Elec       q    Type
REMARK                         _______ _______ _______ _____ _____    ______ ____
ROOT
ATOM      1  N   UNL     1       0.485  10.588  18.212  0.00  0.00    +0.000 N 
ATOM      2  C   UNL     1       1.054   9.447  18.824  0.00  0.00    +0.000 A 
ATOM      3  C   UNL     1       1.938   8.688  18.083  0.00  0.00    +0.000 A 
ATOM      4  C   UNL     1       2.469   7.561  18.687  0.00  0.00    +0.000 A 
ATOM      5  N   UNL     1       2.228   7.277  19.983  0.00  0.00    +0.000 NA
ATOM      6  C   UNL     1       1.398   8.104  20.629  0.00  0.00    +0.000 A 
ATOM      7  N   UNL     1       0.784   9.169  20.104  0.00  0.00    +0.000 NA
ATOM      8  H   UNL     1       1.182  11.324  18.313  0.00  0.00    +0.000 HD
ENDROOT
BRANCH   4   9
ATOM      9  C   UNL     1       3.272   6.557  17.957  0.00  0.00    +0.000 A 
ATOM     10  C   UNL     1       2.855   5.218  17.851  0.00  0.00    +0.000 A 
ATOM     11  C   UNL     1       3.646   4.255  17.217  0.00  0.00    +0.000 A 
ATOM     12  C   UNL     1       4.871   4.605  16.659  0.00  0.00    +0.000 A 
ATOM     13  C   UNL     1       5.307   5.925  16.764  0.00  0.00    +0.000 A 
ATOM     14  F   UNL     1       6.502   6.296  16.282  0.00  0.00    +0.000 F 
ATOM     15  C   UNL     1       4.521   6.888  17.400  0.00  0.00    +0.000 A 
BRANCH  12  16
ATOM     16  O   UNL     1       5.548   3.568  16.084  0.00  0.00    +0.000 OA
BRANCH  16  17
ATOM     17  C   UNL     1       6.685   3.910  15.283  0.00  0.00    +0.000 C 
BRANCH  17  18
ATOM     18  C   UNL     1       6.284   4.032  13.815  0.00  0.00    +0.000 C 
ATOM     19  F   UNL     1       5.024   4.497  13.652  0.00  0.00    +0.000 F 
ATOM     20  F   UNL     1       7.110   4.883  13.161  0.00  0.00    +0.000 F 
ATOM     21  F   UNL     1       6.358   2.837  13.186  0.00  0.00    +0.000 F 
ENDBRANCH  17  18
ENDBRANCH  16  17
ENDBRANCH  12  16
ENDBRANCH   4   9
BRANCH   1  22
ATOM     22  C   UNL     1      -0.784  10.985  18.860  0.00  0.00    +0.000 C 
BRANCH  22  23
ATOM     23  C   UNL     1      -1.836  11.373  17.798  0.00  0.00    +0.000 C 
BRANCH  23  24
ATOM     24  C   UNL     1      -3.221  11.533  18.385  0.00  0.00    +0.000 A 
ATOM     25  C   UNL     1      -3.425  12.346  19.510  0.00  0.00    +0.000 A 
ATOM     26  C   UNL     1      -4.697  12.473  20.076  0.00  0.00    +0.000 A 
ATOM     27  C   UNL     1      -5.780  11.795  19.521  0.00  0.00    +0.000 A 
ATOM     28  C   UNL     1      -5.595  10.993  18.397  0.00  0.00    +0.000 A 
ATOM     29  C   UNL     1      -4.325  10.861  17.835  0.00  0.00    +0.000 A 
ENDBRANCH  23  24
BRANCH  23  30
ATOM     30  O   UNL     1      -1.467  12.616  17.184  0.00  0.00    +0.000 OA
ATOM     31  H   UNL     1      -2.113  13.268  17.498  0.00  0.00    +0.000 HD
ENDBRANCH  23  30
ENDBRANCH  22  23
ENDBRANCH   1  22
TORSDOF 8
ENDMDL
MODEL 9
REMARK VINA RESULT:      -7.9      5.473     10.607
REMARK  Name = 
REMARK  8 active torsions:
REMARK  status: ('A' for Active; 'I' for Inactive)
REMARK    1  A    between atoms: O_1  and  C_2
REMARK    2  A    between atoms: C_2  and  C_3
REMARK    3  A    between atoms: C_2  and  C_24
REMARK    4  A    between atoms: C_3  and  N_4
REMARK    5  A    between atoms: C_7  and  C_8
REMARK    6  A    between atoms: C_11  and  O_12
REMARK    7  A    between atoms: O_12  and  C_13
REMARK    8  A    between atoms: C_13  and  C_14
REMARK                            x       y       z     vdW  Elec       q    Type
REMARK                         _______ _______ _______ _____ _____    ______ ____
ROOT
ATOM      1  N   UNL     1       3.260   5.486  18.990  0.00  0.00    +0.000 N 
ATOM      2  C   UNL     1       2.738   6.791  18.832  0.00  0.00    +0.000 A 
ATOM      3  C   UNL     1       2.100   7.369  19.911  0.00  0.00    +0.000 A 
ATOM      4  C   UNL     1       1.573   8.637  19.735  0.00  0.00    +0.000 A 
ATOM      5  N   UNL     1       1.774   9.330  18.595  0.00  0.00    +0.000 NA
ATOM      6  C   UNL     1       2.449   8.700  17.627  0.00  0.00    +0.000 A 
ATOM      7  N   UNL     1       2.927   7.453  17.685  0.00  0.00    +0.000 NA
ATOM      8  H   UNL     1       4.164   5.611  19.443  0.00  0.00    +0.000 HD
ENDROOT
BRANCH   4   9
ATOM      9  C   UNL     1       0.705   9.297  20.732  0.00  0.00    +0.000 A 
ATOM     10  C   UNL     1      -0.164  10.344  20.373  0.00  0.00    +0.000 A 
ATOM     11  C   UNL     1      -0.937  11.011  21.328  0.00  0.00    +0.000 A 
ATOM     12  C   UNL     1      -0.875  10.642  22.668  0.00  0.00    +0.000 A 
ATOM     13  C   UNL     1      -0.011   9.614  23.046  0.00  0.00    +0.000 A 
ATOM     14  F   UNL     1       0.116   9.259  24.332  0.00  0.00    +0.000 F 
ATOM     15  C   UNL     1       0.765   8.950  22.094  0.00  0.00    +0.000 A 
BRANCH  12  16
ATOM     16  O   UNL     1      -1.668  11.383  23.497  0.00  0.00    +0.000 OA
BRANCH  16  17
ATOM     17  C   UNL     1      -2.546  12.326  22.871  0.00  0.00    +0.000 C 
BRANCH  17  18
ATOM     18  C   UNL     1      -2.406  13.698  23.527  0.00  0.00    +0.000 C 
ATOM     19  F   UNL     1      -2.681  14.715  22.679  0.00  0.00    +0.000 F 
ATOM     20  F   UNL     1      -3.251  13.815  24.579  0.00  0.00    +0.000 F 
ATOM     21  F   UNL     1      -1.152  13.891  23.995  0.00  0.00    +0.000 F 
ENDBRANCH  17  18
ENDBRANCH  16  17
ENDBRANCH  12  16
ENDBRANCH   4   9
BRANCH   1  22
ATOM     22  C   UNL     1       3.421   4.796  17.693  0.00  0.00    +0.000 C 
BRANCH  22  23
ATOM     23  C   UNL     1       4.814   4.134  17.601  0.00  0.00    +0.000 C 
BRANCH  23  24
ATOM     24  C   UNL     1       5.939   5.113  17.856  0.00  0.00    +0.000 A 
ATOM     25  C   UNL     1       6.756   4.975  18.989  0.00  0.00    +0.000 A 
ATOM     26  C   UNL     1       7.777   5.893  19.246  0.00  0.00    +0.000 A 
ATOM     27  C   UNL     1       7.999   6.955  18.372  0.00  0.00    +0.000 A 
ATOM     28  C   UNL     1       7.205   7.098  17.237  0.00  0.00    +0.000 A 
ATOM     29  C   UNL     1       6.181   6.185  16.982  0.00  0.00    +0.000 A 
ENDBRANCH  23  24
BRANCH  23  30
ATOM     30  O   UNL     1       4.912   3.080  18.568  0.00  0.00    +0.000 OA
ATOM     31  H   UNL     1       5.242   3.496  19.380  0.00  0.00    +0.000 HD
ENDBRANCH  23  30
ENDBRANCH  22  23
ENDBRANCH   1  22
TORSDOF 8
ENDMDL
