MODEL 1
REMARK VINA RESULT:      -8.1      0.000      0.000
REMARK  Name = 
REMARK  2 active torsions:
REMARK  status: ('A' for Active; 'I' for Inactive)
REMARK    1  A    between atoms: C_2  and  C_3
REMARK    2  A    between atoms: N_16  and  C_17
REMARK                            x       y       z     vdW  Elec       q    Type
REMARK                         _______ _______ _______ _____ _____    ______ ____
ROOT
ATOM      1  O   UNL     1      -0.656  12.644  19.042  0.00  0.00    +0.000 OA
ATOM      2  C   UNL     1      -0.762  11.808  19.937  0.00  0.00    +0.000 C 
ATOM      3  N   UNL     1      -0.406  10.473  19.736  0.00  0.00    +0.000 N 
ATOM      4  C   UNL     1       0.085  10.017  18.425  0.00  0.00    +0.000 C 
ATOM      5  C   UNL     1       1.532   9.480  18.496  0.00  0.00    +0.000 C 
ATOM      6  N   UNL     1       1.729   8.545  19.623  0.00  0.00    +0.000 N 
ATOM      7  C   UNL     1       1.225   9.019  20.921  0.00  0.00    +0.000 C 
ATOM      8  C   UNL     1      -0.235   9.471  20.801  0.00  0.00    +0.000 C 
ENDROOT
BRANCH   2   9
ATOM      9  C   UNL     1      -1.203  12.203  21.292  0.00  0.00    +0.000 A 
ATOM     10  N   UNL     1      -0.416  12.075  22.375  0.00  0.00    +0.000 NA
ATOM     11  O   UNL     1      -1.056  12.731  23.402  0.00  0.00    +0.000 OA
ATOM     12  C   UNL     1      -2.271  13.149  22.976  0.00  0.00    +0.000 A 
ATOM     13  C   UNL     1      -2.461  12.752  21.671  0.00  0.00    +0.000 A 
ATOM     14  C   UNL     1      -3.716  12.903  20.884  0.00  0.00    +0.000 C 
ATOM     15  C   UNL     1      -4.933  12.601  21.766  0.00  0.00    +0.000 C 
ATOM     16  C   UNL     1      -5.360  13.756  22.683  0.00  0.00    +0.000 C 
ATOM     17  C   UNL     1      -4.251  14.640  23.272  0.00  0.00    +0.000 C 
ATOM     18  C   UNL     1      -3.115  13.875  23.952  0.00  0.00    +0.000 C 
ENDBRANCH   2   9
BRANCH   6  19
ATOM     19  C   UNL     1       1.995   7.197  19.476  0.00  0.00    +0.000 A 
ATOM     20  C   UNL     1       2.497   6.707  18.255  0.00  0.00    +0.000 A 
ATOM     21  C   UNL     1       2.806   5.359  18.060  0.00  0.00    +0.000 A 
ATOM     22  C   UNL     1       2.598   4.457  19.092  0.00  0.00    +0.000 A 
ATOM     23  C   UNL     1       2.096   4.910  20.314  0.00  0.00    +0.000 A 
ATOM     24  C   UNL     1       1.783   6.262  20.495  0.00  0.00    +0.000 A 
ATOM     25  O   UNL     1       1.881   4.081  21.388  0.00  0.00    +0.000 OA
ATOM     26  C   UNL     1       2.559   2.831  21.224  0.00  0.00    +0.000 C 
ATOM     27  C   UNL     1       2.355   2.277  19.824  0.00  0.00    +0.000 C 
ATOM     28  O   UNL     1       2.918   3.150  18.840  0.00  0.00    +0.000 OA
ENDBRANCH   6  19
TORSDOF 2
ENDMDL
MODEL 2
REMARK VINA RESULT:      -8.1      1.051      1.693
REMARK  Name = 
REMARK  2 active torsions:
REMARK  status: ('A' for Active; 'I' for Inactive)
REMARK    1  A    between atoms: C_2  and  C_3
REMARK    2  A    between atoms: N_16  and  C_17
REMARK                            x       y       z     vdW  Elec       q    Type
REMARK                         _______ _______ _______ _____ _____    ______ ____
ROOT
ATOM      1  O   UNL     1       0.368  12.263  18.601  0.00  0.00    +0.000 OA
ATOM      2  C   UNL     1       0.059  11.520  19.530  0.00  0.00    +0.000 C 
ATOM      3  N   UNL     1       0.225  10.136  19.445  0.00  0.00    +0.000 N 
ATOM      4  C   UNL     1       0.753   9.518  18.219  0.00  0.00    +0.000 C 
ATOM      5  C   UNL     1       2.091   8.782  18.463  0.00  0.00    +0.000 C 
ATOM      6  N   UNL     1       2.043   7.915  19.658  0.00  0.00    +0.000 N 
ATOM      7  C   UNL     1       1.506   8.552  20.869  0.00  0.00    +0.000 C 
ATOM      8  C   UNL     1       0.147   9.202  20.580  0.00  0.00    +0.000 C 
ENDROOT
BRANCH   2   9
ATOM      9  C   UNL     1      -0.434  12.074  20.809  0.00  0.00    +0.000 A 
ATOM     10  N   UNL     1       0.295  12.046  21.938  0.00  0.00    +0.000 NA
ATOM     11  O   UNL     1      -0.373  12.829  22.854  0.00  0.00    +0.000 OA
ATOM     12  C   UNL     1      -1.551  13.229  22.322  0.00  0.00    +0.000 A 
ATOM     13  C   UNL     1      -1.691  12.695  21.060  0.00  0.00    +0.000 A 
ATOM     14  C   UNL     1      -2.901  12.791  20.198  0.00  0.00    +0.000 C 
ATOM     15  C   UNL     1      -4.168  12.621  21.044  0.00  0.00    +0.000 C 
ATOM     16  C   UNL     1      -4.602  13.881  21.806  0.00  0.00    +0.000 C 
ATOM     17  C   UNL     1      -3.495  14.795  22.351  0.00  0.00    +0.000 C 
ATOM     18  C   UNL     1      -2.418  14.080  23.168  0.00  0.00    +0.000 C 
ENDBRANCH   2   9
BRANCH   6  19
ATOM     19  C   UNL     1       2.113   6.535  19.619  0.00  0.00    +0.000 A 
ATOM     20  C   UNL     1       1.735   5.779  20.745  0.00  0.00    +0.000 A 
ATOM     21  C   UNL     1       1.762   4.382  20.752  0.00  0.00    +0.000 A 
ATOM     22  C   UNL     1       2.192   3.705  19.622  0.00  0.00    +0.000 A 
ATOM     23  C   UNL     1       2.579   4.425  18.490  0.00  0.00    +0.000 A 
ATOM     24  C   UNL     1       2.555   5.825  18.497  0.00  0.00    +0.000 A 
ATOM     25  O   UNL     1       2.999   3.825  17.329  0.00  0.00    +0.000 OA
ATOM     26  C   UNL     1       2.644   2.438  17.302  0.00  0.00    +0.000 C 
ATOM     27  C   UNL     1       2.966   1.766  18.628  0.00  0.00    +0.000 C 
ATOM     28  O   UNL     1       2.199   2.338  19.691  0.00  0.00    +0.000 OA
ENDBRANCH   6  19
TORSDOF 2
ENDMDL
MODEL 3
REMARK VINA RESULT:      -7.8      1.320      1.924
REMARK  Name = 
REMARK  2 active torsions:
REMARK  status: ('A' for Active; 'I' for Inactive)
REMARK    1  A    between atoms: C_2  and  C_3
REMARK    2  A    between atoms: N_16  and  C_17
REMARK                            x       y       z     vdW  Elec       q    Type
REMARK                         _______ _______ _______ _____ _____    ______ ____
ROOT
ATOM      1  O   UNL     1      -0.015  12.592  18.394  0.00  0.00    +0.000 OA
ATOM      2  C   UNL     1       0.055  11.973  19.453  0.00  0.00    +0.000 C 
ATOM      3  N   UNL     1       0.188  10.583  19.479  0.00  0.00    +0.000 N 
ATOM      4  C   UNL     1       0.220   9.809  18.228  0.00  0.00    +0.000 C 
ATOM      5  C   UNL     1       1.557   9.056  18.039  0.00  0.00    +0.000 C 
ATOM      6  N   UNL     1       1.971   8.334  19.259  0.00  0.00    +0.000 N 
ATOM      7  C   UNL     1       1.925   9.125  20.498  0.00  0.00    +0.000 C 
ATOM      8  C   UNL     1       0.552   9.788  20.664  0.00  0.00    +0.000 C 
ENDROOT
BRANCH   2   9
ATOM      9  C   UNL     1       0.076  12.687  20.747  0.00  0.00    +0.000 A 
ATOM     10  N   UNL     1       1.198  13.224  21.259  0.00  0.00    +0.000 NA
ATOM     11  O   UNL     1       0.810  13.984  22.339  0.00  0.00    +0.000 OA
ATOM     12  C   UNL     1      -0.516  13.813  22.551  0.00  0.00    +0.000 A 
ATOM     13  C   UNL     1      -1.017  12.919  21.630  0.00  0.00    +0.000 A 
ATOM     14  C   UNL     1      -2.399  12.369  21.607  0.00  0.00    +0.000 C 
ATOM     15  C   UNL     1      -2.869  12.057  23.032  0.00  0.00    +0.000 C 
ATOM     16  C   UNL     1      -3.360  13.278  23.824  0.00  0.00    +0.000 C 
ATOM     17  C   UNL     1      -2.644  14.614  23.582  0.00  0.00    +0.000 C 
ATOM     18  C   UNL     1      -1.120  14.551  23.683  0.00  0.00    +0.000 C 
ENDBRANCH   2   9
BRANCH   6  19
ATOM     19  C   UNL     1       2.032   6.956  19.363  0.00  0.00    +0.000 A 
ATOM     20  C   UNL     1       1.652   6.323  20.562  0.00  0.00    +0.000 A 
ATOM     21  C   UNL     1       1.671   4.935  20.714  0.00  0.00    +0.000 A 
ATOM     22  C   UNL     1       2.095   4.142  19.659  0.00  0.00    +0.000 A 
ATOM     23  C   UNL     1       2.483   4.738  18.458  0.00  0.00    +0.000 A 
ATOM     24  C   UNL     1       2.468   6.132  18.321  0.00  0.00    +0.000 A 
ATOM     25  O   UNL     1       2.898   4.019  17.365  0.00  0.00    +0.000 OA
ATOM     26  C   UNL     1       2.535   2.638  17.483  0.00  0.00    +0.000 C 
ATOM     27  C   UNL     1       2.855   2.106  18.870  0.00  0.00    +0.000 C 
ATOM     28  O   UNL     1       2.093   2.789  19.869  0.00  0.00    +0.000 OA
ENDBRANCH   6  19
TORSDOF 2
ENDMDL
MODEL 4
REMARK VINA RESULT:      -7.6      1.027      1.123
REMARK  Name = 
REMARK  2 active torsions:
REMARK  status: ('A' for Active; 'I' for Inactive)
REMARK    1  A    between atoms: C_2  and  C_3
REMARK    2  A    between atoms: N_16  and  C_17
REMARK                            x       y       z     vdW  Elec       q    Type
REMARK                         _______ _______ _______ _____ _____    ______ ____
ROOT
ATOM      1  O   UNL     1      -0.934  12.750  18.780  0.00  0.00    +0.000 OA
ATOM      2  C   UNL     1      -0.617  12.116  19.783  0.00  0.00    +0.000 C 
ATOM      3  N   UNL     1      -0.290  10.760  19.717  0.00  0.00    +0.000 N 
ATOM      4  C   UNL     1      -0.344  10.037  18.437  0.00  0.00    +0.000 C 
ATOM      5  C   UNL     1       1.039   9.491  18.012  0.00  0.00    +0.000 C 
ATOM      6  N   UNL     1       1.732   8.800  19.118  0.00  0.00    +0.000 N 
ATOM      7  C   UNL     1       1.768   9.539  20.389  0.00  0.00    +0.000 C 
ATOM      8  C   UNL     1       0.359   9.991  20.792  0.00  0.00    +0.000 C 
ENDROOT
BRANCH   2   9
ATOM      9  C   UNL     1      -0.496  12.786  21.095  0.00  0.00    +0.000 A 
ATOM     10  N   UNL     1       0.673  13.262  21.559  0.00  0.00    +0.000 NA
ATOM     11  O   UNL     1       0.376  14.001  22.683  0.00  0.00    +0.000 OA
ATOM     12  C   UNL     1      -0.942  13.875  22.962  0.00  0.00    +0.000 A 
ATOM     13  C   UNL     1      -1.528  13.032  22.044  0.00  0.00    +0.000 A 
ATOM     14  C   UNL     1      -2.932  12.537  22.082  0.00  0.00    +0.000 C 
ATOM     15  C   UNL     1      -3.335  12.198  23.522  0.00  0.00    +0.000 C 
ATOM     16  C   UNL     1      -3.732  13.410  24.377  0.00  0.00    +0.000 C 
ATOM     17  C   UNL     1      -2.976  14.725  24.135  0.00  0.00    +0.000 C 
ATOM     18  C   UNL     1      -1.452  14.599  24.149  0.00  0.00    +0.000 C 
ENDBRANCH   2   9
BRANCH   6  19
ATOM     19  C   UNL     1       1.999   7.444  19.141  0.00  0.00    +0.000 A 
ATOM     20  C   UNL     1       2.537   6.814  18.002  0.00  0.00    +0.000 A 
ATOM     21  C   UNL     1       2.850   5.453  17.978  0.00  0.00    +0.000 A 
ATOM     22  C   UNL     1       2.608   4.680  19.103  0.00  0.00    +0.000 A 
ATOM     23  C   UNL     1       2.070   5.273  20.247  0.00  0.00    +0.000 A 
ATOM     24  C   UNL     1       1.754   6.637  20.257  0.00  0.00    +0.000 A 
ATOM     25  O   UNL     1       1.820   4.577  21.404  0.00  0.00    +0.000 OA
ATOM     26  C   UNL     1       2.500   3.317  21.411  0.00  0.00    +0.000 C 
ATOM     27  C   UNL     1       2.338   2.601  20.080  0.00  0.00    +0.000 C 
ATOM     28  O   UNL     1       2.933   3.352  19.017  0.00  0.00    +0.000 OA
ENDBRANCH   6  19
TORSDOF 2
ENDMDL
MODEL 5
REMARK VINA RESULT:      -7.5      1.338      1.508
REMARK  Name = 
REMARK  2 active torsions:
REMARK  status: ('A' for Active; 'I' for Inactive)
REMARK    1  A    between atoms: C_2  and  C_3
REMARK    2  A    between atoms: N_16  and  C_17
REMARK                            x       y       z     vdW  Elec       q    Type
REMARK                         _______ _______ _______ _____ _____    ______ ____
ROOT
ATOM      1  O   UNL     1       0.756  12.080  18.840  0.00  0.00    +0.000 OA
ATOM      2  C   UNL     1       0.380  11.186  19.593  0.00  0.00    +0.000 C 
ATOM      3  N   UNL     1       0.565   9.839  19.276  0.00  0.00    +0.000 N 
ATOM      4  C   UNL     1       1.196   9.446  18.006  0.00  0.00    +0.000 C 
ATOM      5  C   UNL     1       2.517   8.672  18.222  0.00  0.00    +0.000 C 
ATOM      6  N   UNL     1       2.381   7.606  19.235  0.00  0.00    +0.000 N 
ATOM      7  C   UNL     1       1.742   8.019  20.493  0.00  0.00    +0.000 C 
ATOM      8  C   UNL     1       0.405   8.717  20.216  0.00  0.00    +0.000 C 
ENDROOT
BRANCH   2   9
ATOM      9  C   UNL     1      -0.220  11.504  20.906  0.00  0.00    +0.000 A 
ATOM     10  N   UNL     1       0.305  11.070  22.065  0.00  0.00    +0.000 NA
ATOM     11  O   UNL     1      -0.370  11.727  23.070  0.00  0.00    +0.000 OA
ATOM     12  C   UNL     1      -1.371  12.460  22.529  0.00  0.00    +0.000 A 
ATOM     13  C   UNL     1      -1.388  12.277  21.163  0.00  0.00    +0.000 A 
ATOM     14  C   UNL     1      -2.413  12.806  20.223  0.00  0.00    +0.000 C 
ATOM     15  C   UNL     1      -3.811  12.686  20.841  0.00  0.00    +0.000 C 
ATOM     16  C   UNL     1      -4.158  13.790  21.851  0.00  0.00    +0.000 C 
ATOM     17  C   UNL     1      -3.024  14.318  22.741  0.00  0.00    +0.000 C 
ATOM     18  C   UNL     1      -2.219  13.237  23.461  0.00  0.00    +0.000 C 
ENDBRANCH   2   9
BRANCH   6  19
ATOM     19  C   UNL     1       2.467   6.254  18.957  0.00  0.00    +0.000 A 
ATOM     20  C   UNL     1       1.738   5.709  17.883  0.00  0.00    +0.000 A 
ATOM     21  C   UNL     1       1.807   4.356  17.542  0.00  0.00    +0.000 A 
ATOM     22  C   UNL     1       2.604   3.506  18.291  0.00  0.00    +0.000 A 
ATOM     23  C   UNL     1       3.337   4.014  19.366  0.00  0.00    +0.000 A 
ATOM     24  C   UNL     1       3.254   5.371  19.703  0.00  0.00    +0.000 A 
ATOM     25  O   UNL     1       4.161   3.238  20.143  0.00  0.00    +0.000 OA
ATOM     26  C   UNL     1       4.452   1.989  19.507  0.00  0.00    +0.000 C 
ATOM     27  C   UNL     1       3.192   1.363  18.931  0.00  0.00    +0.000 C 
ATOM     28  O   UNL     1       2.629   2.192  17.909  0.00  0.00    +0.000 OA
ENDBRANCH   6  19
TORSDOF 2
ENDMDL
MODEL 6
REMARK VINA RESULT:      -7.5      1.289      1.891
REMARK  Name = 
REMARK  2 active torsions:
REMARK  status: ('A' for Active; 'I' for Inactive)
REMARK    1  A    between atoms: C_2  and  C_3
REMARK    2  A    between atoms: N_16  and  C_17
REMARK                            x       y       z     vdW  Elec       q    Type
REMARK                         _______ _______ _______ _____ _____    ______ ____
ROOT
ATOM      1  O   UNL     1      -1.482  12.422  17.918  0.00  0.00    +0.000 OA
ATOM      2  C   UNL     1      -1.462  11.795  18.974  0.00  0.00    +0.000 C 
ATOM      3  N   UNL     1      -0.898  10.520  19.056  0.00  0.00    +0.000 N 
ATOM      4  C   UNL     1      -0.331   9.873  17.863  0.00  0.00    +0.000 C 
ATOM      5  C   UNL     1       1.183   9.595  18.010  0.00  0.00    +0.000 C 
ATOM      6  N   UNL     1       1.514   8.970  19.306  0.00  0.00    +0.000 N 
ATOM      7  C   UNL     1       0.932   9.630  20.484  0.00  0.00    +0.000 C 
ATOM      8  C   UNL     1      -0.581   9.812  20.307  0.00  0.00    +0.000 C 
ENDROOT
BRANCH   2   9
ATOM      9  C   UNL     1      -1.971  12.400  20.223  0.00  0.00    +0.000 A 
ATOM     10  N   UNL     1      -1.176  12.669  21.273  0.00  0.00    +0.000 NA
ATOM     11  O   UNL     1      -1.929  13.414  22.153  0.00  0.00    +0.000 OA
ATOM     12  C   UNL     1      -3.200  13.494  21.695  0.00  0.00    +0.000 A 
ATOM     13  C   UNL     1      -3.310  12.782  20.520  0.00  0.00    +0.000 A 
ATOM     14  C   UNL     1      -4.570  12.519  19.773  0.00  0.00    +0.000 C 
ATOM     15  C   UNL     1      -5.710  12.208  20.749  0.00  0.00    +0.000 C 
ATOM     16  C   UNL     1      -6.347  13.445  21.401  0.00  0.00    +0.000 C 
ATOM     17  C   UNL     1      -5.424  14.627  21.730  0.00  0.00    +0.000 C 
ATOM     18  C   UNL     1      -4.166  14.257  22.517  0.00  0.00    +0.000 C 
ENDBRANCH   2   9
BRANCH   6  19
ATOM     19  C   UNL     1       1.991   7.680  19.447  0.00  0.00    +0.000 A 
ATOM     20  C   UNL     1       1.611   6.907  20.561  0.00  0.00    +0.000 A 
ATOM     21  C   UNL     1       2.042   5.590  20.740  0.00  0.00    +0.000 A 
ATOM     22  C   UNL     1       2.890   5.019  19.804  0.00  0.00    +0.000 A 
ATOM     23  C   UNL     1       3.289   5.761  18.690  0.00  0.00    +0.000 A 
ATOM     24  C   UNL     1       2.857   7.082  18.525  0.00  0.00    +0.000 A 
ATOM     25  O   UNL     1       4.112   5.258  17.712  0.00  0.00    +0.000 OA
ATOM     26  C   UNL     1       4.193   3.830  17.784  0.00  0.00    +0.000 C 
ATOM     27  C   UNL     1       4.395   3.365  19.217  0.00  0.00    +0.000 C 
ATOM     28  O   UNL     1       3.279   3.727  20.036  0.00  0.00    +0.000 OA
ENDBRANCH   6  19
TORSDOF 2
ENDMDL
MODEL 7
REMARK VINA RESULT:      -7.5      2.801      9.672
REMARK  Name = 
REMARK  2 active torsions:
REMARK  status: ('A' for Active; 'I' for Inactive)
REMARK    1  A    between atoms: C_2  and  C_3
REMARK    2  A    between atoms: N_16  and  C_17
REMARK                            x       y       z     vdW  Elec       q    Type
REMARK                         _______ _______ _______ _____ _____    ______ ____
ROOT
ATOM      1  O   UNL     1       2.721   3.002  19.482  0.00  0.00    +0.000 OA
ATOM      2  C   UNL     1       2.913   4.042  18.856  0.00  0.00    +0.000 C 
ATOM      3  N   UNL     1       2.125   5.175  19.065  0.00  0.00    +0.000 N 
ATOM      4  C   UNL     1       1.014   5.149  20.029  0.00  0.00    +0.000 C 
ATOM      5  C   UNL     1       1.218   6.154  21.186  0.00  0.00    +0.000 C 
ATOM      6  N   UNL     1       1.627   7.488  20.704  0.00  0.00    +0.000 N 
ATOM      7  C   UNL     1       2.734   7.490  19.737  0.00  0.00    +0.000 C 
ATOM      8  C   UNL     1       2.440   6.529  18.578  0.00  0.00    +0.000 C 
ENDROOT
BRANCH   2   9
ATOM      9  C   UNL     1       4.039   4.156  17.905  0.00  0.00    +0.000 A 
ATOM     10  N   UNL     1       4.060   3.506  16.728  0.00  0.00    +0.000 NA
ATOM     11  O   UNL     1       5.131   4.010  16.023  0.00  0.00    +0.000 OA
ATOM     12  C   UNL     1       5.819   4.869  16.812  0.00  0.00    +0.000 A 
ATOM     13  C   UNL     1       5.228   4.924  18.055  0.00  0.00    +0.000 A 
ATOM     14  C   UNL     1       5.755   5.652  19.242  0.00  0.00    +0.000 C 
ATOM     15  C   UNL     1       7.277   5.490  19.329  0.00  0.00    +0.000 C 
ATOM     16  C   UNL     1       8.072   6.418  18.399  0.00  0.00    +0.000 C 
ATOM     17  C   UNL     1       7.463   6.735  17.025  0.00  0.00    +0.000 C 
ATOM     18  C   UNL     1       7.017   5.511  16.225  0.00  0.00    +0.000 C 
ENDBRANCH   2   9
BRANCH   6  19
ATOM     19  C   UNL     1       0.845   8.624  20.807  0.00  0.00    +0.000 A 
ATOM     20  C   UNL     1       0.480   9.335  19.647  0.00  0.00    +0.000 A 
ATOM     21  C   UNL     1      -0.328  10.473  19.691  0.00  0.00    +0.000 A 
ATOM     22  C   UNL     1      -0.778  10.941  20.915  0.00  0.00    +0.000 A 
ATOM     23  C   UNL     1      -0.430  10.262  22.085  0.00  0.00    +0.000 A 
ATOM     24  C   UNL     1       0.387   9.127  22.029  0.00  0.00    +0.000 A 
ATOM     25  O   UNL     1      -0.851  10.655  23.331  0.00  0.00    +0.000 OA
ATOM     26  C   UNL     1      -1.946  11.574  23.245  0.00  0.00    +0.000 C 
ATOM     27  C   UNL     1      -1.681  12.642  22.196  0.00  0.00    +0.000 C 
ATOM     28  O   UNL     1      -1.564  12.062  20.893  0.00  0.00    +0.000 OA
ENDBRANCH   6  19
TORSDOF 2
ENDMDL
MODEL 8
REMARK VINA RESULT:      -7.4      2.526      9.841
REMARK  Name = 
REMARK  2 active torsions:
REMARK  status: ('A' for Active; 'I' for Inactive)
REMARK    1  A    between atoms: C_2  and  C_3
REMARK    2  A    between atoms: N_16  and  C_17
REMARK                            x       y       z     vdW  Elec       q    Type
REMARK                         _______ _______ _______ _____ _____    ______ ____
ROOT
ATOM      1  O   UNL     1       3.097   3.667  20.821  0.00  0.00    +0.000 OA
ATOM      2  C   UNL     1       2.921   4.228  19.743  0.00  0.00    +0.000 C 
ATOM      3  N   UNL     1       2.080   5.336  19.626  0.00  0.00    +0.000 N 
ATOM      4  C   UNL     1       1.351   5.852  20.795  0.00  0.00    +0.000 C 
ATOM      5  C   UNL     1       1.760   7.300  21.149  0.00  0.00    +0.000 C 
ATOM      6  N   UNL     1       1.788   8.180  19.963  0.00  0.00    +0.000 N 
ATOM      7  C   UNL     1       2.516   7.642  18.805  0.00  0.00    +0.000 C 
ATOM      8  C   UNL     1       2.016   6.233  18.460  0.00  0.00    +0.000 C 
ENDROOT
BRANCH   2   9
ATOM      9  C   UNL     1       3.654   3.794  18.535  0.00  0.00    +0.000 A 
ATOM     10  N   UNL     1       3.330   2.682  17.852  0.00  0.00    +0.000 NA
ATOM     11  O   UNL     1       4.065   2.710  16.688  0.00  0.00    +0.000 OA
ATOM     12  C   UNL     1       4.911   3.766  16.721  0.00  0.00    +0.000 A 
ATOM     13  C   UNL     1       4.766   4.434  17.917  0.00  0.00    +0.000 A 
ATOM     14  C   UNL     1       5.604   5.569  18.392  0.00  0.00    +0.000 C 
ATOM     15  C   UNL     1       7.075   5.326  18.039  0.00  0.00    +0.000 C 
ATOM     16  C   UNL     1       7.445   5.652  16.584  0.00  0.00    +0.000 C 
ATOM     17  C   UNL     1       6.392   5.366  15.504  0.00  0.00    +0.000 C 
ATOM     18  C   UNL     1       5.796   3.959  15.549  0.00  0.00    +0.000 C 
ENDBRANCH   2   9
BRANCH   6  19
ATOM     19  C   UNL     1       0.919   9.235  19.758  0.00  0.00    +0.000 A 
ATOM     20  C   UNL     1       0.598   9.639  18.448  0.00  0.00    +0.000 A 
ATOM     21  C   UNL     1      -0.293  10.681  18.183  0.00  0.00    +0.000 A 
ATOM     22  C   UNL     1      -0.875  11.364  19.240  0.00  0.00    +0.000 A 
ATOM     23  C   UNL     1      -0.573  10.992  20.552  0.00  0.00    +0.000 A 
ATOM     24  C   UNL     1       0.327   9.950  20.805  0.00  0.00    +0.000 A 
ATOM     25  O   UNL     1      -1.123  11.608  21.649  0.00  0.00    +0.000 OA
ATOM     26  C   UNL     1      -2.272  12.384  21.289  0.00  0.00    +0.000 C 
ATOM     27  C   UNL     1      -2.002  13.215  20.045  0.00  0.00    +0.000 C 
ATOM     28  O   UNL     1      -1.737  12.376  18.916  0.00  0.00    +0.000 OA
ENDBRANCH   6  19
TORSDOF 2
ENDMDL
MODEL 9
REMARK VINA RESULT:      -7.4      2.030      2.947
REMARK  Name = 
REMARK  2 active torsions:
REMARK  status: ('A' for Active; 'I' for Inactive)
REMARK    1  A    between atoms: C_2  and  C_3
REMARK    2  A    between atoms: N_16  and  C_17
REMARK                            x       y       z     vdW  Elec       q    Type
REMARK                         _______ _______ _______ _____ _____    ______ ____
ROOT
ATOM      1  O   UNL     1      -0.947  13.476  18.812  0.00  0.00    +0.000 OA
ATOM      2  C   UNL     1      -1.463  12.438  19.218  0.00  0.00    +0.000 C 
ATOM      3  N   UNL     1      -0.838  11.200  19.057  0.00  0.00    +0.000 N 
ATOM      4  C   UNL     1       0.456  11.097  18.364  0.00  0.00    +0.000 C 
ATOM      5  C   UNL     1       1.573  10.557  19.286  0.00  0.00    +0.000 C 
ATOM      6  N   UNL     1       1.146   9.362  20.042  0.00  0.00    +0.000 N 
ATOM      7  C   UNL     1      -0.152   9.485  20.721  0.00  0.00    +0.000 C 
ATOM      8  C   UNL     1      -1.232   9.956  19.739  0.00  0.00    +0.000 C 
ENDROOT
BRANCH   2   9
ATOM      9  C   UNL     1      -2.739  12.469  19.964  0.00  0.00    +0.000 A 
ATOM     10  N   UNL     1      -2.802  12.744  21.279  0.00  0.00    +0.000 NA
ATOM     11  O   UNL     1      -4.136  12.901  21.582  0.00  0.00    +0.000 OA
ATOM     12  C   UNL     1      -4.878  12.608  20.489  0.00  0.00    +0.000 A 
ATOM     13  C   UNL     1      -4.048  12.228  19.458  0.00  0.00    +0.000 A 
ATOM     14  C   UNL     1      -4.481  11.706  18.133  0.00  0.00    +0.000 C 
ATOM     15  C   UNL     1      -5.669  10.752  18.302  0.00  0.00    +0.000 C 
ATOM     16  C   UNL     1      -7.027  11.448  18.480  0.00  0.00    +0.000 C 
ATOM     17  C   UNL     1      -7.049  12.767  19.266  0.00  0.00    +0.000 C 
ATOM     18  C   UNL     1      -6.349  12.714  20.624  0.00  0.00    +0.000 C 
ENDBRANCH   2   9
BRANCH   6  19
ATOM     19  C   UNL     1       1.671   8.097  19.857  0.00  0.00    +0.000 A 
ATOM     20  C   UNL     1       1.400   7.078  20.790  0.00  0.00    +0.000 A 
ATOM     21  C   UNL     1       1.884   5.776  20.639  0.00  0.00    +0.000 A 
ATOM     22  C   UNL     1       2.676   5.468  19.545  0.00  0.00    +0.000 A 
ATOM     23  C   UNL     1       2.968   6.457  18.603  0.00  0.00    +0.000 A 
ATOM     24  C   UNL     1       2.484   7.760  18.769  0.00  0.00    +0.000 A 
ATOM     25  O   UNL     1       3.730   6.224  17.485  0.00  0.00    +0.000 OA
ATOM     26  C   UNL     1       3.860   4.821  17.227  0.00  0.00    +0.000 C 
ATOM     27  C   UNL     1       4.183   4.059  18.502  0.00  0.00    +0.000 C 
ATOM     28  O   UNL     1       3.121   4.177  19.453  0.00  0.00    +0.000 OA
ENDBRANCH   6  19
TORSDOF 2
ENDMDL
