MODEL 1
REMARK VINA RESULT:      -8.5      0.000      0.000
REMARK  Name = 
REMARK  7 active torsions:
REMARK  status: ('A' for Active; 'I' for Inactive)
REMARK    1  A    between atoms: C_2  and  O_3
REMARK    2  A    between atoms: C_2  and  C_4
REMARK    3  A    between atoms: C_8  and  N_9
REMARK    4  A    between atoms: C_10  and  C_12
REMARK    5  A    between atoms: C_16  and  S_17
REMARK    6  A    between atoms: S_17  and  N_20
REMARK    7  A    between atoms: N_20  and  C_21
REMARK                            x       y       z     vdW  Elec       q    Type
REMARK                         _______ _______ _______ _____ _____    ______ ____
ROOT
ATOM      1  C   UNL     1       7.555   7.271  18.161  0.00  0.00    +0.000 A 
ATOM      2  C   UNL     1       8.302   6.427  19.005  0.00  0.00    +0.000 A 
ATOM      3  C   UNL     1       7.946   5.092  19.191  0.00  0.00    +0.000 A 
ATOM      4  C   UNL     1       6.826   4.583  18.543  0.00  0.00    +0.000 A 
ATOM      5  C   UNL     1       6.059   5.424  17.727  0.00  0.00    +0.000 A 
ATOM      6  C   UNL     1       6.420   6.765  17.519  0.00  0.00    +0.000 A 
ENDROOT
BRANCH   1   8
ATOM      7  N   UNL     1       9.011   9.110  18.921  0.00  0.00    +0.000 N 
ATOM      8  C   UNL     1       8.049   8.673  18.022  0.00  0.00    +0.000 C 
ATOM      9  O   UNL     1       7.556   9.351  17.125  0.00  0.00    +0.000 OA
ATOM     10  H   UNL     1       9.456   8.434  19.526  0.00  0.00    +0.000 HD
BRANCH   7  15
ATOM     11  C   UNL     1       9.753  12.404  20.462  0.00  0.00    +0.000 A 
ATOM     12  C   UNL     1      10.351  13.098  19.405  0.00  0.00    +0.000 A 
ATOM     13  C   UNL     1      10.464  12.484  18.163  0.00  0.00    +0.000 A 
ATOM     14  C   UNL     1      10.017  11.172  17.989  0.00  0.00    +0.000 A 
ATOM     15  C   UNL     1       9.460  10.448  19.049  0.00  0.00    +0.000 A 
ATOM     16  C   UNL     1       9.314  11.080  20.287  0.00  0.00    +0.000 A 
BRANCH  11  18
ATOM     17  O   UNL     1       9.884  14.187  22.025  0.00  0.00    +0.000 OA
ATOM     18  C   UNL     1       9.617  13.018  21.805  0.00  0.00    +0.000 C 
BRANCH  18  19
ATOM     19  O   UNL     1       9.219  12.153  22.761  0.00  0.00    +0.000 OA
ATOM     20  H   UNL     1       9.484  11.226  22.616  0.00  0.00    +0.000 HD
ENDBRANCH  18  19
ENDBRANCH  11  18
ENDBRANCH   7  15
ENDBRANCH   1   8
BRANCH   5  21
ATOM     21  S   UNL     1       4.634   4.739  16.892  0.00  0.00    +0.000 S 
ATOM     22  O   UNL     1       3.494   5.557  17.234  0.00  0.00    +0.000 OA
ATOM     23  O   UNL     1       5.021   4.512  15.517  0.00  0.00    +0.000 OA
BRANCH  21  24
ATOM     24  N   UNL     1       4.474   3.209  17.604  0.00  0.00    +0.000 N 
ATOM     25  H   UNL     1       5.373   2.807  17.868  0.00  0.00    +0.000 HD
BRANCH  24  26
ATOM     26  C   UNL     1       3.374   2.993  18.476  0.00  0.00    +0.000 A 
ATOM     27  C   UNL     1       2.154   2.579  17.936  0.00  0.00    +0.000 A 
ATOM     28  C   UNL     1       1.032   2.451  18.757  0.00  0.00    +0.000 A 
ATOM     29  C   UNL     1       1.128   2.764  20.111  0.00  0.00    +0.000 A 
ATOM     30  C   UNL     1       2.348   3.176  20.635  0.00  0.00    +0.000 A 
ATOM     31  F   UNL     1       2.434   3.497  21.932  0.00  0.00    +0.000 F 
ATOM     32  C   UNL     1       3.480   3.281  19.834  0.00  0.00    +0.000 A 
ENDBRANCH  24  26
ENDBRANCH  21  24
ENDBRANCH   5  21
TORSDOF 7
ENDMDL
MODEL 2
REMARK VINA RESULT:      -8.4      5.518      7.897
REMARK  Name = 
REMARK  7 active torsions:
REMARK  status: ('A' for Active; 'I' for Inactive)
REMARK    1  A    between atoms: C_2  and  O_3
REMARK    2  A    between atoms: C_2  and  C_4
REMARK    3  A    between atoms: C_8  and  N_9
REMARK    4  A    between atoms: C_10  and  C_12
REMARK    5  A    between atoms: C_16  and  S_17
REMARK    6  A    between atoms: S_17  and  N_20
REMARK    7  A    between atoms: N_20  and  C_21
REMARK                            x       y       z     vdW  Elec       q    Type
REMARK                         _______ _______ _______ _____ _____    ______ ____
ROOT
ATOM      1  C   UNL     1       3.259   5.858  19.290  0.00  0.00    +0.000 A 
ATOM      2  C   UNL     1       3.523   4.536  19.696  0.00  0.00    +0.000 A 
ATOM      3  C   UNL     1       4.545   3.789  19.109  0.00  0.00    +0.000 A 
ATOM      4  C   UNL     1       5.311   4.352  18.095  0.00  0.00    +0.000 A 
ATOM      5  C   UNL     1       5.036   5.655  17.663  0.00  0.00    +0.000 A 
ATOM      6  C   UNL     1       4.021   6.422  18.261  0.00  0.00    +0.000 A 
ENDROOT
BRANCH   1   8
ATOM      7  N   UNL     1       2.057   7.937  19.846  0.00  0.00    +0.000 N 
ATOM      8  C   UNL     1       2.158   6.564  20.010  0.00  0.00    +0.000 C 
ATOM      9  O   UNL     1       1.422   5.876  20.713  0.00  0.00    +0.000 OA
ATOM     10  H   UNL     1       2.617   8.386  19.135  0.00  0.00    +0.000 HD
BRANCH   7  15
ATOM     11  C   UNL     1      -0.412  10.610  20.579  0.00  0.00    +0.000 A 
ATOM     12  C   UNL     1      -0.568  10.497  21.965  0.00  0.00    +0.000 A 
ATOM     13  C   UNL     1       0.185   9.560  22.662  0.00  0.00    +0.000 A 
ATOM     14  C   UNL     1       1.061   8.716  21.975  0.00  0.00    +0.000 A 
ATOM     15  C   UNL     1       1.195   8.785  20.584  0.00  0.00    +0.000 A 
ATOM     16  C   UNL     1       0.463   9.753  19.889  0.00  0.00    +0.000 A 
BRANCH  11  18
ATOM     17  O   UNL     1      -2.146  11.270  19.097  0.00  0.00    +0.000 OA
ATOM     18  C   UNL     1      -1.199  11.591  19.794  0.00  0.00    +0.000 C 
BRANCH  18  19
ATOM     19  O   UNL     1      -0.740  12.856  19.888  0.00  0.00    +0.000 OA
ATOM     20  H   UNL     1      -0.529  13.154  20.792  0.00  0.00    +0.000 HD
ENDBRANCH  18  19
ENDBRANCH  11  18
ENDBRANCH   7  15
ENDBRANCH   1   8
BRANCH   5  21
ATOM     21  S   UNL     1       6.049   6.361  16.371  0.00  0.00    +0.000 S 
ATOM     22  O   UNL     1       5.171   6.741  15.289  0.00  0.00    +0.000 OA
ATOM     23  O   UNL     1       6.933   7.316  17.002  0.00  0.00    +0.000 OA
BRANCH  21  24
ATOM     24  N   UNL     1       7.017   5.056  15.890  0.00  0.00    +0.000 N 
ATOM     25  H   UNL     1       6.999   4.290  16.563  0.00  0.00    +0.000 HD
BRANCH  24  26
ATOM     26  C   UNL     1       7.043   4.720  14.510  0.00  0.00    +0.000 A 
ATOM     27  C   UNL     1       7.866   5.452  13.652  0.00  0.00    +0.000 A 
ATOM     28  C   UNL     1       7.841   5.206  12.278  0.00  0.00    +0.000 A 
ATOM     29  C   UNL     1       6.971   4.245  11.764  0.00  0.00    +0.000 A 
ATOM     30  C   UNL     1       6.157   3.524  12.630  0.00  0.00    +0.000 A 
ATOM     31  F   UNL     1       5.306   2.618  12.134  0.00  0.00    +0.000 F 
ATOM     32  C   UNL     1       6.193   3.741  14.004  0.00  0.00    +0.000 A 
ENDBRANCH  24  26
ENDBRANCH  21  24
ENDBRANCH   5  21
TORSDOF 7
ENDMDL
MODEL 3
REMARK VINA RESULT:      -8.4      5.715      7.709
REMARK  Name = 
REMARK  7 active torsions:
REMARK  status: ('A' for Active; 'I' for Inactive)
REMARK    1  A    between atoms: C_2  and  O_3
REMARK    2  A    between atoms: C_2  and  C_4
REMARK    3  A    between atoms: C_8  and  N_9
REMARK    4  A    between atoms: C_10  and  C_12
REMARK    5  A    between atoms: C_16  and  S_17
REMARK    6  A    between atoms: S_17  and  N_20
REMARK    7  A    between atoms: N_20  and  C_21
REMARK                            x       y       z     vdW  Elec       q    Type
REMARK                         _______ _______ _______ _____ _____    ______ ____
ROOT
ATOM      1  C   UNL     1       3.237   6.335  19.167  0.00  0.00    +0.000 A 
ATOM      2  C   UNL     1       3.483   5.118  19.831  0.00  0.00    +0.000 A 
ATOM      3  C   UNL     1       4.514   4.271  19.430  0.00  0.00    +0.000 A 
ATOM      4  C   UNL     1       5.310   4.622  18.347  0.00  0.00    +0.000 A 
ATOM      5  C   UNL     1       5.054   5.816  17.660  0.00  0.00    +0.000 A 
ATOM      6  C   UNL     1       4.029   6.686  18.068  0.00  0.00    +0.000 A 
ENDROOT
BRANCH   1   8
ATOM      7  N   UNL     1       1.847   8.369  19.065  0.00  0.00    +0.000 N 
ATOM      8  C   UNL     1       2.122   7.170  19.705  0.00  0.00    +0.000 C 
ATOM      9  O   UNL     1       1.531   6.740  20.693  0.00  0.00    +0.000 OA
ATOM     10  H   UNL     1       2.291   8.560  18.178  0.00  0.00    +0.000 HD
BRANCH   7  15
ATOM     11  C   UNL     1      -0.255  10.328  21.414  0.00  0.00    +0.000 A 
ATOM     12  C   UNL     1      -0.796  11.311  20.578  0.00  0.00    +0.000 A 
ATOM     13  C   UNL     1      -0.498  11.292  19.221  0.00  0.00    +0.000 A 
ATOM     14  C   UNL     1       0.366  10.320  18.708  0.00  0.00    +0.000 A 
ATOM     15  C   UNL     1       0.952   9.360  19.539  0.00  0.00    +0.000 A 
ATOM     16  C   UNL     1       0.621   9.358  20.898  0.00  0.00    +0.000 A 
BRANCH  11  18
ATOM     17  O   UNL     1      -1.556  10.794  23.345  0.00  0.00    +0.000 OA
ATOM     18  C   UNL     1      -0.542  10.313  22.868  0.00  0.00    +0.000 C 
BRANCH  18  19
ATOM     19  O   UNL     1       0.442   9.765  23.612  0.00  0.00    +0.000 OA
ATOM     20  H   UNL     1       1.262  10.290  23.665  0.00  0.00    +0.000 HD
ENDBRANCH  18  19
ENDBRANCH  11  18
ENDBRANCH   7  15
ENDBRANCH   1   8
BRANCH   5  21
ATOM     21  S   UNL     1       6.105   6.253  16.282  0.00  0.00    +0.000 S 
ATOM     22  O   UNL     1       5.257   6.786  15.241  0.00  0.00    +0.000 OA
ATOM     23  O   UNL     1       7.213   7.011  16.821  0.00  0.00    +0.000 OA
BRANCH  21  24
ATOM     24  N   UNL     1       6.737   4.758  15.796  0.00  0.00    +0.000 N 
ATOM     25  H   UNL     1       6.426   3.992  16.392  0.00  0.00    +0.000 HD
BRANCH  24  26
ATOM     26  C   UNL     1       6.850   4.505  14.402  0.00  0.00    +0.000 A 
ATOM     27  C   UNL     1       7.726   5.283  13.642  0.00  0.00    +0.000 A 
ATOM     28  C   UNL     1       7.786   5.119  12.257  0.00  0.00    +0.000 A 
ATOM     29  C   UNL     1       6.950   4.195  11.634  0.00  0.00    +0.000 A 
ATOM     30  C   UNL     1       6.082   3.428  12.403  0.00  0.00    +0.000 A 
ATOM     31  F   UNL     1       5.264   2.556  11.802  0.00  0.00    +0.000 F 
ATOM     32  C   UNL     1       6.032   3.562  13.787  0.00  0.00    +0.000 A 
ENDBRANCH  24  26
ENDBRANCH  21  24
ENDBRANCH   5  21
TORSDOF 7
ENDMDL
MODEL 4
REMARK VINA RESULT:      -8.4      0.855      1.235
REMARK  Name = 
REMARK  7 active torsions:
REMARK  status: ('A' for Active; 'I' for Inactive)
REMARK    1  A    between atoms: C_2  and  O_3
REMARK    2  A    between atoms: C_2  and  C_4
REMARK    3  A    between atoms: C_8  and  N_9
REMARK    4  A    between atoms: C_10  and  C_12
REMARK    5  A    between atoms: C_16  and  S_17
REMARK    6  A    between atoms: S_17  and  N_20
REMARK    7  A    between atoms: N_20  and  C_21
REMARK                            x       y       z     vdW  Elec       q    Type
REMARK                         _______ _______ _______ _____ _____    ______ ____
ROOT
ATOM      1  C   UNL     1       7.616   7.370  18.129  0.00  0.00    +0.000 A 
ATOM      2  C   UNL     1       8.350   6.507  18.966  0.00  0.00    +0.000 A 
ATOM      3  C   UNL     1       8.002   5.164  19.102  0.00  0.00    +0.000 A 
ATOM      4  C   UNL     1       6.905   4.665  18.411  0.00  0.00    +0.000 A 
ATOM      5  C   UNL     1       6.151   5.522  17.600  0.00  0.00    +0.000 A 
ATOM      6  C   UNL     1       6.503   6.873  17.442  0.00  0.00    +0.000 A 
ENDROOT
BRANCH   1   8
ATOM      7  N   UNL     1       9.077   9.181  18.943  0.00  0.00    +0.000 N 
ATOM      8  C   UNL     1       8.100   8.780  18.045  0.00  0.00    +0.000 C 
ATOM      9  O   UNL     1       7.585   9.496  17.189  0.00  0.00    +0.000 OA
ATOM     10  H   UNL     1       9.538   8.481  19.508  0.00  0.00    +0.000 HD
BRANCH   7  15
ATOM     11  C   UNL     1       9.737  12.441  20.592  0.00  0.00    +0.000 A 
ATOM     12  C   UNL     1      10.395  13.154  19.584  0.00  0.00    +0.000 A 
ATOM     13  C   UNL     1      10.577  12.565  18.338  0.00  0.00    +0.000 A 
ATOM     14  C   UNL     1      10.138  11.258  18.112  0.00  0.00    +0.000 A 
ATOM     15  C   UNL     1       9.521  10.515  19.124  0.00  0.00    +0.000 A 
ATOM     16  C   UNL     1       9.306  11.123  20.365  0.00  0.00    +0.000 A 
BRANCH  11  18
ATOM     17  O   UNL     1       9.695  14.212  22.172  0.00  0.00    +0.000 OA
ATOM     18  C   UNL     1       9.527  13.028  21.936  0.00  0.00    +0.000 C 
BRANCH  18  19
ATOM     19  O   UNL     1       9.181  12.124  22.877  0.00  0.00    +0.000 OA
ATOM     20  H   UNL     1       8.719  11.334  22.541  0.00  0.00    +0.000 HD
ENDBRANCH  18  19
ENDBRANCH  11  18
ENDBRANCH   7  15
ENDBRANCH   1   8
BRANCH   5  21
ATOM     21  S   UNL     1       4.755   4.850  16.708  0.00  0.00    +0.000 S 
ATOM     22  O   UNL     1       3.601   5.653  17.036  0.00  0.00    +0.000 OA
ATOM     23  O   UNL     1       5.183   4.658  15.339  0.00  0.00    +0.000 OA
BRANCH  21  24
ATOM     24  N   UNL     1       4.585   3.303  17.378  0.00  0.00    +0.000 N 
ATOM     25  H   UNL     1       5.483   2.853  17.553  0.00  0.00    +0.000 HD
BRANCH  24  26
ATOM     26  C   UNL     1       3.550   3.101  18.331  0.00  0.00    +0.000 A 
ATOM     27  C   UNL     1       3.853   3.206  19.690  0.00  0.00    +0.000 A 
ATOM     28  C   UNL     1       2.879   2.919  20.648  0.00  0.00    +0.000 A 
ATOM     29  C   UNL     1       1.613   2.504  20.243  0.00  0.00    +0.000 A 
ATOM     30  C   UNL     1       1.325   2.404  18.887  0.00  0.00    +0.000 A 
ATOM     31  F   UNL     1       0.115   1.984  18.499  0.00  0.00    +0.000 F 
ATOM     32  C   UNL     1       2.278   2.713  17.921  0.00  0.00    +0.000 A 
ENDBRANCH  24  26
ENDBRANCH  21  24
ENDBRANCH   5  21
TORSDOF 7
ENDMDL
MODEL 5
REMARK VINA RESULT:      -8.4      1.282      1.353
REMARK  Name = 
REMARK  7 active torsions:
REMARK  status: ('A' for Active; 'I' for Inactive)
REMARK    1  A    between atoms: C_2  and  O_3
REMARK    2  A    between atoms: C_2  and  C_4
REMARK    3  A    between atoms: C_8  and  N_9
REMARK    4  A    between atoms: C_10  and  C_12
REMARK    5  A    between atoms: C_16  and  S_17
REMARK    6  A    between atoms: S_17  and  N_20
REMARK    7  A    between atoms: N_20  and  C_21
REMARK                            x       y       z     vdW  Elec       q    Type
REMARK                         _______ _______ _______ _____ _____    ______ ____
ROOT
ATOM      1  C   UNL     1       7.874   7.870  18.266  0.00  0.00    +0.000 A 
ATOM      2  C   UNL     1       8.464   6.910  19.110  0.00  0.00    +0.000 A 
ATOM      3  C   UNL     1       8.022   5.588  19.121  0.00  0.00    +0.000 A 
ATOM      4  C   UNL     1       6.971   5.208  18.295  0.00  0.00    +0.000 A 
ATOM      5  C   UNL     1       6.357   6.163  17.475  0.00  0.00    +0.000 A 
ATOM      6  C   UNL     1       6.807   7.493  17.443  0.00  0.00    +0.000 A 
ENDROOT
BRANCH   1   8
ATOM      7  N   UNL     1       9.351   9.526  19.340  0.00  0.00    +0.000 N 
ATOM      8  C   UNL     1       8.450   9.246  18.324  0.00  0.00    +0.000 C 
ATOM      9  O   UNL     1       8.073  10.045  17.470  0.00  0.00    +0.000 OA
ATOM     10  H   UNL     1       9.706   8.764  19.900  0.00  0.00    +0.000 HD
BRANCH   7  15
ATOM     11  C   UNL     1       9.800  12.758  21.109  0.00  0.00    +0.000 A 
ATOM     12  C   UNL     1      10.817  13.365  20.364  0.00  0.00    +0.000 A 
ATOM     13  C   UNL     1      11.322  12.716  19.243  0.00  0.00    +0.000 A 
ATOM     14  C   UNL     1      10.839  11.453  18.890  0.00  0.00    +0.000 A 
ATOM     15  C   UNL     1       9.856  10.813  19.651  0.00  0.00    +0.000 A 
ATOM     16  C   UNL     1       9.323  11.484  20.757  0.00  0.00    +0.000 A 
BRANCH  11  18
ATOM     17  O   UNL     1       9.348  14.606  22.530  0.00  0.00    +0.000 OA
ATOM     18  C   UNL     1       9.237  13.411  22.315  0.00  0.00    +0.000 C 
BRANCH  18  19
ATOM     19  O   UNL     1       8.637  12.555  23.168  0.00  0.00    +0.000 OA
ATOM     20  H   UNL     1       9.244  12.038  23.729  0.00  0.00    +0.000 HD
ENDBRANCH  18  19
ENDBRANCH  11  18
ENDBRANCH   7  15
ENDBRANCH   1   8
BRANCH   5  21
ATOM     21  S   UNL     1       5.019   5.643  16.410  0.00  0.00    +0.000 S 
ATOM     22  O   UNL     1       5.168   6.339  15.153  0.00  0.00    +0.000 OA
ATOM     23  O   UNL     1       4.965   4.199  16.476  0.00  0.00    +0.000 OA
BRANCH  21  24
ATOM     24  N   UNL     1       3.644   6.212  17.219  0.00  0.00    +0.000 N 
ATOM     25  H   UNL     1       3.073   6.823  16.635  0.00  0.00    +0.000 HD
BRANCH  24  26
ATOM     26  C   UNL     1       2.969   5.318  18.094  0.00  0.00    +0.000 A 
ATOM     27  C   UNL     1       2.036   4.426  17.561  0.00  0.00    +0.000 A 
ATOM     28  C   UNL     1       1.291   3.604  18.408  0.00  0.00    +0.000 A 
ATOM     29  C   UNL     1       1.463   3.696  19.787  0.00  0.00    +0.000 A 
ATOM     30  C   UNL     1       2.395   4.589  20.304  0.00  0.00    +0.000 A 
ATOM     31  F   UNL     1       2.544   4.693  21.630  0.00  0.00    +0.000 F 
ATOM     32  C   UNL     1       3.163   5.394  19.470  0.00  0.00    +0.000 A 
ENDBRANCH  24  26
ENDBRANCH  21  24
ENDBRANCH   5  21
TORSDOF 7
ENDMDL
MODEL 6
REMARK VINA RESULT:      -8.4      6.080      8.190
REMARK  Name = 
REMARK  7 active torsions:
REMARK  status: ('A' for Active; 'I' for Inactive)
REMARK    1  A    between atoms: C_2  and  O_3
REMARK    2  A    between atoms: C_2  and  C_4
REMARK    3  A    between atoms: C_8  and  N_9
REMARK    4  A    between atoms: C_10  and  C_12
REMARK    5  A    between atoms: C_16  and  S_17
REMARK    6  A    between atoms: S_17  and  N_20
REMARK    7  A    between atoms: N_20  and  C_21
REMARK                            x       y       z     vdW  Elec       q    Type
REMARK                         _______ _______ _______ _____ _____    ______ ____
ROOT
ATOM      1  C   UNL     1       2.641   7.232  18.612  0.00  0.00    +0.000 A 
ATOM      2  C   UNL     1       2.221   6.611  19.803  0.00  0.00    +0.000 A 
ATOM      3  C   UNL     1       2.709   5.359  20.177  0.00  0.00    +0.000 A 
ATOM      4  C   UNL     1       3.618   4.703  19.356  0.00  0.00    +0.000 A 
ATOM      5  C   UNL     1       4.018   5.300  18.153  0.00  0.00    +0.000 A 
ATOM      6  C   UNL     1       3.546   6.568  17.776  0.00  0.00    +0.000 A 
ENDROOT
BRANCH   1   8
ATOM      7  N   UNL     1       1.308   9.179  19.327  0.00  0.00    +0.000 N 
ATOM      8  C   UNL     1       2.068   8.582  18.332  0.00  0.00    +0.000 C 
ATOM      9  O   UNL     1       2.298   9.067  17.227  0.00  0.00    +0.000 OA
ATOM     10  H   UNL     1       1.300   8.765  20.249  0.00  0.00    +0.000 HD
BRANCH   7  15
ATOM     11  C   UNL     1      -1.374  11.473  18.178  0.00  0.00    +0.000 A 
ATOM     12  C   UNL     1      -1.041  12.667  18.827  0.00  0.00    +0.000 A 
ATOM     13  C   UNL     1       0.106  12.721  19.611  0.00  0.00    +0.000 A 
ATOM     14  C   UNL     1       0.894  11.579  19.776  0.00  0.00    +0.000 A 
ATOM     15  C   UNL     1       0.548  10.365  19.172  0.00  0.00    +0.000 A 
ATOM     16  C   UNL     1      -0.585  10.323  18.354  0.00  0.00    +0.000 A 
BRANCH  11  18
ATOM     17  O   UNL     1      -3.704  11.207  17.807  0.00  0.00    +0.000 OA
ATOM     18  C   UNL     1      -2.591  11.369  17.338  0.00  0.00    +0.000 C 
BRANCH  18  19
ATOM     19  O   UNL     1      -2.343  11.423  16.012  0.00  0.00    +0.000 OA
ATOM     20  H   UNL     1      -2.792  10.740  15.480  0.00  0.00    +0.000 HD
ENDBRANCH  18  19
ENDBRANCH  11  18
ENDBRANCH   7  15
ENDBRANCH   1   8
BRANCH   5  21
ATOM     21  S   UNL     1       5.202   4.442  17.124  0.00  0.00    +0.000 S 
ATOM     22  O   UNL     1       6.493   4.553  17.762  0.00  0.00    +0.000 OA
ATOM     23  O   UNL     1       4.624   3.157  16.799  0.00  0.00    +0.000 OA
BRANCH  21  24
ATOM     24  N   UNL     1       5.191   5.349  15.693  0.00  0.00    +0.000 N 
ATOM     25  H   UNL     1       5.281   6.350  15.867  0.00  0.00    +0.000 HD
BRANCH  24  26
ATOM     26  C   UNL     1       5.861   4.814  14.561  0.00  0.00    +0.000 A 
ATOM     27  C   UNL     1       7.128   5.300  14.233  0.00  0.00    +0.000 A 
ATOM     28  C   UNL     1       7.768   4.861  13.073  0.00  0.00    +0.000 A 
ATOM     29  C   UNL     1       7.126   3.955  12.231  0.00  0.00    +0.000 A 
ATOM     30  C   UNL     1       5.864   3.480  12.569  0.00  0.00    +0.000 A 
ATOM     31  F   UNL     1       5.239   2.627  11.748  0.00  0.00    +0.000 F 
ATOM     32  C   UNL     1       5.227   3.889  13.736  0.00  0.00    +0.000 A 
ENDBRANCH  24  26
ENDBRANCH  21  24
ENDBRANCH   5  21
TORSDOF 7
ENDMDL
MODEL 7
REMARK VINA RESULT:      -8.3      6.189      8.477
REMARK  Name = 
REMARK  7 active torsions:
REMARK  status: ('A' for Active; 'I' for Inactive)
REMARK    1  A    between atoms: C_2  and  O_3
REMARK    2  A    between atoms: C_2  and  C_4
REMARK    3  A    between atoms: C_8  and  N_9
REMARK    4  A    between atoms: C_10  and  C_12
REMARK    5  A    between atoms: C_16  and  S_17
REMARK    6  A    between atoms: S_17  and  N_20
REMARK    7  A    between atoms: N_20  and  C_21
REMARK                            x       y       z     vdW  Elec       q    Type
REMARK                         _______ _______ _______ _____ _____    ______ ____
ROOT
ATOM      1  C   UNL     1       2.662   7.193  18.681  0.00  0.00    +0.000 A 
ATOM      2  C   UNL     1       2.559   5.969  19.371  0.00  0.00    +0.000 A 
ATOM      3  C   UNL     1       3.428   4.913  19.103  0.00  0.00    +0.000 A 
ATOM      4  C   UNL     1       4.409   5.059  18.129  0.00  0.00    +0.000 A 
ATOM      5  C   UNL     1       4.500   6.262  17.416  0.00  0.00    +0.000 A 
ATOM      6  C   UNL     1       3.641   7.338  17.691  0.00  0.00    +0.000 A 
ENDROOT
BRANCH   1   8
ATOM      7  N   UNL     1       1.097   8.993  18.059  0.00  0.00    +0.000 N 
ATOM      8  C   UNL     1       1.693   8.258  19.073  0.00  0.00    +0.000 C 
ATOM      9  O   UNL     1       1.499   8.419  20.275  0.00  0.00    +0.000 OA
ATOM     10  H   UNL     1       1.211   8.686  17.103  0.00  0.00    +0.000 HD
BRANCH   7  15
ATOM     11  C   UNL     1      -1.894  11.189  18.110  0.00  0.00    +0.000 A 
ATOM     12  C   UNL     1      -1.377  12.383  18.625  0.00  0.00    +0.000 A 
ATOM     13  C   UNL     1      -0.020  12.470  18.911  0.00  0.00    +0.000 A 
ATOM     14  C   UNL     1       0.809  11.362  18.720  0.00  0.00    +0.000 A 
ATOM     15  C   UNL     1       0.298  10.147  18.250  0.00  0.00    +0.000 A 
ATOM     16  C   UNL     1      -1.061  10.072  17.928  0.00  0.00    +0.000 A 
BRANCH  11  18
ATOM     17  O   UNL     1      -3.911   9.974  17.802  0.00  0.00    +0.000 OA
ATOM     18  C   UNL     1      -3.336  11.049  17.796  0.00  0.00    +0.000 C 
BRANCH  18  19
ATOM     19  O   UNL     1      -3.935  12.210  17.458  0.00  0.00    +0.000 OA
ATOM     20  H   UNL     1      -3.432  13.015  17.682  0.00  0.00    +0.000 HD
ENDBRANCH  18  19
ENDBRANCH  11  18
ENDBRANCH   7  15
ENDBRANCH   1   8
BRANCH   5  21
ATOM     21  S   UNL     1       5.782   6.430  16.182  0.00  0.00    +0.000 S 
ATOM     22  O   UNL     1       5.190   7.057  15.023  0.00  0.00    +0.000 OA
ATOM     23  O   UNL     1       6.934   6.997  16.847  0.00  0.00    +0.000 OA
BRANCH  21  24
ATOM     24  N   UNL     1       6.178   4.822  15.822  0.00  0.00    +0.000 N 
ATOM     25  H   UNL     1       5.630   4.156  16.366  0.00  0.00    +0.000 HD
BRANCH  24  26
ATOM     26  C   UNL     1       6.462   4.493  14.469  0.00  0.00    +0.000 A 
ATOM     27  C   UNL     1       7.535   5.120  13.832  0.00  0.00    +0.000 A 
ATOM     28  C   UNL     1       7.778   4.888  12.478  0.00  0.00    +0.000 A 
ATOM     29  C   UNL     1       6.930   4.048  11.759  0.00  0.00    +0.000 A 
ATOM     30  C   UNL     1       5.865   3.431  12.405  0.00  0.00    +0.000 A 
ATOM     31  F   UNL     1       5.038   2.642  11.709  0.00  0.00    +0.000 F 
ATOM     32  C   UNL     1       5.628   3.633  13.761  0.00  0.00    +0.000 A 
ENDBRANCH  24  26
ENDBRANCH  21  24
ENDBRANCH   5  21
TORSDOF 7
ENDMDL
MODEL 8
REMARK VINA RESULT:      -8.3      5.434      7.695
REMARK  Name = 
REMARK  7 active torsions:
REMARK  status: ('A' for Active; 'I' for Inactive)
REMARK    1  A    between atoms: C_2  and  O_3
REMARK    2  A    between atoms: C_2  and  C_4
REMARK    3  A    between atoms: C_8  and  N_9
REMARK    4  A    between atoms: C_10  and  C_12
REMARK    5  A    between atoms: C_16  and  S_17
REMARK    6  A    between atoms: S_17  and  N_20
REMARK    7  A    between atoms: N_20  and  C_21
REMARK                            x       y       z     vdW  Elec       q    Type
REMARK                         _______ _______ _______ _____ _____    ______ ____
ROOT
ATOM      1  C   UNL     1       2.243   6.769  19.247  0.00  0.00    +0.000 A 
ATOM      2  C   UNL     1       1.805   6.460  20.548  0.00  0.00    +0.000 A 
ATOM      3  C   UNL     1       2.021   5.200  21.104  0.00  0.00    +0.000 A 
ATOM      4  C   UNL     1       2.670   4.223  20.359  0.00  0.00    +0.000 A 
ATOM      5  C   UNL     1       3.082   4.511  19.052  0.00  0.00    +0.000 A 
ATOM      6  C   UNL     1       2.885   5.783  18.489  0.00  0.00    +0.000 A 
ENDROOT
BRANCH   1   8
ATOM      7  N   UNL     1       1.182   8.972  19.567  0.00  0.00    +0.000 N 
ATOM      8  C   UNL     1       1.976   8.159  18.771  0.00  0.00    +0.000 C 
ATOM      9  O   UNL     1       2.470   8.484  17.694  0.00  0.00    +0.000 OA
ATOM     10  H   UNL     1       0.948   8.662  20.499  0.00  0.00    +0.000 HD
BRANCH   7  15
ATOM     11  C   UNL     1      -1.078  11.546  18.138  0.00  0.00    +0.000 A 
ATOM     12  C   UNL     1      -0.398  12.733  18.432  0.00  0.00    +0.000 A 
ATOM     13  C   UNL     1       0.837  12.673  19.066  0.00  0.00    +0.000 A 
ATOM     14  C   UNL     1       1.373  11.437  19.437  0.00  0.00    +0.000 A 
ATOM     15  C   UNL     1       0.685  10.244  19.192  0.00  0.00    +0.000 A 
ATOM     16  C   UNL     1      -0.541  10.305  18.521  0.00  0.00    +0.000 A 
BRANCH  11  18
ATOM     17  O   UNL     1      -3.452  11.546  18.085  0.00  0.00    +0.000 OA
ATOM     18  C   UNL     1      -2.400  11.564  17.469  0.00  0.00    +0.000 C 
BRANCH  18  19
ATOM     19  O   UNL     1      -2.329  11.552  16.121  0.00  0.00    +0.000 OA
ATOM     20  H   UNL     1      -3.181  11.666  15.661  0.00  0.00    +0.000 HD
ENDBRANCH  18  19
ENDBRANCH  11  18
ENDBRANCH   7  15
ENDBRANCH   1   8
BRANCH   5  21
ATOM     21  S   UNL     1       3.931   3.242  18.122  0.00  0.00    +0.000 S 
ATOM     22  O   UNL     1       3.507   1.964  18.644  0.00  0.00    +0.000 OA
ATOM     23  O   UNL     1       3.785   3.576  16.723  0.00  0.00    +0.000 OA
BRANCH  21  24
ATOM     24  N   UNL     1       5.558   3.508  18.512  0.00  0.00    +0.000 N 
ATOM     25  H   UNL     1       6.114   2.655  18.464  0.00  0.00    +0.000 HD
BRANCH  24  26
ATOM     26  C   UNL     1       6.161   4.714  18.063  0.00  0.00    +0.000 A 
ATOM     27  C   UNL     1       5.956   5.122  16.743  0.00  0.00    +0.000 A 
ATOM     28  C   UNL     1       6.612   6.250  16.248  0.00  0.00    +0.000 A 
ATOM     29  C   UNL     1       7.493   6.951  17.069  0.00  0.00    +0.000 A 
ATOM     30  C   UNL     1       7.688   6.534  18.381  0.00  0.00    +0.000 A 
ATOM     31  F   UNL     1       8.552   7.195  19.161  0.00  0.00    +0.000 F 
ATOM     32  C   UNL     1       7.020   5.427  18.894  0.00  0.00    +0.000 A 
ENDBRANCH  24  26
ENDBRANCH  21  24
ENDBRANCH   5  21
TORSDOF 7
ENDMDL
MODEL 9
REMARK VINA RESULT:      -8.3      6.780      9.306
REMARK  Name = 
REMARK  7 active torsions:
REMARK  status: ('A' for Active; 'I' for Inactive)
REMARK    1  A    between atoms: C_2  and  O_3
REMARK    2  A    between atoms: C_2  and  C_4
REMARK    3  A    between atoms: C_8  and  N_9
REMARK    4  A    between atoms: C_10  and  C_12
REMARK    5  A    between atoms: C_16  and  S_17
REMARK    6  A    between atoms: S_17  and  N_20
REMARK    7  A    between atoms: N_20  and  C_21
REMARK                            x       y       z     vdW  Elec       q    Type
REMARK                         _______ _______ _______ _____ _____    ______ ____
ROOT
ATOM      1  C   UNL     1       1.151   8.503  20.574  0.00  0.00    +0.000 A 
ATOM      2  C   UNL     1       0.401   8.465  21.764  0.00  0.00    +0.000 A 
ATOM      3  C   UNL     1      -0.271   9.594  22.232  0.00  0.00    +0.000 A 
ATOM      4  C   UNL     1      -0.191  10.785  21.520  0.00  0.00    +0.000 A 
ATOM      5  C   UNL     1       0.578  10.840  20.351  0.00  0.00    +0.000 A 
ATOM      6  C   UNL     1       1.244   9.704  19.862  0.00  0.00    +0.000 A 
ENDROOT
BRANCH   1   8
ATOM      7  N   UNL     1       2.416   7.185  18.918  0.00  0.00    +0.000 N 
ATOM      8  C   UNL     1       1.803   7.225  20.162  0.00  0.00    +0.000 C 
ATOM      9  O   UNL     1       1.739   6.286  20.952  0.00  0.00    +0.000 OA
ATOM     10  H   UNL     1       2.542   8.048  18.409  0.00  0.00    +0.000 HD
BRANCH   7  15
ATOM     11  C   UNL     1       4.843   4.811  17.418  0.00  0.00    +0.000 A 
ATOM     12  C   UNL     1       4.028   3.723  17.088  0.00  0.00    +0.000 A 
ATOM     13  C   UNL     1       2.660   3.799  17.323  0.00  0.00    +0.000 A 
ATOM     14  C   UNL     1       2.116   4.940  17.918  0.00  0.00    +0.000 A 
ATOM     15  C   UNL     1       2.924   6.017  18.296  0.00  0.00    +0.000 A 
ATOM     16  C   UNL     1       4.294   5.953  18.025  0.00  0.00    +0.000 A 
BRANCH  11  18
ATOM     17  O   UNL     1       6.829   5.201  16.176  0.00  0.00    +0.000 OA
ATOM     18  C   UNL     1       6.307   4.771  17.190  0.00  0.00    +0.000 C 
BRANCH  18  19
ATOM     19  O   UNL     1       6.997   4.173  18.184  0.00  0.00    +0.000 OA
ATOM     20  H   UNL     1       6.763   3.240  18.347  0.00  0.00    +0.000 HD
ENDBRANCH  18  19
ENDBRANCH  11  18
ENDBRANCH   7  15
ENDBRANCH   1   8
BRANCH   5  21
ATOM     21  S   UNL     1       0.649  12.380  19.445  0.00  0.00    +0.000 S 
ATOM     22  O   UNL     1      -0.142  13.347  20.169  0.00  0.00    +0.000 OA
ATOM     23  O   UNL     1       2.040  12.619  19.129  0.00  0.00    +0.000 OA
BRANCH  21  24
ATOM     24  N   UNL     1      -0.116  11.996  17.982  0.00  0.00    +0.000 N 
ATOM     25  H   UNL     1       0.533  11.621  17.291  0.00  0.00    +0.000 HD
BRANCH  24  26
ATOM     26  C   UNL     1      -1.417  11.428  18.041  0.00  0.00    +0.000 A 
ATOM     27  C   UNL     1      -1.637  10.179  17.457  0.00  0.00    +0.000 A 
ATOM     28  C   UNL     1      -2.924   9.641  17.417  0.00  0.00    +0.000 A 
ATOM     29  C   UNL     1      -3.993  10.368  17.937  0.00  0.00    +0.000 A 
ATOM     30  C   UNL     1      -3.760  11.611  18.515  0.00  0.00    +0.000 A 
ATOM     31  F   UNL     1      -4.790  12.318  18.995  0.00  0.00    +0.000 F 
ATOM     32  C   UNL     1      -2.478  12.146  18.586  0.00  0.00    +0.000 A 
ENDBRANCH  24  26
ENDBRANCH  21  24
ENDBRANCH   5  21
TORSDOF 7
ENDMDL
