MODEL 1
REMARK VINA RESULT:      -8.0      0.000      0.000
REMARK  Name = 
REMARK  8 active torsions:
REMARK  status: ('A' for Active; 'I' for Inactive)
REMARK    1  A    between atoms: C_1  and  C_2
REMARK    2  A    between atoms: C_5  and  O_6
REMARK    3  A    between atoms: O_6  and  C_7
REMARK    4  A    between atoms: C_7  and  C_8
REMARK    5  A    between atoms: N_11  and  S_12
REMARK    6  A    between atoms: S_12  and  C_15
REMARK    7  A    between atoms: C_16  and  C_17
REMARK    8  A    between atoms: C_20  and  C_21
REMARK                            x       y       z     vdW  Elec       q    Type
REMARK                         _______ _______ _______ _____ _____    ______ ____
ROOT
ATOM      1  C   UNL     1       7.292   6.150  17.641  0.00  0.00    +0.000 C 
ATOM      2  C   UNL     1       6.821   5.522  18.959  0.00  0.00    +0.000 C 
ATOM      3  C   UNL     1       5.464   4.831  18.822  0.00  0.00    +0.000 C 
ATOM      4  N   UNL     1       4.431   5.755  18.266  0.00  0.00    +0.000 NA
ATOM      5  C   UNL     1       4.855   6.483  17.029  0.00  0.00    +0.000 C 
ATOM      6  C   UNL     1       6.220   7.145  17.193  0.00  0.00    +0.000 C 
ENDROOT
BRANCH   4   7
ATOM      7  S   UNL     1       2.906   4.971  18.018  0.00  0.00    +0.000 S 
ATOM      8  O   UNL     1       1.878   5.983  17.969  0.00  0.00    +0.000 OA
ATOM      9  O   UNL     1       3.072   4.023  16.935  0.00  0.00    +0.000 OA
BRANCH   7  10
ATOM     10  C   UNL     1       2.503   4.031  19.398  0.00  0.00    +0.000 A 
ATOM     11  C   UNL     1       1.911   4.525  20.587  0.00  0.00    +0.000 A 
ATOM     12  C   UNL     1       1.566   5.915  20.978  0.00  0.00    +0.000 C 
ATOM     13  N   UNL     1       1.656   3.533  21.453  0.00  0.00    +0.000 NA
ATOM     14  N   UNL     1       2.068   2.427  20.820  0.00  0.00    +0.000 N 
ATOM     15  C   UNL     1       2.643   2.669  19.604  0.00  0.00    +0.000 A 
ATOM     16  C   UNL     1       3.219   1.572  18.791  0.00  0.00    +0.000 C 
ATOM     17  H   UNL     1       1.938   1.535  21.286  0.00  0.00    +0.000 HD
ENDBRANCH   7  10
ENDBRANCH   4   7
BRANCH   1  18
ATOM     18  C   UNL     1       7.591   5.077  16.578  0.00  0.00    +0.000 C 
BRANCH  18  19
ATOM     19  O   UNL     1       7.710   5.673  15.279  0.00  0.00    +0.000 OA
BRANCH  19  24
ATOM     20  C   UNL     1       5.208   2.632  11.315  0.00  0.00    +0.000 C 
ATOM     21  C   UNL     1       5.829   3.419  12.423  0.00  0.00    +0.000 A 
ATOM     22  C   UNL     1       5.279   3.476  13.697  0.00  0.00    +0.000 A 
ATOM     23  C   UNL     1       5.919   4.242  14.668  0.00  0.00    +0.000 A 
ATOM     24  C   UNL     1       7.074   4.908  14.314  0.00  0.00    +0.000 A 
ATOM     25  N   UNL     1       7.586   4.834  13.068  0.00  0.00    +0.000 NA
ATOM     26  N   UNL     1       6.963   4.083  12.117  0.00  0.00    +0.000 NA
ENDBRANCH  19  24
ENDBRANCH  18  19
ENDBRANCH   1  18
TORSDOF 5
ENDMDL
MODEL 2
REMARK VINA RESULT:      -7.9      0.229      1.643
REMARK  Name = 
REMARK  8 active torsions:
REMARK  status: ('A' for Active; 'I' for Inactive)
REMARK    1  A    between atoms: C_1  and  C_2
REMARK    2  A    between atoms: C_5  and  O_6
REMARK    3  A    between atoms: O_6  and  C_7
REMARK    4  A    between atoms: C_7  and  C_8
REMARK    5  A    between atoms: N_11  and  S_12
REMARK    6  A    between atoms: S_12  and  C_15
REMARK    7  A    between atoms: C_16  and  C_17
REMARK    8  A    between atoms: C_20  and  C_21
REMARK                            x       y       z     vdW  Elec       q    Type
REMARK                         _______ _______ _______ _____ _____    ______ ____
ROOT
ATOM      1  C   UNL     1       7.351   6.188  17.879  0.00  0.00    +0.000 C 
ATOM      2  C   UNL     1       6.822   5.496  19.143  0.00  0.00    +0.000 C 
ATOM      3  C   UNL     1       5.457   4.844  18.920  0.00  0.00    +0.000 C 
ATOM      4  N   UNL     1       4.462   5.820  18.384  0.00  0.00    +0.000 NA
ATOM      5  C   UNL     1       4.944   6.608  17.206  0.00  0.00    +0.000 C 
ATOM      6  C   UNL     1       6.315   7.230  17.454  0.00  0.00    +0.000 C 
ENDROOT
BRANCH   4   7
ATOM      7  S   UNL     1       2.932   5.085  18.039  0.00  0.00    +0.000 S 
ATOM      8  O   UNL     1       1.957   6.133  17.849  0.00  0.00    +0.000 OA
ATOM      9  O   UNL     1       3.150   4.075  17.023  0.00  0.00    +0.000 OA
BRANCH   7  10
ATOM     10  C   UNL     1       2.369   4.236  19.423  0.00  0.00    +0.000 A 
ATOM     11  C   UNL     1       2.439   2.834  19.615  0.00  0.00    +0.000 A 
ATOM     12  C   UNL     1       2.916   1.766  18.700  0.00  0.00    +0.000 C 
ATOM     13  N   UNL     1       1.980   2.484  20.825  0.00  0.00    +0.000 NA
ATOM     14  N   UNL     1       1.637   3.645  21.397  0.00  0.00    +0.000 N 
ATOM     15  C   UNL     1       1.791   4.730  20.580  0.00  0.00    +0.000 A 
ATOM     16  C   UNL     1       1.396   6.090  21.020  0.00  0.00    +0.000 C 
ATOM     17  H   UNL     1       1.288   3.622  22.350  0.00  0.00    +0.000 HD
ENDBRANCH   7  10
ENDBRANCH   4   7
BRANCH   1  18
ATOM     18  C   UNL     1       7.666   5.171  16.767  0.00  0.00    +0.000 C 
BRANCH  18  19
ATOM     19  O   UNL     1       7.695   5.817  15.487  0.00  0.00    +0.000 OA
BRANCH  19  24
ATOM     20  C   UNL     1       5.370   2.692  11.481  0.00  0.00    +0.000 C 
ATOM     21  C   UNL     1       5.948   3.494  12.600  0.00  0.00    +0.000 A 
ATOM     22  C   UNL     1       5.446   3.442  13.894  0.00  0.00    +0.000 A 
ATOM     23  C   UNL     1       6.040   4.231  14.875  0.00  0.00    +0.000 A 
ATOM     24  C   UNL     1       7.105   5.029  14.512  0.00  0.00    +0.000 A 
ATOM     25  N   UNL     1       7.573   5.060  13.246  0.00  0.00    +0.000 NA
ATOM     26  N   UNL     1       6.995   4.287  12.285  0.00  0.00    +0.000 NA
ENDBRANCH  19  24
ENDBRANCH  18  19
ENDBRANCH   1  18
TORSDOF 5
ENDMDL
MODEL 3
REMARK VINA RESULT:      -7.7      1.342      2.048
REMARK  Name = 
REMARK  8 active torsions:
REMARK  status: ('A' for Active; 'I' for Inactive)
REMARK    1  A    between atoms: C_1  and  C_2
REMARK    2  A    between atoms: C_5  and  O_6
REMARK    3  A    between atoms: O_6  and  C_7
REMARK    4  A    between atoms: C_7  and  C_8
REMARK    5  A    between atoms: N_11  and  S_12
REMARK    6  A    between atoms: S_12  and  C_15
REMARK    7  A    between atoms: C_16  and  C_17
REMARK    8  A    between atoms: C_20  and  C_21
REMARK                            x       y       z     vdW  Elec       q    Type
REMARK                         _______ _______ _______ _____ _____    ______ ____
ROOT
ATOM      1  C   UNL     1       7.188   6.091  17.588  0.00  0.00    +0.000 C 
ATOM      2  C   UNL     1       6.942   5.621  19.028  0.00  0.00    +0.000 C 
ATOM      3  C   UNL     1       5.507   5.138  19.244  0.00  0.00    +0.000 C 
ATOM      4  N   UNL     1       4.511   6.173  18.838  0.00  0.00    +0.000 NA
ATOM      5  C   UNL     1       4.744   6.755  17.479  0.00  0.00    +0.000 C 
ATOM      6  C   UNL     1       6.188   7.210  17.289  0.00  0.00    +0.000 C 
ENDROOT
BRANCH   4   7
ATOM      7  S   UNL     1       2.878   5.618  18.990  0.00  0.00    +0.000 S 
ATOM      8  O   UNL     1       2.342   6.117  20.234  0.00  0.00    +0.000 OA
ATOM      9  O   UNL     1       2.208   5.876  17.732  0.00  0.00    +0.000 OA
BRANCH   7  10
ATOM     10  C   UNL     1       2.859   3.911  19.183  0.00  0.00    +0.000 A 
ATOM     11  C   UNL     1       3.180   2.964  18.178  0.00  0.00    +0.000 A 
ATOM     12  C   UNL     1       3.524   3.167  16.748  0.00  0.00    +0.000 C 
ATOM     13  N   UNL     1       3.140   1.713  18.657  0.00  0.00    +0.000 NA
ATOM     14  N   UNL     1       2.811   1.862  19.947  0.00  0.00    +0.000 N 
ATOM     15  C   UNL     1       2.570   3.157  20.309  0.00  0.00    +0.000 A 
ATOM     16  C   UNL     1       2.127   3.506  21.679  0.00  0.00    +0.000 C 
ATOM     17  H   UNL     1       2.756   1.028  20.523  0.00  0.00    +0.000 HD
ENDBRANCH   7  10
ENDBRANCH   4   7
BRANCH   1  18
ATOM     18  C   UNL     1       7.094   4.925  16.588  0.00  0.00    +0.000 C 
BRANCH  18  19
ATOM     19  O   UNL     1       7.600   5.318  15.305  0.00  0.00    +0.000 OA
BRANCH  19  24
ATOM     20  C   UNL     1       4.641   2.897  11.231  0.00  0.00    +0.000 C 
ATOM     21  C   UNL     1       5.485   3.557  12.272  0.00  0.00    +0.000 A 
ATOM     22  C   UNL     1       6.796   3.948  12.032  0.00  0.00    +0.000 A 
ATOM     23  C   UNL     1       7.515   4.548  13.063  0.00  0.00    +0.000 A 
ATOM     24  C   UNL     1       6.885   4.725  14.278  0.00  0.00    +0.000 A 
ATOM     25  N   UNL     1       5.609   4.334  14.483  0.00  0.00    +0.000 NA
ATOM     26  N   UNL     1       4.904   3.750  13.474  0.00  0.00    +0.000 NA
ENDBRANCH  19  24
ENDBRANCH  18  19
ENDBRANCH   1  18
TORSDOF 5
ENDMDL
MODEL 4
REMARK VINA RESULT:      -7.6      1.331      1.633
REMARK  Name = 
REMARK  8 active torsions:
REMARK  status: ('A' for Active; 'I' for Inactive)
REMARK    1  A    between atoms: C_1  and  C_2
REMARK    2  A    between atoms: C_5  and  O_6
REMARK    3  A    between atoms: O_6  and  C_7
REMARK    4  A    between atoms: C_7  and  C_8
REMARK    5  A    between atoms: N_11  and  S_12
REMARK    6  A    between atoms: S_12  and  C_15
REMARK    7  A    between atoms: C_16  and  C_17
REMARK    8  A    between atoms: C_20  and  C_21
REMARK                            x       y       z     vdW  Elec       q    Type
REMARK                         _______ _______ _______ _____ _____    ______ ____
ROOT
ATOM      1  C   UNL     1       7.129   5.981  17.641  0.00  0.00    +0.000 C 
ATOM      2  C   UNL     1       6.842   5.485  19.065  0.00  0.00    +0.000 C 
ATOM      3  C   UNL     1       5.386   5.052  19.246  0.00  0.00    +0.000 C 
ATOM      4  N   UNL     1       4.437   6.135  18.852  0.00  0.00    +0.000 NA
ATOM      5  C   UNL     1       4.714   6.740  17.511  0.00  0.00    +0.000 C 
ATOM      6  C   UNL     1       6.177   7.144  17.355  0.00  0.00    +0.000 C 
ENDROOT
BRANCH   4   7
ATOM      7  S   UNL     1       2.782   5.639  18.964  0.00  0.00    +0.000 S 
ATOM      8  O   UNL     1       2.261   6.078  20.238  0.00  0.00    +0.000 OA
ATOM      9  O   UNL     1       2.128   6.006  17.725  0.00  0.00    +0.000 OA
BRANCH   7  10
ATOM     10  C   UNL     1       2.692   3.925  19.045  0.00  0.00    +0.000 A 
ATOM     11  C   UNL     1       2.386   3.169  20.203  0.00  0.00    +0.000 A 
ATOM     12  C   UNL     1       2.150   3.613  21.601  0.00  0.00    +0.000 C 
ATOM     13  N   UNL     1       2.325   1.858  19.928  0.00  0.00    +0.000 NA
ATOM     14  N   UNL     1       2.574   1.784  18.614  0.00  0.00    +0.000 N 
ATOM     15  C   UNL     1       2.863   2.989  18.038  0.00  0.00    +0.000 A 
ATOM     16  C   UNL     1       3.232   3.091  16.606  0.00  0.00    +0.000 C 
ATOM     17  H   UNL     1       2.545   0.869  18.175  0.00  0.00    +0.000 HD
ENDBRANCH   7  10
ENDBRANCH   4   7
BRANCH   1  18
ATOM     18  C   UNL     1       7.008   4.844  16.611  0.00  0.00    +0.000 C 
BRANCH  18  19
ATOM     19  O   UNL     1       7.529   5.257  15.340  0.00  0.00    +0.000 OA
BRANCH  19  24
ATOM     20  C   UNL     1       4.633   2.883  11.194  0.00  0.00    +0.000 C 
ATOM     21  C   UNL     1       5.462   3.529  12.255  0.00  0.00    +0.000 A 
ATOM     22  C   UNL     1       6.781   3.907  12.045  0.00  0.00    +0.000 A 
ATOM     23  C   UNL     1       7.484   4.495  13.094  0.00  0.00    +0.000 A 
ATOM     24  C   UNL     1       6.831   4.674  14.295  0.00  0.00    +0.000 A 
ATOM     25  N   UNL     1       5.546   4.298  14.471  0.00  0.00    +0.000 NA
ATOM     26  N   UNL     1       4.856   3.725  13.446  0.00  0.00    +0.000 NA
ENDBRANCH  19  24
ENDBRANCH  18  19
ENDBRANCH   1  18
TORSDOF 5
ENDMDL
MODEL 5
REMARK VINA RESULT:      -7.2      3.312      5.839
REMARK  Name = 
REMARK  8 active torsions:
REMARK  status: ('A' for Active; 'I' for Inactive)
REMARK    1  A    between atoms: C_1  and  C_2
REMARK    2  A    between atoms: C_5  and  O_6
REMARK    3  A    between atoms: O_6  and  C_7
REMARK    4  A    between atoms: C_7  and  C_8
REMARK    5  A    between atoms: N_11  and  S_12
REMARK    6  A    between atoms: S_12  and  C_15
REMARK    7  A    between atoms: C_16  and  C_17
REMARK    8  A    between atoms: C_20  and  C_21
REMARK                            x       y       z     vdW  Elec       q    Type
REMARK                         _______ _______ _______ _____ _____    ______ ____
ROOT
ATOM      1  C   UNL     1       7.606   6.463  17.777  0.00  0.00    +0.000 C 
ATOM      2  C   UNL     1       7.026   5.754  16.547  0.00  0.00    +0.000 C 
ATOM      3  C   UNL     1       5.504   5.618  16.618  0.00  0.00    +0.000 C 
ATOM      4  N   UNL     1       5.070   4.948  17.880  0.00  0.00    +0.000 NA
ATOM      5  C   UNL     1       5.675   5.523  19.122  0.00  0.00    +0.000 C 
ATOM      6  C   UNL     1       7.190   5.662  19.013  0.00  0.00    +0.000 C 
ENDROOT
BRANCH   4   7
ATOM      7  S   UNL     1       3.347   4.861  18.025  0.00  0.00    +0.000 S 
ATOM      8  O   UNL     1       2.825   6.207  18.058  0.00  0.00    +0.000 OA
ATOM      9  O   UNL     1       2.872   3.901  17.051  0.00  0.00    +0.000 OA
BRANCH   7  10
ATOM     10  C   UNL     1       2.925   4.212  19.559  0.00  0.00    +0.000 A 
ATOM     11  C   UNL     1       3.288   2.930  20.040  0.00  0.00    +0.000 A 
ATOM     12  C   UNL     1       4.023   1.829  19.367  0.00  0.00    +0.000 C 
ATOM     13  N   UNL     1       2.866   2.744  21.299  0.00  0.00    +0.000 NA
ATOM     14  N   UNL     1       2.256   3.893  21.617  0.00  0.00    +0.000 N 
ATOM     15  C   UNL     1       2.205   4.794  20.590  0.00  0.00    +0.000 A 
ATOM     16  C   UNL     1       1.508   6.093  20.737  0.00  0.00    +0.000 C 
ATOM     17  H   UNL     1       1.882   3.990  22.555  0.00  0.00    +0.000 HD
ENDBRANCH   7  10
ENDBRANCH   4   7
BRANCH   1  18
ATOM     18  C   UNL     1       7.161   7.936  17.843  0.00  0.00    +0.000 C 
BRANCH  18  19
ATOM     19  O   UNL     1       8.126   8.784  17.207  0.00  0.00    +0.000 OA
BRANCH  19  24
ATOM     20  C   UNL     1       9.975  12.665  20.775  0.00  0.00    +0.000 C 
ATOM     21  C   UNL     1       9.475  11.680  19.770  0.00  0.00    +0.000 A 
ATOM     22  C   UNL     1       9.015  12.060  18.517  0.00  0.00    +0.000 A 
ATOM     23  C   UNL     1       8.557  11.075  17.645  0.00  0.00    +0.000 A 
ATOM     24  C   UNL     1       8.584   9.764  18.072  0.00  0.00    +0.000 A 
ATOM     25  N   UNL     1       9.038   9.423  19.297  0.00  0.00    +0.000 NA
ATOM     26  N   UNL     1       9.489  10.384  20.150  0.00  0.00    +0.000 NA
ENDBRANCH  19  24
ENDBRANCH  18  19
ENDBRANCH   1  18
TORSDOF 5
ENDMDL
MODEL 6
REMARK VINA RESULT:      -7.1      3.394      5.569
REMARK  Name = 
REMARK  8 active torsions:
REMARK  status: ('A' for Active; 'I' for Inactive)
REMARK    1  A    between atoms: C_1  and  C_2
REMARK    2  A    between atoms: C_5  and  O_6
REMARK    3  A    between atoms: O_6  and  C_7
REMARK    4  A    between atoms: C_7  and  C_8
REMARK    5  A    between atoms: N_11  and  S_12
REMARK    6  A    between atoms: S_12  and  C_15
REMARK    7  A    between atoms: C_16  and  C_17
REMARK    8  A    between atoms: C_20  and  C_21
REMARK                            x       y       z     vdW  Elec       q    Type
REMARK                         _______ _______ _______ _____ _____    ______ ____
ROOT
ATOM      1  C   UNL     1       7.642   6.456  17.686  0.00  0.00    +0.000 C 
ATOM      2  C   UNL     1       6.981   5.839  16.446  0.00  0.00    +0.000 C 
ATOM      3  C   UNL     1       5.466   5.699  16.604  0.00  0.00    +0.000 C 
ATOM      4  N   UNL     1       5.109   4.939  17.839  0.00  0.00    +0.000 NA
ATOM      5  C   UNL     1       5.794   5.421  19.079  0.00  0.00    +0.000 C 
ATOM      6  C   UNL     1       7.301   5.566  18.883  0.00  0.00    +0.000 C 
ENDROOT
BRANCH   4   7
ATOM      7  S   UNL     1       3.398   4.843  18.087  0.00  0.00    +0.000 S 
ATOM      8  O   UNL     1       2.884   6.185  18.234  0.00  0.00    +0.000 OA
ATOM      9  O   UNL     1       2.860   3.944  17.088  0.00  0.00    +0.000 OA
BRANCH   7  10
ATOM     10  C   UNL     1       3.071   4.102  19.602  0.00  0.00    +0.000 A 
ATOM     11  C   UNL     1       2.272   4.654  20.634  0.00  0.00    +0.000 A 
ATOM     12  C   UNL     1       1.600   5.976  20.721  0.00  0.00    +0.000 C 
ATOM     13  N   UNL     1       2.150   3.804  21.664  0.00  0.00    +0.000 NA
ATOM     14  N   UNL     1       2.850   2.726  21.288  0.00  0.00    +0.000 N 
ATOM     15  C   UNL     1       3.478   2.868  20.082  0.00  0.00    +0.000 A 
ATOM     16  C   UNL     1       4.353   1.803  19.537  0.00  0.00    +0.000 C 
ATOM     17  H   UNL     1       2.868   1.927  21.914  0.00  0.00    +0.000 HD
ENDBRANCH   7  10
ENDBRANCH   4   7
BRANCH   1  18
ATOM     18  C   UNL     1       7.210   7.919  17.888  0.00  0.00    +0.000 C 
BRANCH  18  19
ATOM     19  O   UNL     1       8.074   8.805  17.164  0.00  0.00    +0.000 OA
BRANCH  19  24
ATOM     20  C   UNL     1       9.861  13.056  20.319  0.00  0.00    +0.000 C 
ATOM     21  C   UNL     1       9.395  11.875  19.532  0.00  0.00    +0.000 A 
ATOM     22  C   UNL     1       9.495  10.574  20.008  0.00  0.00    +0.000 A 
ATOM     23  C   UNL     1       9.044   9.531  19.204  0.00  0.00    +0.000 A 
ATOM     24  C   UNL     1       8.519   9.843  17.967  0.00  0.00    +0.000 A 
ATOM     25  N   UNL     1       8.434  11.117  17.529  0.00  0.00    +0.000 NA
ATOM     26  N   UNL     1       8.872  12.140  18.316  0.00  0.00    +0.000 NA
ENDBRANCH  19  24
ENDBRANCH  18  19
ENDBRANCH   1  18
TORSDOF 5
ENDMDL
MODEL 7
REMARK VINA RESULT:      -7.1      1.500      1.886
REMARK  Name = 
REMARK  8 active torsions:
REMARK  status: ('A' for Active; 'I' for Inactive)
REMARK    1  A    between atoms: C_1  and  C_2
REMARK    2  A    between atoms: C_5  and  O_6
REMARK    3  A    between atoms: O_6  and  C_7
REMARK    4  A    between atoms: C_7  and  C_8
REMARK    5  A    between atoms: N_11  and  S_12
REMARK    6  A    between atoms: S_12  and  C_15
REMARK    7  A    between atoms: C_16  and  C_17
REMARK    8  A    between atoms: C_20  and  C_21
REMARK                            x       y       z     vdW  Elec       q    Type
REMARK                         _______ _______ _______ _____ _____    ______ ____
ROOT
ATOM      1  C   UNL     1       6.901   6.320  17.677  0.00  0.00    +0.000 C 
ATOM      2  C   UNL     1       7.097   5.735  19.082  0.00  0.00    +0.000 C 
ATOM      3  C   UNL     1       6.381   4.396  19.259  0.00  0.00    +0.000 C 
ATOM      4  N   UNL     1       4.931   4.497  18.915  0.00  0.00    +0.000 NA
ATOM      5  C   UNL     1       4.654   5.150  17.597  0.00  0.00    +0.000 C 
ATOM      6  C   UNL     1       5.397   6.474  17.445  0.00  0.00    +0.000 C 
ENDROOT
BRANCH   4   7
ATOM      7  S   UNL     1       4.116   2.973  19.023  0.00  0.00    +0.000 S 
ATOM      8  O   UNL     1       3.941   2.456  17.686  0.00  0.00    +0.000 OA
ATOM      9  O   UNL     1       4.783   2.191  20.043  0.00  0.00    +0.000 OA
BRANCH   7  10
ATOM     10  C   UNL     1       2.513   3.209  19.593  0.00  0.00    +0.000 A 
ATOM     11  C   UNL     1       1.448   3.774  18.849  0.00  0.00    +0.000 A 
ATOM     12  C   UNL     1       1.439   4.354  17.482  0.00  0.00    +0.000 C 
ATOM     13  N   UNL     1       0.304   3.760  19.547  0.00  0.00    +0.000 NA
ATOM     14  N   UNL     1       0.633   3.184  20.711  0.00  0.00    +0.000 N 
ATOM     15  C   UNL     1       1.962   2.885  20.822  0.00  0.00    +0.000 A 
ATOM     16  C   UNL     1       2.521   2.307  22.067  0.00  0.00    +0.000 C 
ATOM     17  H   UNL     1      -0.103   3.036  21.394  0.00  0.00    +0.000 HD
ENDBRANCH   7  10
ENDBRANCH   4   7
BRANCH   1  18
ATOM     18  C   UNL     1       7.584   5.453  16.603  0.00  0.00    +0.000 C 
BRANCH  18  19
ATOM     19  O   UNL     1       7.496   6.080  15.317  0.00  0.00    +0.000 OA
BRANCH  19  24
ATOM     20  C   UNL     1       5.874   2.515  11.333  0.00  0.00    +0.000 C 
ATOM     21  C   UNL     1       6.262   3.435  12.444  0.00  0.00    +0.000 A 
ATOM     22  C   UNL     1       5.617   3.433  13.674  0.00  0.00    +0.000 A 
ATOM     23  C   UNL     1       6.038   4.332  14.651  0.00  0.00    +0.000 A 
ATOM     24  C   UNL     1       7.079   5.184  14.347  0.00  0.00    +0.000 A 
ATOM     25  N   UNL     1       7.688   5.163  13.142  0.00  0.00    +0.000 NA
ATOM     26  N   UNL     1       7.281   4.282  12.186  0.00  0.00    +0.000 NA
ENDBRANCH  19  24
ENDBRANCH  18  19
ENDBRANCH   1  18
TORSDOF 5
ENDMDL
MODEL 8
REMARK VINA RESULT:      -7.0      3.742      5.991
REMARK  Name = 
REMARK  8 active torsions:
REMARK  status: ('A' for Active; 'I' for Inactive)
REMARK    1  A    between atoms: C_1  and  C_2
REMARK    2  A    between atoms: C_5  and  O_6
REMARK    3  A    between atoms: O_6  and  C_7
REMARK    4  A    between atoms: C_7  and  C_8
REMARK    5  A    between atoms: N_11  and  S_12
REMARK    6  A    between atoms: S_12  and  C_15
REMARK    7  A    between atoms: C_16  and  C_17
REMARK    8  A    between atoms: C_20  and  C_21
REMARK                            x       y       z     vdW  Elec       q    Type
REMARK                         _______ _______ _______ _____ _____    ______ ____
ROOT
ATOM      1  C   UNL     1       7.695   6.733  17.297  0.00  0.00    +0.000 C 
ATOM      2  C   UNL     1       6.649   6.376  16.233  0.00  0.00    +0.000 C 
ATOM      3  C   UNL     1       5.228   6.357  16.797  0.00  0.00    +0.000 C 
ATOM      4  N   UNL     1       5.119   5.456  17.983  0.00  0.00    +0.000 NA
ATOM      5  C   UNL     1       6.170   5.678  19.025  0.00  0.00    +0.000 C 
ATOM      6  C   UNL     1       7.573   5.709  18.428  0.00  0.00    +0.000 C 
ENDROOT
BRANCH   4   7
ATOM      7  S   UNL     1       3.541   5.486  18.695  0.00  0.00    +0.000 S 
ATOM      8  O   UNL     1       3.689   5.640  20.123  0.00  0.00    +0.000 OA
ATOM      9  O   UNL     1       2.730   6.407  17.926  0.00  0.00    +0.000 OA
BRANCH   7  10
ATOM     10  C   UNL     1       2.793   3.950  18.516  0.00  0.00    +0.000 A 
ATOM     11  C   UNL     1       3.183   2.944  17.597  0.00  0.00    +0.000 A 
ATOM     12  C   UNL     1       4.232   2.965  16.546  0.00  0.00    +0.000 C 
ATOM     13  N   UNL     1       2.448   1.833  17.748  0.00  0.00    +0.000 NA
ATOM     14  N   UNL     1       1.613   2.123  18.754  0.00  0.00    +0.000 N 
ATOM     15  C   UNL     1       1.731   3.403  19.218  0.00  0.00    +0.000 A 
ATOM     16  C   UNL     1       0.840   3.923  20.283  0.00  0.00    +0.000 C 
ATOM     17  H   UNL     1       0.974   1.399  19.067  0.00  0.00    +0.000 HD
ENDBRANCH   7  10
ENDBRANCH   4   7
BRANCH   1  18
ATOM     18  C   UNL     1       7.532   8.184  17.786  0.00  0.00    +0.000 C 
BRANCH  18  19
ATOM     19  O   UNL     1       8.600   8.540  18.674  0.00  0.00    +0.000 OA
BRANCH  19  24
ATOM     20  C   UNL     1       9.520  14.048  18.490  0.00  0.00    +0.000 C 
ATOM     21  C   UNL     1       9.309  12.574  18.603  0.00  0.00    +0.000 A 
ATOM     22  C   UNL     1       9.876  11.814  19.618  0.00  0.00    +0.000 A 
ATOM     23  C   UNL     1       9.634  10.443  19.643  0.00  0.00    +0.000 A 
ATOM     24  C   UNL     1       8.838   9.904  18.653  0.00  0.00    +0.000 A 
ATOM     25  N   UNL     1       8.299  10.668  17.678  0.00  0.00    +0.000 NA
ATOM     26  N   UNL     1       8.532  12.010  17.654  0.00  0.00    +0.000 NA
ENDBRANCH  19  24
ENDBRANCH  18  19
ENDBRANCH   1  18
TORSDOF 5
ENDMDL
MODEL 9
REMARK VINA RESULT:      -7.0      3.268      5.607
REMARK  Name = 
REMARK  8 active torsions:
REMARK  status: ('A' for Active; 'I' for Inactive)
REMARK    1  A    between atoms: C_1  and  C_2
REMARK    2  A    between atoms: C_5  and  O_6
REMARK    3  A    between atoms: O_6  and  C_7
REMARK    4  A    between atoms: C_7  and  C_8
REMARK    5  A    between atoms: N_11  and  S_12
REMARK    6  A    between atoms: S_12  and  C_15
REMARK    7  A    between atoms: C_16  and  C_17
REMARK    8  A    between atoms: C_20  and  C_21
REMARK                            x       y       z     vdW  Elec       q    Type
REMARK                         _______ _______ _______ _____ _____    ______ ____
ROOT
ATOM      1  C   UNL     1       7.748   6.072  17.597  0.00  0.00    +0.000 C 
ATOM      2  C   UNL     1       6.973   5.544  16.383  0.00  0.00    +0.000 C 
ATOM      3  C   UNL     1       5.459   5.651  16.569  0.00  0.00    +0.000 C 
ATOM      4  N   UNL     1       5.011   4.981  17.826  0.00  0.00    +0.000 NA
ATOM      5  C   UNL     1       5.788   5.372  19.044  0.00  0.00    +0.000 C 
ATOM      6  C   UNL     1       7.294   5.272  18.820  0.00  0.00    +0.000 C 
ENDROOT
BRANCH   4   7
ATOM      7  S   UNL     1       3.312   5.164  18.105  0.00  0.00    +0.000 S 
ATOM      8  O   UNL     1       3.037   6.563  18.336  0.00  0.00    +0.000 OA
ATOM      9  O   UNL     1       2.616   4.429  17.069  0.00  0.00    +0.000 OA
BRANCH   7  10
ATOM     10  C   UNL     1       2.879   4.403  19.583  0.00  0.00    +0.000 A 
ATOM     11  C   UNL     1       3.215   3.079  19.958  0.00  0.00    +0.000 A 
ATOM     12  C   UNL     1       3.922   2.019  19.195  0.00  0.00    +0.000 C 
ATOM     13  N   UNL     1       2.793   2.802  21.200  0.00  0.00    +0.000 NA
ATOM     14  N   UNL     1       2.210   3.935  21.612  0.00  0.00    +0.000 N 
ATOM     15  C   UNL     1       2.177   4.916  20.662  0.00  0.00    +0.000 A 
ATOM     16  C   UNL     1       1.510   6.215  20.916  0.00  0.00    +0.000 C 
ATOM     17  H   UNL     1       1.841   3.964  22.557  0.00  0.00    +0.000 HD
ENDBRANCH   7  10
ENDBRANCH   4   7
BRANCH   1  18
ATOM     18  C   UNL     1       7.559   7.589  17.774  0.00  0.00    +0.000 C 
BRANCH  18  19
ATOM     19  O   UNL     1       8.515   8.113  18.706  0.00  0.00    +0.000 OA
BRANCH  19  24
ATOM     20  C   UNL     1       9.050  13.633  18.036  0.00  0.00    +0.000 C 
ATOM     21  C   UNL     1       8.947  12.163  18.275  0.00  0.00    +0.000 A 
ATOM     22  C   UNL     1       9.652  11.520  19.284  0.00  0.00    +0.000 A 
ATOM     23  C   UNL     1       9.505  10.143  19.431  0.00  0.00    +0.000 A 
ATOM     24  C   UNL     1       8.660   9.483  18.562  0.00  0.00    +0.000 A 
ATOM     25  N   UNL     1       7.986  10.134  17.591  0.00  0.00    +0.000 NA
ATOM     26  N   UNL     1       8.127  11.481  17.447  0.00  0.00    +0.000 NA
ENDBRANCH  19  24
ENDBRANCH  18  19
ENDBRANCH   1  18
TORSDOF 5
ENDMDL
