MODEL 1
REMARK VINA RESULT:      -9.5      0.000      0.000
REMARK  Name = 
REMARK  3 active torsions:
REMARK  status: ('A' for Active; 'I' for Inactive)
REMARK    1  A    between atoms: C_13  and  C_14
REMARK    2  A    between atoms: C_18  and  C_19
REMARK    3  A    between atoms: N_27  and  C_28
REMARK                            x       y       z     vdW  Elec       q    Type
REMARK                         _______ _______ _______ _____ _____    ______ ____
ROOT
ATOM      1  O   UNL     1       5.105   4.145  15.852  0.00  0.00    +0.000 OA
ATOM      2  C   UNL     1       4.587   3.934  16.937  0.00  0.00    +0.000 A 
ATOM      3  N   UNL     1       4.586   2.720  17.562  0.00  0.00    +0.000 N 
ATOM      4  S   UNL     1       3.795   2.682  19.042  0.00  0.00    +0.000 S 
ATOM      5  C   UNL     1       3.408   4.407  18.928  0.00  0.00    +0.000 A 
ATOM      6  C   UNL     1       3.874   4.925  17.772  0.00  0.00    +0.000 A 
ATOM      7  C   UNL     1       3.656   6.335  17.439  0.00  0.00    +0.000 A 
ATOM      8  O   UNL     1       4.073   6.852  16.410  0.00  0.00    +0.000 OA
ATOM      9  C   UNL     1       2.874   7.135  18.402  0.00  0.00    +0.000 A 
ATOM     10  C   UNL     1       2.629   8.483  18.121  0.00  0.00    +0.000 A 
ATOM     11  C   UNL     1       1.899   9.251  19.020  0.00  0.00    +0.000 A 
ATOM     12  F   UNL     1       1.733  10.552  18.736  0.00  0.00    +0.000 F 
ATOM     13  C   UNL     1       1.356   8.699  20.187  0.00  0.00    +0.000 A 
ATOM     14  C   UNL     1       1.582   7.324  20.411  0.00  0.00    +0.000 A 
ATOM     15  C   UNL     1       2.382   6.531  19.569  0.00  0.00    +0.000 A 
ATOM     16  N   UNL     1       2.712   5.177  19.876  0.00  0.00    +0.000 N 
ATOM     17  H   UNL     1       5.043   1.922  17.133  0.00  0.00    +0.000 HD
ENDROOT
BRANCH  13  18
ATOM     18  C   UNL     1       0.587   9.494  21.164  0.00  0.00    +0.000 A 
ATOM     19  C   UNL     1       0.710   9.288  22.544  0.00  0.00    +0.000 A 
ATOM     20  N   UNL     1       0.009   9.941  23.499  0.00  0.00    +0.000 NA
ATOM     21  C   UNL     1      -0.862  10.876  23.068  0.00  0.00    +0.000 A 
ATOM     22  C   UNL     1      -1.057  11.208  21.732  0.00  0.00    +0.000 A 
ATOM     23  C   UNL     1      -0.319  10.491  20.780  0.00  0.00    +0.000 A 
BRANCH  22  24
ATOM     24  C   UNL     1      -2.021  12.277  21.311  0.00  0.00    +0.000 C 
ATOM     25  C   UNL     1      -3.300  12.328  22.139  0.00  0.00    +0.000 C 
ATOM     26  C   UNL     1      -4.246  13.102  21.240  0.00  0.00    +0.000 C 
ATOM     27  C   UNL     1      -3.772  12.802  19.824  0.00  0.00    +0.000 C 
ATOM     28  N   UNL     1      -2.519  12.060  19.951  0.00  0.00    +0.000 NA
ATOM     29  H   UNL     1      -1.832  12.371  19.266  0.00  0.00    +0.000 HD
ENDBRANCH  22  24
ENDBRANCH  13  18
BRANCH  16  30
ATOM     30  C   UNL     1       2.176   4.516  21.094  0.00  0.00    +0.000 C 
ATOM     31  C   UNL     1       1.193   3.367  21.053  0.00  0.00    +0.000 C 
ATOM     32  C   UNL     1       2.593   3.116  21.501  0.00  0.00    +0.000 C 
ENDBRANCH  16  30
TORSDOF 3
ENDMDL
MODEL 2
REMARK VINA RESULT:      -9.4      0.925      1.059
REMARK  Name = 
REMARK  3 active torsions:
REMARK  status: ('A' for Active; 'I' for Inactive)
REMARK    1  A    between atoms: C_13  and  C_14
REMARK    2  A    between atoms: C_18  and  C_19
REMARK    3  A    between atoms: N_27  and  C_28
REMARK                            x       y       z     vdW  Elec       q    Type
REMARK                         _______ _______ _______ _____ _____    ______ ____
ROOT
ATOM      1  O   UNL     1       5.469   3.733  16.080  0.00  0.00    +0.000 OA
ATOM      2  C   UNL     1       4.731   3.659  17.049  0.00  0.00    +0.000 A 
ATOM      3  N   UNL     1       4.469   2.502  17.726  0.00  0.00    +0.000 N 
ATOM      4  S   UNL     1       3.409   2.657  19.018  0.00  0.00    +0.000 S 
ATOM      5  C   UNL     1       3.253   4.399  18.737  0.00  0.00    +0.000 A 
ATOM      6  C   UNL     1       3.990   4.778  17.670  0.00  0.00    +0.000 A 
ATOM      7  C   UNL     1       4.004   6.174  17.225  0.00  0.00    +0.000 A 
ATOM      8  O   UNL     1       4.668   6.566  16.274  0.00  0.00    +0.000 OA
ATOM      9  C   UNL     1       3.149   7.121  17.968  0.00  0.00    +0.000 A 
ATOM     10  C   UNL     1       3.120   8.461  17.572  0.00  0.00    +0.000 A 
ATOM     11  C   UNL     1       2.323   9.366  18.264  0.00  0.00    +0.000 A 
ATOM     12  F   UNL     1       2.367  10.652  17.883  0.00  0.00    +0.000 F 
ATOM     13  C   UNL     1       1.506   8.962  19.328  0.00  0.00    +0.000 A 
ATOM     14  C   UNL     1       1.524   7.592  19.665  0.00  0.00    +0.000 A 
ATOM     15  C   UNL     1       2.374   6.660  19.044  0.00  0.00    +0.000 A 
ATOM     16  N   UNL     1       2.481   5.306  19.483  0.00  0.00    +0.000 N 
ATOM     17  H   UNL     1       4.905   1.632  17.441  0.00  0.00    +0.000 HD
ENDROOT
BRANCH  13  18
ATOM     18  C   UNL     1       0.660   9.903  20.087  0.00  0.00    +0.000 A 
ATOM     19  C   UNL     1       0.884  10.169  21.443  0.00  0.00    +0.000 A 
ATOM     20  N   UNL     1       0.129  10.980  22.219  0.00  0.00    +0.000 NA
ATOM     21  C   UNL     1      -0.911  11.589  21.613  0.00  0.00    +0.000 A 
ATOM     22  C   UNL     1      -1.225  11.444  20.266  0.00  0.00    +0.000 A 
ATOM     23  C   UNL     1      -0.423  10.580  19.509  0.00  0.00    +0.000 A 
BRANCH  22  24
ATOM     24  C   UNL     1      -2.380  12.167  19.638  0.00  0.00    +0.000 C 
ATOM     25  C   UNL     1      -3.482  12.557  20.616  0.00  0.00    +0.000 C 
ATOM     26  C   UNL     1      -4.668  12.798  19.701  0.00  0.00    +0.000 C 
ATOM     27  C   UNL     1      -4.426  11.892  18.502  0.00  0.00    +0.000 C 
ATOM     28  N   UNL     1      -3.085  11.331  18.665  0.00  0.00    +0.000 NA
ATOM     29  H   UNL     1      -2.581  11.311  17.780  0.00  0.00    +0.000 HD
ENDBRANCH  22  24
ENDBRANCH  13  18
BRANCH  16  30
ATOM     30  C   UNL     1       1.647   4.797  20.603  0.00  0.00    +0.000 C 
ATOM     31  C   UNL     1       1.097   3.389  20.658  0.00  0.00    +0.000 C 
ATOM     32  C   UNL     1       2.174   3.791  21.608  0.00  0.00    +0.000 C 
ENDBRANCH  16  30
TORSDOF 3
ENDMDL
MODEL 3
REMARK VINA RESULT:      -9.3      2.716      3.806
REMARK  Name = 
REMARK  3 active torsions:
REMARK  status: ('A' for Active; 'I' for Inactive)
REMARK    1  A    between atoms: C_13  and  C_14
REMARK    2  A    between atoms: C_18  and  C_19
REMARK    3  A    between atoms: N_27  and  C_28
REMARK                            x       y       z     vdW  Elec       q    Type
REMARK                         _______ _______ _______ _____ _____    ______ ____
ROOT
ATOM      1  O   UNL     1       4.098   2.142  20.744  0.00  0.00    +0.000 OA
ATOM      2  C   UNL     1       4.310   2.980  19.883  0.00  0.00    +0.000 A 
ATOM      3  N   UNL     1       5.235   2.838  18.888  0.00  0.00    +0.000 N 
ATOM      4  S   UNL     1       5.349   4.138  17.832  0.00  0.00    +0.000 S 
ATOM      5  C   UNL     1       4.067   5.006  18.693  0.00  0.00    +0.000 A 
ATOM      6  C   UNL     1       3.628   4.285  19.747  0.00  0.00    +0.000 A 
ATOM      7  C   UNL     1       2.580   4.807  20.629  0.00  0.00    +0.000 A 
ATOM      8  O   UNL     1       2.141   4.183  21.587  0.00  0.00    +0.000 OA
ATOM      9  C   UNL     1       2.069   6.159  20.332  0.00  0.00    +0.000 A 
ATOM     10  C   UNL     1       1.078   6.704  21.154  0.00  0.00    +0.000 A 
ATOM     11  C   UNL     1       0.583   7.975  20.885  0.00  0.00    +0.000 A 
ATOM     12  F   UNL     1      -0.404   8.437  21.667  0.00  0.00    +0.000 F 
ATOM     13  C   UNL     1       1.086   8.752  19.833  0.00  0.00    +0.000 A 
ATOM     14  C   UNL     1       2.121   8.188  19.057  0.00  0.00    +0.000 A 
ATOM     15  C   UNL     1       2.593   6.877  19.245  0.00  0.00    +0.000 A 
ATOM     16  N   UNL     1       3.544   6.271  18.371  0.00  0.00    +0.000 N 
ATOM     17  H   UNL     1       5.791   1.992  18.822  0.00  0.00    +0.000 HD
ENDROOT
BRANCH  13  18
ATOM     18  C   UNL     1       0.570  10.099  19.518  0.00  0.00    +0.000 A 
ATOM     19  C   UNL     1       1.140  11.254  20.068  0.00  0.00    +0.000 A 
ATOM     20  N   UNL     1       0.700  12.517  19.867  0.00  0.00    +0.000 NA
ATOM     21  C   UNL     1      -0.366  12.656  19.051  0.00  0.00    +0.000 A 
ATOM     22  C   UNL     1      -1.004  11.599  18.410  0.00  0.00    +0.000 A 
ATOM     23  C   UNL     1      -0.520  10.309  18.665  0.00  0.00    +0.000 A 
BRANCH  22  24
ATOM     24  C   UNL     1      -2.171  11.816  17.492  0.00  0.00    +0.000 C 
ATOM     25  C   UNL     1      -3.517  11.423  18.086  0.00  0.00    +0.000 C 
ATOM     26  C   UNL     1      -4.392  11.274  16.855  0.00  0.00    +0.000 C 
ATOM     27  C   UNL     1      -3.434  10.870  15.743  0.00  0.00    +0.000 C 
ATOM     28  N   UNL     1      -2.084  10.981  16.292  0.00  0.00    +0.000 NA
ATOM     29  H   UNL     1      -1.441  11.391  15.618  0.00  0.00    +0.000 HD
ENDBRANCH  22  24
ENDBRANCH  13  18
BRANCH  16  30
ATOM     30  C   UNL     1       4.128   7.027  17.233  0.00  0.00    +0.000 C 
ATOM     31  C   UNL     1       5.610   7.283  17.076  0.00  0.00    +0.000 C 
ATOM     32  C   UNL     1       4.927   6.346  16.138  0.00  0.00    +0.000 C 
ENDBRANCH  16  30
TORSDOF 3
ENDMDL
MODEL 4
REMARK VINA RESULT:      -9.2      3.995      9.063
REMARK  Name = 
REMARK  3 active torsions:
REMARK  status: ('A' for Active; 'I' for Inactive)
REMARK    1  A    between atoms: C_13  and  C_14
REMARK    2  A    between atoms: C_18  and  C_19
REMARK    3  A    between atoms: N_27  and  C_28
REMARK                            x       y       z     vdW  Elec       q    Type
REMARK                         _______ _______ _______ _____ _____    ______ ____
ROOT
ATOM      1  O   UNL     1      -2.353  12.165  23.487  0.00  0.00    +0.000 OA
ATOM      2  C   UNL     1      -1.770  12.401  22.442  0.00  0.00    +0.000 A 
ATOM      3  N   UNL     1      -1.863  13.584  21.764  0.00  0.00    +0.000 N 
ATOM      4  S   UNL     1      -0.975  13.660  20.341  0.00  0.00    +0.000 S 
ATOM      5  C   UNL     1      -0.360  12.017  20.586  0.00  0.00    +0.000 A 
ATOM      6  C   UNL     1      -0.869  11.481  21.716  0.00  0.00    +0.000 A 
ATOM      7  C   UNL     1      -0.523  10.115  22.121  0.00  0.00    +0.000 A 
ATOM      8  O   UNL     1      -0.947   9.593  23.144  0.00  0.00    +0.000 OA
ATOM      9  C   UNL     1       0.364   9.356  21.218  0.00  0.00    +0.000 A 
ATOM     10  C   UNL     1       0.712   8.044  21.557  0.00  0.00    +0.000 A 
ATOM     11  C   UNL     1       1.549   7.317  20.720  0.00  0.00    +0.000 A 
ATOM     12  F   UNL     1       1.899   6.082  21.110  0.00  0.00    +0.000 F 
ATOM     13  C   UNL     1       2.024   7.847  19.513  0.00  0.00    +0.000 A 
ATOM     14  C   UNL     1       1.610   9.156  19.181  0.00  0.00    +0.000 A 
ATOM     15  C   UNL     1       0.830   9.953  20.037  0.00  0.00    +0.000 A 
ATOM     16  N   UNL     1       0.531  11.319  19.752  0.00  0.00    +0.000 N 
ATOM     17  H   UNL     1      -2.435  14.339  22.127  0.00  0.00    +0.000 HD
ENDROOT
BRANCH  13  18
ATOM     18  C   UNL     1       2.923   7.102  18.611  0.00  0.00    +0.000 A 
ATOM     19  C   UNL     1       3.588   7.727  17.549  0.00  0.00    +0.000 A 
ATOM     20  N   UNL     1       4.391   7.107  16.653  0.00  0.00    +0.000 NA
ATOM     21  C   UNL     1       4.567   5.781  16.825  0.00  0.00    +0.000 A 
ATOM     22  C   UNL     1       3.998   5.043  17.858  0.00  0.00    +0.000 A 
ATOM     23  C   UNL     1       3.161   5.728  18.749  0.00  0.00    +0.000 A 
BRANCH  22  24
ATOM     24  C   UNL     1       4.251   3.573  18.016  0.00  0.00    +0.000 C 
ATOM     25  C   UNL     1       2.995   2.712  17.955  0.00  0.00    +0.000 C 
ATOM     26  C   UNL     1       3.448   1.419  18.608  0.00  0.00    +0.000 C 
ATOM     27  C   UNL     1       4.544   1.836  19.580  0.00  0.00    +0.000 C 
ATOM     28  N   UNL     1       4.807   3.252  19.332  0.00  0.00    +0.000 NA
ATOM     29  H   UNL     1       5.805   3.455  19.356  0.00  0.00    +0.000 HD
ENDBRANCH  22  24
ENDBRANCH  13  18
BRANCH  16  30
ATOM     30  C   UNL     1       0.994  11.957  18.492  0.00  0.00    +0.000 C 
ATOM     31  C   UNL     1       1.523  13.372  18.422  0.00  0.00    +0.000 C 
ATOM     32  C   UNL     1       2.461  12.231  18.219  0.00  0.00    +0.000 C 
ENDBRANCH  16  30
TORSDOF 3
ENDMDL
MODEL 5
REMARK VINA RESULT:      -8.9      4.555      9.198
REMARK  Name = 
REMARK  3 active torsions:
REMARK  status: ('A' for Active; 'I' for Inactive)
REMARK    1  A    between atoms: C_13  and  C_14
REMARK    2  A    between atoms: C_18  and  C_19
REMARK    3  A    between atoms: N_27  and  C_28
REMARK                            x       y       z     vdW  Elec       q    Type
REMARK                         _______ _______ _______ _____ _____    ______ ____
ROOT
ATOM      1  O   UNL     1      -5.652  14.408  20.563  0.00  0.00    +0.000 OA
ATOM      2  C   UNL     1      -5.475  13.603  19.662  0.00  0.00    +0.000 A 
ATOM      3  N   UNL     1      -6.397  13.323  18.694  0.00  0.00    +0.000 N 
ATOM      4  S   UNL     1      -5.922  12.168  17.572  0.00  0.00    +0.000 S 
ATOM      5  C   UNL     1      -4.345  11.988  18.360  0.00  0.00    +0.000 A 
ATOM      6  C   UNL     1      -4.259  12.791  19.443  0.00  0.00    +0.000 A 
ATOM      7  C   UNL     1      -3.053  12.801  20.275  0.00  0.00    +0.000 A 
ATOM      8  O   UNL     1      -2.923  13.523  21.256  0.00  0.00    +0.000 OA
ATOM      9  C   UNL     1      -1.971  11.871  19.896  0.00  0.00    +0.000 A 
ATOM     10  C   UNL     1      -0.806  11.837  20.667  0.00  0.00    +0.000 A 
ATOM     11  C   UNL     1       0.223  10.970  20.321  0.00  0.00    +0.000 A 
ATOM     12  F   UNL     1       1.344  11.008  21.058  0.00  0.00    +0.000 F 
ATOM     13  C   UNL     1       0.108  10.087  19.239  0.00  0.00    +0.000 A 
ATOM     14  C   UNL     1      -1.103  10.116  18.515  0.00  0.00    +0.000 A 
ATOM     15  C   UNL     1      -2.135  11.032  18.782  0.00  0.00    +0.000 A 
ATOM     16  N   UNL     1      -3.297  11.141  17.960  0.00  0.00    +0.000 N 
ATOM     17  H   UNL     1      -7.292  13.801  18.685  0.00  0.00    +0.000 HD
ENDROOT
BRANCH  13  18
ATOM     18  C   UNL     1       1.190   9.165  18.842  0.00  0.00    +0.000 A 
ATOM     19  C   UNL     1       1.920   9.348  17.662  0.00  0.00    +0.000 A 
ATOM     20  N   UNL     1       2.892   8.525  17.206  0.00  0.00    +0.000 NA
ATOM     21  C   UNL     1       3.179   7.455  17.975  0.00  0.00    +0.000 A 
ATOM     22  C   UNL     1       2.558   7.173  19.187  0.00  0.00    +0.000 A 
ATOM     23  C   UNL     1       1.547   8.047  19.607  0.00  0.00    +0.000 A 
BRANCH  22  24
ATOM     24  C   UNL     1       2.937   5.980  20.015  0.00  0.00    +0.000 C 
ATOM     25  C   UNL     1       3.247   4.728  19.204  0.00  0.00    +0.000 C 
ATOM     26  C   UNL     1       3.108   3.623  20.235  0.00  0.00    +0.000 C 
ATOM     27  C   UNL     1       2.096   4.153  21.241  0.00  0.00    +0.000 C 
ATOM     28  N   UNL     1       1.840   5.547  20.883  0.00  0.00    +0.000 NA
ATOM     29  H   UNL     1       1.786   6.139  21.710  0.00  0.00    +0.000 HD
ENDBRANCH  22  24
ENDBRANCH  13  18
BRANCH  16  30
ATOM     30  C   UNL     1      -3.496  10.241  16.795  0.00  0.00    +0.000 C 
ATOM     31  C   UNL     1      -3.877  10.737  15.417  0.00  0.00    +0.000 C 
ATOM     32  C   UNL     1      -2.511  10.184  15.643  0.00  0.00    +0.000 C 
ENDBRANCH  16  30
TORSDOF 3
ENDMDL
MODEL 6
REMARK VINA RESULT:      -8.9      1.392      1.688
REMARK  Name = 
REMARK  3 active torsions:
REMARK  status: ('A' for Active; 'I' for Inactive)
REMARK    1  A    between atoms: C_13  and  C_14
REMARK    2  A    between atoms: C_18  and  C_19
REMARK    3  A    between atoms: N_27  and  C_28
REMARK                            x       y       z     vdW  Elec       q    Type
REMARK                         _______ _______ _______ _____ _____    ______ ____
ROOT
ATOM      1  O   UNL     1       5.308   4.367  15.647  0.00  0.00    +0.000 OA
ATOM      2  C   UNL     1       4.785   4.132  16.724  0.00  0.00    +0.000 A 
ATOM      3  N   UNL     1       4.802   2.909  17.333  0.00  0.00    +0.000 N 
ATOM      4  S   UNL     1       3.999   2.835  18.805  0.00  0.00    +0.000 S 
ATOM      5  C   UNL     1       3.579   4.554  18.711  0.00  0.00    +0.000 A 
ATOM      6  C   UNL     1       4.045   5.096  17.566  0.00  0.00    +0.000 A 
ATOM      7  C   UNL     1       3.802   6.507  17.251  0.00  0.00    +0.000 A 
ATOM      8  O   UNL     1       4.218   7.046  16.233  0.00  0.00    +0.000 OA
ATOM      9  C   UNL     1       2.997   7.278  18.218  0.00  0.00    +0.000 A 
ATOM     10  C   UNL     1       2.728   8.624  17.953  0.00  0.00    +0.000 A 
ATOM     11  C   UNL     1       1.975   9.366  18.856  0.00  0.00    +0.000 A 
ATOM     12  F   UNL     1       1.786  10.667  18.588  0.00  0.00    +0.000 F 
ATOM     13  C   UNL     1       1.433   8.787  20.011  0.00  0.00    +0.000 A 
ATOM     14  C   UNL     1       1.683   7.414  20.217  0.00  0.00    +0.000 A 
ATOM     15  C   UNL     1       2.506   6.649  19.372  0.00  0.00    +0.000 A 
ATOM     16  N   UNL     1       2.860   5.297  19.663  0.00  0.00    +0.000 N 
ATOM     17  H   UNL     1       5.279   2.126  16.897  0.00  0.00    +0.000 HD
ENDROOT
BRANCH  13  18
ATOM     18  C   UNL     1       0.639   9.553  20.992  0.00  0.00    +0.000 A 
ATOM     19  C   UNL     1      -0.008   8.930  22.066  0.00  0.00    +0.000 A 
ATOM     20  N   UNL     1      -0.789   9.553  22.978  0.00  0.00    +0.000 NA
ATOM     21  C   UNL     1      -0.928  10.887  22.835  0.00  0.00    +0.000 A 
ATOM     22  C   UNL     1      -0.312  11.636  21.838  0.00  0.00    +0.000 A 
ATOM     23  C   UNL     1       0.473  10.941  20.908  0.00  0.00    +0.000 A 
BRANCH  22  24
ATOM     24  C   UNL     1      -0.482  13.123  21.743  0.00  0.00    +0.000 C 
ATOM     25  C   UNL     1      -0.798  13.629  20.341  0.00  0.00    +0.000 C 
ATOM     26  C   UNL     1      -0.437  15.100  20.430  0.00  0.00    +0.000 C 
ATOM     27  C   UNL     1       0.656  15.170  21.488  0.00  0.00    +0.000 C 
ATOM     28  N   UNL     1       0.752  13.837  22.080  0.00  0.00    +0.000 NA
ATOM     29  H   UNL     1       0.870  13.887  23.090  0.00  0.00    +0.000 HD
ENDBRANCH  22  24
ENDBRANCH  13  18
BRANCH  16  30
ATOM     30  C   UNL     1       2.326   4.608  20.867  0.00  0.00    +0.000 C 
ATOM     31  C   UNL     1       1.064   3.774  20.858  0.00  0.00    +0.000 C 
ATOM     32  C   UNL     1       2.384   3.101  21.026  0.00  0.00    +0.000 C 
ENDBRANCH  16  30
TORSDOF 3
ENDMDL
MODEL 7
REMARK VINA RESULT:      -8.8      1.777      2.178
REMARK  Name = 
REMARK  3 active torsions:
REMARK  status: ('A' for Active; 'I' for Inactive)
REMARK    1  A    between atoms: C_13  and  C_14
REMARK    2  A    between atoms: C_18  and  C_19
REMARK    3  A    between atoms: N_27  and  C_28
REMARK                            x       y       z     vdW  Elec       q    Type
REMARK                         _______ _______ _______ _____ _____    ______ ____
ROOT
ATOM      1  O   UNL     1       6.538   4.142  17.081  0.00  0.00    +0.000 OA
ATOM      2  C   UNL     1       5.662   4.080  17.929  0.00  0.00    +0.000 A 
ATOM      3  N   UNL     1       5.448   2.994  18.730  0.00  0.00    +0.000 N 
ATOM      4  S   UNL     1       4.172   3.147  19.810  0.00  0.00    +0.000 S 
ATOM      5  C   UNL     1       3.831   4.790  19.241  0.00  0.00    +0.000 A 
ATOM      6  C   UNL     1       4.681   5.138  18.252  0.00  0.00    +0.000 A 
ATOM      7  C   UNL     1       4.581   6.448  17.603  0.00  0.00    +0.000 A 
ATOM      8  O   UNL     1       5.339   6.813  16.712  0.00  0.00    +0.000 OA
ATOM      9  C   UNL     1       3.492   7.336  18.054  0.00  0.00    +0.000 A 
ATOM     10  C   UNL     1       3.349   8.591  17.456  0.00  0.00    +0.000 A 
ATOM     11  C   UNL     1       2.331   9.440  17.872  0.00  0.00    +0.000 A 
ATOM     12  F   UNL     1       2.264  10.656  17.307  0.00  0.00    +0.000 F 
ATOM     13  C   UNL     1       1.407   9.054  18.851  0.00  0.00    +0.000 A 
ATOM     14  C   UNL     1       1.553   7.761  19.396  0.00  0.00    +0.000 A 
ATOM     15  C   UNL     1       2.615   6.903  19.060  0.00  0.00    +0.000 A 
ATOM     16  N   UNL     1       2.827   5.652  19.715  0.00  0.00    +0.000 N 
ATOM     17  H   UNL     1       6.041   2.174  18.651  0.00  0.00    +0.000 HD
ENDROOT
BRANCH  13  18
ATOM     18  C   UNL     1       0.323   9.941  19.321  0.00  0.00    +0.000 A 
ATOM     19  C   UNL     1       0.236  10.357  20.655  0.00  0.00    +0.000 A 
ATOM     20  N   UNL     1      -0.747  11.128  21.173  0.00  0.00    +0.000 NA
ATOM     21  C   UNL     1      -1.704  11.535  20.313  0.00  0.00    +0.000 A 
ATOM     22  C   UNL     1      -1.719  11.226  18.957  0.00  0.00    +0.000 A 
ATOM     23  C   UNL     1      -0.688  10.411  18.473  0.00  0.00    +0.000 A 
BRANCH  22  24
ATOM     24  C   UNL     1      -2.796  11.729  18.041  0.00  0.00    +0.000 C 
ATOM     25  C   UNL     1      -4.165  11.106  18.282  0.00  0.00    +0.000 C 
ATOM     26  C   UNL     1      -4.893  11.391  16.982  0.00  0.00    +0.000 C 
ATOM     27  C   UNL     1      -3.798  11.451  15.926  0.00  0.00    +0.000 C 
ATOM     28  N   UNL     1      -2.524  11.393  16.641  0.00  0.00    +0.000 NA
ATOM     29  H   UNL     1      -1.845  12.041  16.245  0.00  0.00    +0.000 HD
ENDBRANCH  22  24
ENDBRANCH  13  18
BRANCH  16  30
ATOM     30  C   UNL     1       1.891   5.169  20.763  0.00  0.00    +0.000 C 
ATOM     31  C   UNL     1       0.646   4.366  20.460  0.00  0.00    +0.000 C 
ATOM     32  C   UNL     1       1.794   3.703  21.142  0.00  0.00    +0.000 C 
ENDBRANCH  16  30
TORSDOF 3
ENDMDL
MODEL 8
REMARK VINA RESULT:      -8.7      4.676      9.263
REMARK  Name = 
REMARK  3 active torsions:
REMARK  status: ('A' for Active; 'I' for Inactive)
REMARK    1  A    between atoms: C_13  and  C_14
REMARK    2  A    between atoms: C_18  and  C_19
REMARK    3  A    between atoms: N_27  and  C_28
REMARK                            x       y       z     vdW  Elec       q    Type
REMARK                         _______ _______ _______ _____ _____    ______ ____
ROOT
ATOM      1  O   UNL     1      -2.074  15.259  23.842  0.00  0.00    +0.000 OA
ATOM      2  C   UNL     1      -1.145  15.223  23.052  0.00  0.00    +0.000 A 
ATOM      3  N   UNL     1      -0.470  16.327  22.613  0.00  0.00    +0.000 N 
ATOM      4  S   UNL     1       0.762  16.018  21.516  0.00  0.00    +0.000 S 
ATOM      5  C   UNL     1       0.454  14.275  21.594  0.00  0.00    +0.000 A 
ATOM      6  C   UNL     1      -0.576  14.011  22.426  0.00  0.00    +0.000 A 
ATOM      7  C   UNL     1      -1.035  12.635  22.638  0.00  0.00    +0.000 A 
ATOM      8  O   UNL     1      -1.954  12.345  23.394  0.00  0.00    +0.000 OA
ATOM      9  C   UNL     1      -0.349  11.576  21.872  0.00  0.00    +0.000 A 
ATOM     10  C   UNL     1      -0.760  10.250  22.031  0.00  0.00    +0.000 A 
ATOM     11  C   UNL     1      -0.122   9.241  21.320  0.00  0.00    +0.000 A 
ATOM     12  F   UNL     1      -0.514   7.977  21.544  0.00  0.00    +0.000 F 
ATOM     13  C   UNL     1       0.902   9.521  20.405  0.00  0.00    +0.000 A 
ATOM     14  C   UNL     1       1.255  10.877  20.234  0.00  0.00    +0.000 A 
ATOM     15  C   UNL     1       0.689  11.918  20.991  0.00  0.00    +0.000 A 
ATOM     16  N   UNL     1       1.149  13.267  20.905  0.00  0.00    +0.000 N 
ATOM     17  H   UNL     1      -0.723  17.250  22.951  0.00  0.00    +0.000 HD
ENDROOT
BRANCH  13  18
ATOM     18  C   UNL     1       1.605   8.469  19.646  0.00  0.00    +0.000 A 
ATOM     19  C   UNL     1       2.077   8.687  18.346  0.00  0.00    +0.000 A 
ATOM     20  N   UNL     1       2.688   7.764  17.569  0.00  0.00    +0.000 NA
ATOM     21  C   UNL     1       2.864   6.543  18.115  0.00  0.00    +0.000 A 
ATOM     22  C   UNL     1       2.478   6.201  19.407  0.00  0.00    +0.000 A 
ATOM     23  C   UNL     1       1.834   7.188  20.166  0.00  0.00    +0.000 A 
BRANCH  22  24
ATOM     24  C   UNL     1       2.723   4.834  19.974  0.00  0.00    +0.000 C 
ATOM     25  C   UNL     1       1.877   3.734  19.343  0.00  0.00    +0.000 C 
ATOM     26  C   UNL     1       1.949   2.626  20.378  0.00  0.00    +0.000 C 
ATOM     27  C   UNL     1       2.145   3.345  21.706  0.00  0.00    +0.000 C 
ATOM     28  N   UNL     1       2.360   4.756  21.390  0.00  0.00    +0.000 NA
ATOM     29  H   UNL     1       3.096   5.158  21.969  0.00  0.00    +0.000 HD
ENDBRANCH  22  24
ENDBRANCH  13  18
BRANCH  16  30
ATOM     30  C   UNL     1       2.228  13.648  19.957  0.00  0.00    +0.000 C 
ATOM     31  C   UNL     1       2.480  12.930  18.650  0.00  0.00    +0.000 C 
ATOM     32  C   UNL     1       1.935  14.317  18.628  0.00  0.00    +0.000 C 
ENDBRANCH  16  30
TORSDOF 3
ENDMDL
MODEL 9
REMARK VINA RESULT:      -8.6      3.281      4.502
REMARK  Name = 
REMARK  3 active torsions:
REMARK  status: ('A' for Active; 'I' for Inactive)
REMARK    1  A    between atoms: C_13  and  C_14
REMARK    2  A    between atoms: C_18  and  C_19
REMARK    3  A    between atoms: N_27  and  C_28
REMARK                            x       y       z     vdW  Elec       q    Type
REMARK                         _______ _______ _______ _____ _____    ______ ____
ROOT
ATOM      1  O   UNL     1       3.818   2.244  20.773  0.00  0.00    +0.000 OA
ATOM      2  C   UNL     1       4.061   3.018  19.862  0.00  0.00    +0.000 A 
ATOM      3  N   UNL     1       4.946   2.759  18.853  0.00  0.00    +0.000 N 
ATOM      4  S   UNL     1       5.118   3.989  17.724  0.00  0.00    +0.000 S 
ATOM      5  C   UNL     1       3.922   4.989  18.567  0.00  0.00    +0.000 A 
ATOM      6  C   UNL     1       3.466   4.358  19.670  0.00  0.00    +0.000 A 
ATOM      7  C   UNL     1       2.481   4.997  20.548  0.00  0.00    +0.000 A 
ATOM      8  O   UNL     1       2.028   4.458  21.549  0.00  0.00    +0.000 OA
ATOM      9  C   UNL     1       2.055   6.364  20.188  0.00  0.00    +0.000 A 
ATOM     10  C   UNL     1       1.126   7.020  21.003  0.00  0.00    +0.000 A 
ATOM     11  C   UNL     1       0.711   8.305  20.676  0.00  0.00    +0.000 A 
ATOM     12  F   UNL     1      -0.220   8.875  21.456  0.00  0.00    +0.000 F 
ATOM     13  C   UNL     1       1.235   8.988  19.570  0.00  0.00    +0.000 A 
ATOM     14  C   UNL     1       2.206   8.312  18.802  0.00  0.00    +0.000 A 
ATOM     15  C   UNL     1       2.594   6.984  19.051  0.00  0.00    +0.000 A 
ATOM     16  N   UNL     1       3.477   6.268  18.188  0.00  0.00    +0.000 N 
ATOM     17  H   UNL     1       5.442   1.875  18.821  0.00  0.00    +0.000 HD
ENDROOT
BRANCH  13  18
ATOM     18  C   UNL     1       0.803  10.348  19.194  0.00  0.00    +0.000 A 
ATOM     19  C   UNL     1      -0.501  10.615  18.760  0.00  0.00    +0.000 A 
ATOM     20  N   UNL     1      -0.961  11.821  18.355  0.00  0.00    +0.000 NA
ATOM     21  C   UNL     1      -0.081  12.842  18.397  0.00  0.00    +0.000 A 
ATOM     22  C   UNL     1       1.232  12.725  18.841  0.00  0.00    +0.000 A 
ATOM     23  C   UNL     1       1.665  11.451  19.234  0.00  0.00    +0.000 A 
BRANCH  22  24
ATOM     24  C   UNL     1       2.161  13.902  18.891  0.00  0.00    +0.000 C 
ATOM     25  C   UNL     1       1.462  15.254  18.822  0.00  0.00    +0.000 C 
ATOM     26  C   UNL     1       2.585  16.186  18.404  0.00  0.00    +0.000 C 
ATOM     27  C   UNL     1       3.539  15.313  17.601  0.00  0.00    +0.000 C 
ATOM     28  N   UNL     1       3.061  13.938  17.736  0.00  0.00    +0.000 NA
ATOM     29  H   UNL     1       3.834  13.287  17.867  0.00  0.00    +0.000 HD
ENDBRANCH  22  24
ENDBRANCH  13  18
BRANCH  16  30
ATOM     30  C   UNL     1       4.078   6.920  16.995  0.00  0.00    +0.000 C 
ATOM     31  C   UNL     1       5.536   7.312  16.908  0.00  0.00    +0.000 C 
ATOM     32  C   UNL     1       5.031   6.187  16.071  0.00  0.00    +0.000 C 
ENDBRANCH  16  30
TORSDOF 3
ENDMDL
