MODEL 1
REMARK VINA RESULT:      -7.6      0.000      0.000
REMARK  Name = 
REMARK  12 active torsions:
REMARK  status: ('A' for Active; 'I' for Inactive)
REMARK    1  A    between atoms: C_1  and  C_2
REMARK    2  A    between atoms: C_2  and  C_3
REMARK    3  A    between atoms: C_3  and  C_4
REMARK    4  A    between atoms: C_4  and  C_5
REMARK    5  A    between atoms: C_5  and  C_6
REMARK    6  A    between atoms: C_6  and  C_7
REMARK    7  A    between atoms: C_7  and  C_8
REMARK    8  A    between atoms: C_8  and  C_9
REMARK    9  A    between atoms: C_9  and  O_10
REMARK   10  A    between atoms: O_10  and  C_11
REMARK   11  A    between atoms: C_19  and  O_20
REMARK   12  A    between atoms: N_26  and  C_27
REMARK                            x       y       z     vdW  Elec       q    Type
REMARK                         _______ _______ _______ _____ _____    ______ ____
ROOT
ATOM      1  C   UNL     1       1.667   7.762  20.081  0.00  0.00    +0.000 A 
ATOM      2  C   UNL     1       1.854   8.695  19.020  0.00  0.00    +0.000 A 
ATOM      3  C   UNL     1       2.736   8.451  17.908  0.00  0.00    +0.000 A 
ATOM      4  C   UNL     1       3.397   7.244  17.787  0.00  0.00    +0.000 A 
ATOM      5  C   UNL     1       3.193   6.398  18.862  0.00  0.00    +0.000 A 
ATOM      6  C   UNL     1       2.438   6.627  20.004  0.00  0.00    +0.000 A 
ATOM      7  O   UNL     1       2.540   5.536  20.871  0.00  0.00    +0.000 OA
ATOM      8  C   UNL     1       2.773   4.478  19.923  0.00  0.00    +0.000 C 
ATOM      9  C   UNL     1       3.366   3.119  20.289  0.00  0.00    +0.000 C 
ATOM     10  C   UNL     1       3.359   2.305  18.989  0.00  0.00    +0.000 C 
ATOM     11  C   UNL     1       3.304   2.878  17.757  0.00  0.00    +0.000 C 
ATOM     12  C   UNL     1       3.391   4.401  17.543  0.00  0.00    +0.000 C 
ATOM     13  C   UNL     1       4.451   5.051  16.606  0.00  0.00    +0.000 C 
ATOM     14  C   UNL     1       4.325   6.689  16.693  0.00  0.00    +0.000 C 
ATOM     15  N   UNL     1       5.750   4.434  16.956  0.00  0.00    +0.000 NA
ATOM     16  C   UNL     1       6.880   4.647  16.089  0.00  0.00    +0.000 C 
ATOM     17  C   UNL     1       6.075   4.273  18.372  0.00  0.00    +0.000 C 
ATOM     18  C   UNL     1       5.221   5.152  19.257  0.00  0.00    +0.000 C 
ATOM     19  C   UNL     1       3.714   5.040  18.891  0.00  0.00    +0.000 C 
ENDROOT
BRANCH   9  20
ATOM     20  O   UNL     1       2.578   2.469  21.277  0.00  0.00    +0.000 OA
ATOM     21  H   UNL     1       3.160   2.167  21.980  0.00  0.00    +0.000 HD
ENDBRANCH   9  20
BRANCH   1  22
ATOM     22  O   UNL     1       0.697   8.028  21.019  0.00  0.00    +0.000 OA
BRANCH  22  23
ATOM     23  C   UNL     1      -0.156   9.136  20.681  0.00  0.00    +0.000 C 
BRANCH  23  24
ATOM     24  C   UNL     1       0.004  10.340  21.614  0.00  0.00    +0.000 C 
BRANCH  24  25
ATOM     25  C   UNL     1      -0.568  11.592  20.933  0.00  0.00    +0.000 C 
BRANCH  25  26
ATOM     26  C   UNL     1       0.111  11.906  19.601  0.00  0.00    +0.000 C 
BRANCH  26  27
ATOM     27  C   UNL     1      -0.910  12.268  18.518  0.00  0.00    +0.000 C 
BRANCH  27  28
ATOM     28  C   UNL     1      -2.120  11.331  18.564  0.00  0.00    +0.000 C 
BRANCH  28  29
ATOM     29  C   UNL     1      -1.971  10.169  17.578  0.00  0.00    +0.000 C 
BRANCH  29  31
ATOM     30  C   UNL     1      -2.881  10.552  15.259  0.00  0.00    +0.000 C 
ATOM     31  C   UNL     1      -3.192  10.061  16.664  0.00  0.00    +0.000 C 
ENDBRANCH  29  31
ENDBRANCH  28  29
ENDBRANCH  27  28
ENDBRANCH  26  27
ENDBRANCH  25  26
ENDBRANCH  24  25
ENDBRANCH  23  24
ENDBRANCH  22  23
ENDBRANCH   1  22
TORSDOF 10
ENDMDL
MODEL 2
REMARK VINA RESULT:      -7.4      2.065      3.651
REMARK  Name = 
REMARK  12 active torsions:
REMARK  status: ('A' for Active; 'I' for Inactive)
REMARK    1  A    between atoms: C_1  and  C_2
REMARK    2  A    between atoms: C_2  and  C_3
REMARK    3  A    between atoms: C_3  and  C_4
REMARK    4  A    between atoms: C_4  and  C_5
REMARK    5  A    between atoms: C_5  and  C_6
REMARK    6  A    between atoms: C_6  and  C_7
REMARK    7  A    between atoms: C_7  and  C_8
REMARK    8  A    between atoms: C_8  and  C_9
REMARK    9  A    between atoms: C_9  and  O_10
REMARK   10  A    between atoms: O_10  and  C_11
REMARK   11  A    between atoms: C_19  and  O_20
REMARK   12  A    between atoms: N_26  and  C_27
REMARK                            x       y       z     vdW  Elec       q    Type
REMARK                         _______ _______ _______ _____ _____    ______ ____
ROOT
ATOM      1  C   UNL     1       1.714   9.273  19.044  0.00  0.00    +0.000 A 
ATOM      2  C   UNL     1       1.087   9.027  20.300  0.00  0.00    +0.000 A 
ATOM      3  C   UNL     1       1.089   7.736  20.939  0.00  0.00    +0.000 A 
ATOM      4  C   UNL     1       1.775   6.676  20.378  0.00  0.00    +0.000 A 
ATOM      5  C   UNL     1       2.335   6.975  19.150  0.00  0.00    +0.000 A 
ATOM      6  C   UNL     1       2.274   8.169  18.446  0.00  0.00    +0.000 A 
ATOM      7  O   UNL     1       2.928   8.034  17.217  0.00  0.00    +0.000 OA
ATOM      8  C   UNL     1       3.898   7.026  17.555  0.00  0.00    +0.000 C 
ATOM      9  C   UNL     1       4.634   6.171  16.526  0.00  0.00    +0.000 C 
ATOM     10  C   UNL     1       5.606   5.303  17.333  0.00  0.00    +0.000 C 
ATOM     11  C   UNL     1       5.440   5.042  18.658  0.00  0.00    +0.000 C 
ATOM     12  C   UNL     1       4.185   5.471  19.439  0.00  0.00    +0.000 C 
ATOM     13  C   UNL     1       3.315   4.457  20.240  0.00  0.00    +0.000 C 
ATOM     14  C   UNL     1       2.005   5.234  20.862  0.00  0.00    +0.000 C 
ATOM     15  N   UNL     1       3.078   3.309  19.337  0.00  0.00    +0.000 NA
ATOM     16  C   UNL     1       2.517   2.098  19.880  0.00  0.00    +0.000 C 
ATOM     17  C   UNL     1       2.722   3.588  17.947  0.00  0.00    +0.000 C 
ATOM     18  C   UNL     1       2.233   5.007  17.758  0.00  0.00    +0.000 C 
ATOM     19  C   UNL     1       3.184   6.035  18.434  0.00  0.00    +0.000 C 
ENDROOT
BRANCH   9  20
ATOM     20  O   UNL     1       5.352   6.985  15.608  0.00  0.00    +0.000 OA
ATOM     21  H   UNL     1       5.785   6.413  14.968  0.00  0.00    +0.000 HD
ENDBRANCH   9  20
BRANCH   1  22
ATOM     22  O   UNL     1       1.780  10.569  18.591  0.00  0.00    +0.000 OA
BRANCH  22  23
ATOM     23  C   UNL     1       1.062  11.512  19.406  0.00  0.00    +0.000 C 
BRANCH  23  24
ATOM     24  C   UNL     1      -0.050  12.250  18.656  0.00  0.00    +0.000 C 
BRANCH  24  25
ATOM     25  C   UNL     1      -1.409  11.635  19.024  0.00  0.00    +0.000 C 
BRANCH  25  26
ATOM     26  C   UNL     1      -1.644  10.279  18.361  0.00  0.00    +0.000 C 
BRANCH  26  27
ATOM     27  C   UNL     1      -1.997  10.429  16.878  0.00  0.00    +0.000 C 
BRANCH  27  28
ATOM     28  C   UNL     1      -3.460  10.061  16.616  0.00  0.00    +0.000 C 
BRANCH  28  29
ATOM     29  C   UNL     1      -4.381  11.276  16.755  0.00  0.00    +0.000 C 
BRANCH  29  31
ATOM     30  C   UNL     1      -5.109  12.237  18.968  0.00  0.00    +0.000 C 
ATOM     31  C   UNL     1      -5.317  11.124  17.955  0.00  0.00    +0.000 C 
ENDBRANCH  29  31
ENDBRANCH  28  29
ENDBRANCH  27  28
ENDBRANCH  26  27
ENDBRANCH  25  26
ENDBRANCH  24  25
ENDBRANCH  23  24
ENDBRANCH  22  23
ENDBRANCH   1  22
TORSDOF 10
ENDMDL
MODEL 3
REMARK VINA RESULT:      -7.4      0.762      1.227
REMARK  Name = 
REMARK  12 active torsions:
REMARK  status: ('A' for Active; 'I' for Inactive)
REMARK    1  A    between atoms: C_1  and  C_2
REMARK    2  A    between atoms: C_2  and  C_3
REMARK    3  A    between atoms: C_3  and  C_4
REMARK    4  A    between atoms: C_4  and  C_5
REMARK    5  A    between atoms: C_5  and  C_6
REMARK    6  A    between atoms: C_6  and  C_7
REMARK    7  A    between atoms: C_7  and  C_8
REMARK    8  A    between atoms: C_8  and  C_9
REMARK    9  A    between atoms: C_9  and  O_10
REMARK   10  A    between atoms: O_10  and  C_11
REMARK   11  A    between atoms: C_19  and  O_20
REMARK   12  A    between atoms: N_26  and  C_27
REMARK                            x       y       z     vdW  Elec       q    Type
REMARK                         _______ _______ _______ _____ _____    ______ ____
ROOT
ATOM      1  C   UNL     1       1.591   7.850  19.921  0.00  0.00    +0.000 A 
ATOM      2  C   UNL     1       1.848   8.764  18.857  0.00  0.00    +0.000 A 
ATOM      3  C   UNL     1       2.781   8.488  17.795  0.00  0.00    +0.000 A 
ATOM      4  C   UNL     1       3.427   7.269  17.725  0.00  0.00    +0.000 A 
ATOM      5  C   UNL     1       3.154   6.443  18.800  0.00  0.00    +0.000 A 
ATOM      6  C   UNL     1       2.346   6.702  19.899  0.00  0.00    +0.000 A 
ATOM      7  O   UNL     1       2.385   5.622  20.786  0.00  0.00    +0.000 OA
ATOM      8  C   UNL     1       2.648   4.547  19.866  0.00  0.00    +0.000 C 
ATOM      9  C   UNL     1       3.199   3.184  20.281  0.00  0.00    +0.000 C 
ATOM     10  C   UNL     1       3.243   2.351  18.995  0.00  0.00    +0.000 C 
ATOM     11  C   UNL     1       3.260   2.906  17.754  0.00  0.00    +0.000 C 
ATOM     12  C   UNL     1       3.384   4.423  17.523  0.00  0.00    +0.000 C 
ATOM     13  C   UNL     1       4.501   5.041  16.631  0.00  0.00    +0.000 C 
ATOM     14  C   UNL     1       4.399   6.683  16.688  0.00  0.00    +0.000 C 
ATOM     15  N   UNL     1       5.770   4.409  17.056  0.00  0.00    +0.000 NA
ATOM     16  C   UNL     1       6.947   4.590  16.245  0.00  0.00    +0.000 C 
ATOM     17  C   UNL     1       6.020   4.264  18.488  0.00  0.00    +0.000 C 
ATOM     18  C   UNL     1       5.137   5.171  19.316  0.00  0.00    +0.000 C 
ATOM     19  C   UNL     1       3.649   5.077  18.876  0.00  0.00    +0.000 C 
ENDROOT
BRANCH   9  20
ATOM     20  O   UNL     1       2.350   2.562  21.237  0.00  0.00    +0.000 OA
ATOM     21  H   UNL     1       2.528   2.948  22.099  0.00  0.00    +0.000 HD
ENDBRANCH   9  20
BRANCH   1  22
ATOM     22  O   UNL     1       0.580   8.146  20.803  0.00  0.00    +0.000 OA
BRANCH  22  23
ATOM     23  C   UNL     1       0.984   8.990  21.897  0.00  0.00    +0.000 C 
BRANCH  23  24
ATOM     24  C   UNL     1       0.625  10.465  21.699  0.00  0.00    +0.000 C 
BRANCH  24  25
ATOM     25  C   UNL     1      -0.562  10.827  22.605  0.00  0.00    +0.000 C 
BRANCH  25  26
ATOM     26  C   UNL     1      -1.225  12.147  22.213  0.00  0.00    +0.000 C 
BRANCH  26  27
ATOM     27  C   UNL     1      -1.933  12.043  20.859  0.00  0.00    +0.000 C 
BRANCH  27  28
ATOM     28  C   UNL     1      -1.238  12.906  19.802  0.00  0.00    +0.000 C 
BRANCH  28  29
ATOM     29  C   UNL     1      -1.236  12.225  18.431  0.00  0.00    +0.000 C 
BRANCH  29  31
ATOM     30  C   UNL     1      -1.790  10.072  17.244  0.00  0.00    +0.000 C 
ATOM     31  C   UNL     1      -1.401  10.711  18.567  0.00  0.00    +0.000 C 
ENDBRANCH  29  31
ENDBRANCH  28  29
ENDBRANCH  27  28
ENDBRANCH  26  27
ENDBRANCH  25  26
ENDBRANCH  24  25
ENDBRANCH  23  24
ENDBRANCH  22  23
ENDBRANCH   1  22
TORSDOF 10
ENDMDL
MODEL 4
REMARK VINA RESULT:      -7.4      2.044      3.022
REMARK  Name = 
REMARK  12 active torsions:
REMARK  status: ('A' for Active; 'I' for Inactive)
REMARK    1  A    between atoms: C_1  and  C_2
REMARK    2  A    between atoms: C_2  and  C_3
REMARK    3  A    between atoms: C_3  and  C_4
REMARK    4  A    between atoms: C_4  and  C_5
REMARK    5  A    between atoms: C_5  and  C_6
REMARK    6  A    between atoms: C_6  and  C_7
REMARK    7  A    between atoms: C_7  and  C_8
REMARK    8  A    between atoms: C_8  and  C_9
REMARK    9  A    between atoms: C_9  and  O_10
REMARK   10  A    between atoms: O_10  and  C_11
REMARK   11  A    between atoms: C_19  and  O_20
REMARK   12  A    between atoms: N_26  and  C_27
REMARK                            x       y       z     vdW  Elec       q    Type
REMARK                         _______ _______ _______ _____ _____    ______ ____
ROOT
ATOM      1  C   UNL     1       1.534   7.893  20.082  0.00  0.00    +0.000 A 
ATOM      2  C   UNL     1       1.780   8.819  19.027  0.00  0.00    +0.000 A 
ATOM      3  C   UNL     1       2.688   8.549  17.942  0.00  0.00    +0.000 A 
ATOM      4  C   UNL     1       3.320   7.324  17.843  0.00  0.00    +0.000 A 
ATOM      5  C   UNL     1       3.060   6.486  18.912  0.00  0.00    +0.000 A 
ATOM      6  C   UNL     1       2.277   6.738  20.030  0.00  0.00    +0.000 A 
ATOM      7  O   UNL     1       2.322   5.646  20.902  0.00  0.00    +0.000 OA
ATOM      8  C   UNL     1       2.556   4.581  19.962  0.00  0.00    +0.000 C 
ATOM      9  C   UNL     1       3.100   3.207  20.348  0.00  0.00    +0.000 C 
ATOM     10  C   UNL     1       3.111   2.391  19.050  0.00  0.00    +0.000 C 
ATOM     11  C   UNL     1       3.110   2.962  17.816  0.00  0.00    +0.000 C 
ATOM     12  C   UNL     1       3.245   4.482  17.603  0.00  0.00    +0.000 C 
ATOM     13  C   UNL     1       4.350   5.101  16.698  0.00  0.00    +0.000 C 
ATOM     14  C   UNL     1       4.266   6.742  16.779  0.00  0.00    +0.000 C 
ATOM     15  N   UNL     1       5.621   4.450  17.090  0.00  0.00    +0.000 NA
ATOM     16  C   UNL     1       6.783   4.631  16.258  0.00  0.00    +0.000 C 
ATOM     17  C   UNL     1       5.898   4.283  18.515  0.00  0.00    +0.000 C 
ATOM     18  C   UNL     1       5.040   5.187  19.372  0.00  0.00    +0.000 C 
ATOM     19  C   UNL     1       3.543   5.114  18.960  0.00  0.00    +0.000 C 
ENDROOT
BRANCH   9  20
ATOM     20  O   UNL     1       2.265   2.580  21.312  0.00  0.00    +0.000 OA
ATOM     21  H   UNL     1       2.813   2.032  21.880  0.00  0.00    +0.000 HD
ENDBRANCH   9  20
BRANCH   1  22
ATOM     22  O   UNL     1       0.544   8.188  20.989  0.00  0.00    +0.000 OA
BRANCH  22  23
ATOM     23  C   UNL     1       0.848   9.300  21.849  0.00  0.00    +0.000 C 
BRANCH  23  24
ATOM     24  C   UNL     1      -0.000   9.339  23.124  0.00  0.00    +0.000 C 
BRANCH  24  25
ATOM     25  C   UNL     1      -0.928  10.562  23.083  0.00  0.00    +0.000 C 
BRANCH  25  26
ATOM     26  C   UNL     1      -0.696  11.441  21.854  0.00  0.00    +0.000 C 
BRANCH  26  27
ATOM     27  C   UNL     1      -0.714  12.930  22.214  0.00  0.00    +0.000 C 
BRANCH  27  28
ATOM     28  C   UNL     1      -2.131  13.400  22.555  0.00  0.00    +0.000 C 
BRANCH  28  29
ATOM     29  C   UNL     1      -2.163  14.190  23.865  0.00  0.00    +0.000 C 
BRANCH  29  31
ATOM     30  C   UNL     1      -4.044  12.566  24.287  0.00  0.00    +0.000 C 
ATOM     31  C   UNL     1      -3.454  13.922  24.640  0.00  0.00    +0.000 C 
ENDBRANCH  29  31
ENDBRANCH  28  29
ENDBRANCH  27  28
ENDBRANCH  26  27
ENDBRANCH  25  26
ENDBRANCH  24  25
ENDBRANCH  23  24
ENDBRANCH  22  23
ENDBRANCH   1  22
TORSDOF 10
ENDMDL
MODEL 5
REMARK VINA RESULT:      -7.3      2.132      3.504
REMARK  Name = 
REMARK  12 active torsions:
REMARK  status: ('A' for Active; 'I' for Inactive)
REMARK    1  A    between atoms: C_1  and  C_2
REMARK    2  A    between atoms: C_2  and  C_3
REMARK    3  A    between atoms: C_3  and  C_4
REMARK    4  A    between atoms: C_4  and  C_5
REMARK    5  A    between atoms: C_5  and  C_6
REMARK    6  A    between atoms: C_6  and  C_7
REMARK    7  A    between atoms: C_7  and  C_8
REMARK    8  A    between atoms: C_8  and  C_9
REMARK    9  A    between atoms: C_9  and  O_10
REMARK   10  A    between atoms: O_10  and  C_11
REMARK   11  A    between atoms: C_19  and  O_20
REMARK   12  A    between atoms: N_26  and  C_27
REMARK                            x       y       z     vdW  Elec       q    Type
REMARK                         _______ _______ _______ _____ _____    ______ ____
ROOT
ATOM      1  C   UNL     1       1.718   9.459  18.682  0.00  0.00    +0.000 A 
ATOM      2  C   UNL     1       1.019   9.341  19.919  0.00  0.00    +0.000 A 
ATOM      3  C   UNL     1       0.942   8.110  20.662  0.00  0.00    +0.000 A 
ATOM      4  C   UNL     1       1.618   6.985  20.230  0.00  0.00    +0.000 A 
ATOM      5  C   UNL     1       2.250   7.160  19.013  0.00  0.00    +0.000 A 
ATOM      6  C   UNL     1       2.268   8.291  18.209  0.00  0.00    +0.000 A 
ATOM      7  O   UNL     1       2.978   8.032  17.033  0.00  0.00    +0.000 OA
ATOM      8  C   UNL     1       3.893   7.026  17.506  0.00  0.00    +0.000 C 
ATOM      9  C   UNL     1       4.649   6.064  16.592  0.00  0.00    +0.000 C 
ATOM     10  C   UNL     1       5.548   5.238  17.521  0.00  0.00    +0.000 C 
ATOM     11  C   UNL     1       5.305   5.096  18.851  0.00  0.00    +0.000 C 
ATOM     12  C   UNL     1       4.027   5.629  19.526  0.00  0.00    +0.000 C 
ATOM     13  C   UNL     1       3.083   4.715  20.360  0.00  0.00    +0.000 C 
ATOM     14  C   UNL     1       1.771   5.583  20.844  0.00  0.00    +0.000 C 
ATOM     15  N   UNL     1       2.851   3.502  19.545  0.00  0.00    +0.000 NA
ATOM     16  C   UNL     1       2.221   2.360  20.156  0.00  0.00    +0.000 C 
ATOM     17  C   UNL     1       2.577   3.673  18.120  0.00  0.00    +0.000 C 
ATOM     18  C   UNL     1       2.149   5.085  17.787  0.00  0.00    +0.000 C 
ATOM     19  C   UNL     1       3.100   6.136  18.425  0.00  0.00    +0.000 C 
ENDROOT
BRANCH   9  20
ATOM     20  O   UNL     1       5.442   6.774  15.650  0.00  0.00    +0.000 OA
ATOM     21  H   UNL     1       4.937   7.527  15.333  0.00  0.00    +0.000 HD
ENDBRANCH   9  20
BRANCH   1  22
ATOM     22  O   UNL     1       1.852  10.709  18.127  0.00  0.00    +0.000 OA
BRANCH  22  23
ATOM     23  C   UNL     1       1.588  11.788  19.040  0.00  0.00    +0.000 C 
BRANCH  23  24
ATOM     24  C   UNL     1       0.328  12.588  18.697  0.00  0.00    +0.000 C 
BRANCH  24  25
ATOM     25  C   UNL     1      -0.609  12.611  19.913  0.00  0.00    +0.000 C 
BRANCH  25  26
ATOM     26  C   UNL     1      -1.825  11.701  19.741  0.00  0.00    +0.000 C 
BRANCH  26  27
ATOM     27  C   UNL     1      -2.415  11.809  18.332  0.00  0.00    +0.000 C 
BRANCH  27  28
ATOM     28  C   UNL     1      -2.997  10.468  17.871  0.00  0.00    +0.000 C 
BRANCH  28  29
ATOM     29  C   UNL     1      -2.300   9.956  16.609  0.00  0.00    +0.000 C 
BRANCH  29  31
ATOM     30  C   UNL     1      -3.806  10.020  14.589  0.00  0.00    +0.000 C 
ATOM     31  C   UNL     1      -2.733  10.753  15.378  0.00  0.00    +0.000 C 
ENDBRANCH  29  31
ENDBRANCH  28  29
ENDBRANCH  27  28
ENDBRANCH  26  27
ENDBRANCH  25  26
ENDBRANCH  24  25
ENDBRANCH  23  24
ENDBRANCH  22  23
ENDBRANCH   1  22
TORSDOF 10
ENDMDL
MODEL 6
REMARK VINA RESULT:      -7.3      1.332      2.011
REMARK  Name = 
REMARK  12 active torsions:
REMARK  status: ('A' for Active; 'I' for Inactive)
REMARK    1  A    between atoms: C_1  and  C_2
REMARK    2  A    between atoms: C_2  and  C_3
REMARK    3  A    between atoms: C_3  and  C_4
REMARK    4  A    between atoms: C_4  and  C_5
REMARK    5  A    between atoms: C_5  and  C_6
REMARK    6  A    between atoms: C_6  and  C_7
REMARK    7  A    between atoms: C_7  and  C_8
REMARK    8  A    between atoms: C_8  and  C_9
REMARK    9  A    between atoms: C_9  and  O_10
REMARK   10  A    between atoms: O_10  and  C_11
REMARK   11  A    between atoms: C_19  and  O_20
REMARK   12  A    between atoms: N_26  and  C_27
REMARK                            x       y       z     vdW  Elec       q    Type
REMARK                         _______ _______ _______ _____ _____    ______ ____
ROOT
ATOM      1  C   UNL     1       1.369   8.414  19.888  0.00  0.00    +0.000 A 
ATOM      2  C   UNL     1       1.889   9.249  18.857  0.00  0.00    +0.000 A 
ATOM      3  C   UNL     1       2.851   8.792  17.888  0.00  0.00    +0.000 A 
ATOM      4  C   UNL     1       3.264   7.474  17.876  0.00  0.00    +0.000 A 
ATOM      5  C   UNL     1       2.744   6.728  18.917  0.00  0.00    +0.000 A 
ATOM      6  C   UNL     1       1.897   7.146  19.935  0.00  0.00    +0.000 A 
ATOM      7  O   UNL     1       1.653   6.091  20.818  0.00  0.00    +0.000 OA
ATOM      8  C   UNL     1       1.798   4.973  19.924  0.00  0.00    +0.000 C 
ATOM      9  C   UNL     1       2.046   3.538  20.386  0.00  0.00    +0.000 C 
ATOM     10  C   UNL     1       2.058   2.692  19.107  0.00  0.00    +0.000 C 
ATOM     11  C   UNL     1       2.294   3.216  17.875  0.00  0.00    +0.000 C 
ATOM     12  C   UNL     1       2.717   4.682  17.661  0.00  0.00    +0.000 C 
ATOM     13  C   UNL     1       4.008   5.071  16.883  0.00  0.00    +0.000 C 
ATOM     14  C   UNL     1       4.206   6.703  16.935  0.00  0.00    +0.000 C 
ATOM     15  N   UNL     1       5.093   4.222  17.425  0.00  0.00    +0.000 NA
ATOM     16  C   UNL     1       6.354   4.172  16.730  0.00  0.00    +0.000 C 
ATOM     17  C   UNL     1       5.176   4.054  18.874  0.00  0.00    +0.000 C 
ATOM     18  C   UNL     1       4.400   5.120  19.617  0.00  0.00    +0.000 C 
ATOM     19  C   UNL     1       2.969   5.295  19.036  0.00  0.00    +0.000 C 
ENDROOT
BRANCH   9  20
ATOM     20  O   UNL     1       1.011   3.096  21.254  0.00  0.00    +0.000 OA
ATOM     21  H   UNL     1       0.439   2.498  20.766  0.00  0.00    +0.000 HD
ENDBRANCH   9  20
BRANCH   1  22
ATOM     22  O   UNL     1       0.351   8.904  20.671  0.00  0.00    +0.000 OA
BRANCH  22  23
ATOM     23  C   UNL     1      -0.039  10.251  20.351  0.00  0.00    +0.000 C 
BRANCH  23  24
ATOM     24  C   UNL     1      -1.353  10.340  19.569  0.00  0.00    +0.000 C 
BRANCH  24  25
ATOM     25  C   UNL     1      -1.061  10.787  18.129  0.00  0.00    +0.000 C 
BRANCH  25  26
ATOM     26  C   UNL     1      -1.796   9.945  17.087  0.00  0.00    +0.000 C 
BRANCH  26  27
ATOM     27  C   UNL     1      -2.597  10.820  16.117  0.00  0.00    +0.000 C 
BRANCH  27  28
ATOM     28  C   UNL     1      -3.621   9.988  15.339  0.00  0.00    +0.000 C 
BRANCH  28  29
ATOM     29  C   UNL     1      -3.385  10.073  13.829  0.00  0.00    +0.000 C 
BRANCH  29  31
ATOM     30  C   UNL     1      -4.399   9.683  11.554  0.00  0.00    +0.000 C 
ATOM     31  C   UNL     1      -4.657   9.733  13.052  0.00  0.00    +0.000 C 
ENDBRANCH  29  31
ENDBRANCH  28  29
ENDBRANCH  27  28
ENDBRANCH  26  27
ENDBRANCH  25  26
ENDBRANCH  24  25
ENDBRANCH  23  24
ENDBRANCH  22  23
ENDBRANCH   1  22
TORSDOF 10
ENDMDL
MODEL 7
REMARK VINA RESULT:      -7.3      2.013      3.522
REMARK  Name = 
REMARK  12 active torsions:
REMARK  status: ('A' for Active; 'I' for Inactive)
REMARK    1  A    between atoms: C_1  and  C_2
REMARK    2  A    between atoms: C_2  and  C_3
REMARK    3  A    between atoms: C_3  and  C_4
REMARK    4  A    between atoms: C_4  and  C_5
REMARK    5  A    between atoms: C_5  and  C_6
REMARK    6  A    between atoms: C_6  and  C_7
REMARK    7  A    between atoms: C_7  and  C_8
REMARK    8  A    between atoms: C_8  and  C_9
REMARK    9  A    between atoms: C_9  and  O_10
REMARK   10  A    between atoms: O_10  and  C_11
REMARK   11  A    between atoms: C_19  and  O_20
REMARK   12  A    between atoms: N_26  and  C_27
REMARK                            x       y       z     vdW  Elec       q    Type
REMARK                         _______ _______ _______ _____ _____    ______ ____
ROOT
ATOM      1  C   UNL     1       1.873   8.861  19.158  0.00  0.00    +0.000 A 
ATOM      2  C   UNL     1       1.222   8.537  20.384  0.00  0.00    +0.000 A 
ATOM      3  C   UNL     1       1.197   7.205  20.931  0.00  0.00    +0.000 A 
ATOM      4  C   UNL     1       1.879   6.177  20.309  0.00  0.00    +0.000 A 
ATOM      5  C   UNL     1       2.464   6.553  19.114  0.00  0.00    +0.000 A 
ATOM      6  C   UNL     1       2.430   7.794  18.493  0.00  0.00    +0.000 A 
ATOM      7  O   UNL     1       3.102   7.736  17.269  0.00  0.00    +0.000 OA
ATOM      8  C   UNL     1       4.054   6.694  17.551  0.00  0.00    +0.000 C 
ATOM      9  C   UNL     1       4.796   5.902  16.477  0.00  0.00    +0.000 C 
ATOM     10  C   UNL     1       5.744   4.967  17.238  0.00  0.00    +0.000 C 
ATOM     11  C   UNL     1       5.553   4.617  18.538  0.00  0.00    +0.000 C 
ATOM     12  C   UNL     1       4.289   5.008  19.327  0.00  0.00    +0.000 C 
ATOM     13  C   UNL     1       3.394   3.953  20.041  0.00  0.00    +0.000 C 
ATOM     14  C   UNL     1       2.083   4.702  20.695  0.00  0.00    +0.000 C 
ATOM     15  N   UNL     1       3.158   2.874  19.057  0.00  0.00    +0.000 NA
ATOM     16  C   UNL     1       2.573   1.635  19.505  0.00  0.00    +0.000 C 
ATOM     17  C   UNL     1       2.830   3.253  17.685  0.00  0.00    +0.000 C 
ATOM     18  C   UNL     1       2.361   4.688  17.587  0.00  0.00    +0.000 C 
ATOM     19  C   UNL     1       3.313   5.653  18.348  0.00  0.00    +0.000 C 
ENDROOT
BRANCH   9  20
ATOM     20  O   UNL     1       5.540   6.768  15.630  0.00  0.00    +0.000 OA
ATOM     21  H   UNL     1       5.598   7.630  16.051  0.00  0.00    +0.000 HD
ENDBRANCH   9  20
BRANCH   1  22
ATOM     22  O   UNL     1       1.962  10.184  18.797  0.00  0.00    +0.000 OA
BRANCH  22  23
ATOM     23  C   UNL     1       1.025  11.041  19.473  0.00  0.00    +0.000 C 
BRANCH  23  24
ATOM     24  C   UNL     1      -0.109  11.540  18.574  0.00  0.00    +0.000 C 
BRANCH  24  25
ATOM     25  C   UNL     1      -0.802  10.339  17.912  0.00  0.00    +0.000 C 
BRANCH  25  26
ATOM     26  C   UNL     1      -2.110   9.955  18.602  0.00  0.00    +0.000 C 
BRANCH  26  27
ATOM     27  C   UNL     1      -3.205   9.613  17.587  0.00  0.00    +0.000 C 
BRANCH  27  28
ATOM     28  C   UNL     1      -3.919  10.876  17.095  0.00  0.00    +0.000 C 
BRANCH  28  29
ATOM     29  C   UNL     1      -3.529  11.220  15.656  0.00  0.00    +0.000 C 
BRANCH  29  31
ATOM     30  C   UNL     1      -3.535   9.913  13.500  0.00  0.00    +0.000 C 
ATOM     31  C   UNL     1      -2.997   9.990  14.920  0.00  0.00    +0.000 C 
ENDBRANCH  29  31
ENDBRANCH  28  29
ENDBRANCH  27  28
ENDBRANCH  26  27
ENDBRANCH  25  26
ENDBRANCH  24  25
ENDBRANCH  23  24
ENDBRANCH  22  23
ENDBRANCH   1  22
TORSDOF 10
ENDMDL
MODEL 8
REMARK VINA RESULT:      -7.3      2.105      2.921
REMARK  Name = 
REMARK  12 active torsions:
REMARK  status: ('A' for Active; 'I' for Inactive)
REMARK    1  A    between atoms: C_1  and  C_2
REMARK    2  A    between atoms: C_2  and  C_3
REMARK    3  A    between atoms: C_3  and  C_4
REMARK    4  A    between atoms: C_4  and  C_5
REMARK    5  A    between atoms: C_5  and  C_6
REMARK    6  A    between atoms: C_6  and  C_7
REMARK    7  A    between atoms: C_7  and  C_8
REMARK    8  A    between atoms: C_8  and  C_9
REMARK    9  A    between atoms: C_9  and  O_10
REMARK   10  A    between atoms: O_10  and  C_11
REMARK   11  A    between atoms: C_19  and  O_20
REMARK   12  A    between atoms: N_26  and  C_27
REMARK                            x       y       z     vdW  Elec       q    Type
REMARK                         _______ _______ _______ _____ _____    ______ ____
ROOT
ATOM      1  C   UNL     1       1.611   7.678  20.112  0.00  0.00    +0.000 A 
ATOM      2  C   UNL     1       1.787   8.647  19.082  0.00  0.00    +0.000 A 
ATOM      3  C   UNL     1       2.693   8.461  17.978  0.00  0.00    +0.000 A 
ATOM      4  C   UNL     1       3.392   7.278  17.834  0.00  0.00    +0.000 A 
ATOM      5  C   UNL     1       3.195   6.396  18.880  0.00  0.00    +0.000 A 
ATOM      6  C   UNL     1       2.416   6.569  20.015  0.00  0.00    +0.000 A 
ATOM      7  O   UNL     1       2.536   5.456  20.852  0.00  0.00    +0.000 OA
ATOM      8  C   UNL     1       2.815   4.434  19.878  0.00  0.00    +0.000 C 
ATOM      9  C   UNL     1       3.443   3.083  20.215  0.00  0.00    +0.000 C 
ATOM     10  C   UNL     1       3.480   2.307  18.893  0.00  0.00    +0.000 C 
ATOM     11  C   UNL     1       3.428   2.914  17.677  0.00  0.00    +0.000 C 
ATOM     12  C   UNL     1       3.474   4.444  17.508  0.00  0.00    +0.000 C 
ATOM     13  C   UNL     1       4.529   5.152  16.608  0.00  0.00    +0.000 C 
ATOM     14  C   UNL     1       4.353   6.783  16.740  0.00  0.00    +0.000 C 
ATOM     15  N   UNL     1       5.840   4.564  16.963  0.00  0.00    +0.000 NA
ATOM     16  C   UNL     1       6.977   4.835  16.121  0.00  0.00    +0.000 C 
ATOM     17  C   UNL     1       6.147   4.370  18.378  0.00  0.00    +0.000 C 
ATOM     18  C   UNL     1       5.253   5.198  19.274  0.00  0.00    +0.000 C 
ATOM     19  C   UNL     1       3.756   5.053  18.879  0.00  0.00    +0.000 C 
ENDROOT
BRANCH   9  20
ATOM     20  O   UNL     1       2.658   2.381  21.170  0.00  0.00    +0.000 OA
ATOM     21  H   UNL     1       2.923   2.666  22.050  0.00  0.00    +0.000 HD
ENDBRANCH   9  20
BRANCH   1  22
ATOM     22  O   UNL     1       0.619   7.889  21.040  0.00  0.00    +0.000 OA
BRANCH  22  23
ATOM     23  C   UNL     1       0.037   9.203  20.990  0.00  0.00    +0.000 C 
BRANCH  23  24
ATOM     24  C   UNL     1       0.395  10.079  22.194  0.00  0.00    +0.000 C 
BRANCH  24  25
ATOM     25  C   UNL     1      -0.881  10.401  22.987  0.00  0.00    +0.000 C 
BRANCH  25  26
ATOM     26  C   UNL     1      -1.228  11.889  22.971  0.00  0.00    +0.000 C 
BRANCH  26  27
ATOM     27  C   UNL     1      -2.721  12.123  23.222  0.00  0.00    +0.000 C 
BRANCH  27  28
ATOM     28  C   UNL     1      -3.402  12.723  21.988  0.00  0.00    +0.000 C 
BRANCH  28  29
ATOM     29  C   UNL     1      -4.916  12.841  22.182  0.00  0.00    +0.000 C 
BRANCH  29  31
ATOM     30  C   UNL     1      -6.625  12.715  24.030  0.00  0.00    +0.000 C 
ATOM     31  C   UNL     1      -5.258  13.237  23.618  0.00  0.00    +0.000 C 
ENDBRANCH  29  31
ENDBRANCH  28  29
ENDBRANCH  27  28
ENDBRANCH  26  27
ENDBRANCH  25  26
ENDBRANCH  24  25
ENDBRANCH  23  24
ENDBRANCH  22  23
ENDBRANCH   1  22
TORSDOF 10
ENDMDL
MODEL 9
REMARK VINA RESULT:      -7.2      1.837      2.302
REMARK  Name = 
REMARK  12 active torsions:
REMARK  status: ('A' for Active; 'I' for Inactive)
REMARK    1  A    between atoms: C_1  and  C_2
REMARK    2  A    between atoms: C_2  and  C_3
REMARK    3  A    between atoms: C_3  and  C_4
REMARK    4  A    between atoms: C_4  and  C_5
REMARK    5  A    between atoms: C_5  and  C_6
REMARK    6  A    between atoms: C_6  and  C_7
REMARK    7  A    between atoms: C_7  and  C_8
REMARK    8  A    between atoms: C_8  and  C_9
REMARK    9  A    between atoms: C_9  and  O_10
REMARK   10  A    between atoms: O_10  and  C_11
REMARK   11  A    between atoms: C_19  and  O_20
REMARK   12  A    between atoms: N_26  and  C_27
REMARK                            x       y       z     vdW  Elec       q    Type
REMARK                         _______ _______ _______ _____ _____    ______ ____
ROOT
ATOM      1  C   UNL     1       1.379   8.233  19.829  0.00  0.00    +0.000 A 
ATOM      2  C   UNL     1       1.754   9.075  18.742  0.00  0.00    +0.000 A 
ATOM      3  C   UNL     1       2.721   8.688  17.748  0.00  0.00    +0.000 A 
ATOM      4  C   UNL     1       3.286   7.427  17.770  0.00  0.00    +0.000 A 
ATOM      5  C   UNL     1       2.900   6.675  18.864  0.00  0.00    +0.000 A 
ATOM      6  C   UNL     1       2.054   7.038  19.903  0.00  0.00    +0.000 A 
ATOM      7  O   UNL     1       1.972   6.003  20.838  0.00  0.00    +0.000 OA
ATOM      8  C   UNL     1       2.211   4.870  19.985  0.00  0.00    +0.000 C 
ATOM      9  C   UNL     1       2.645   3.496  20.492  0.00  0.00    +0.000 C 
ATOM     10  C   UNL     1       2.702   2.599  19.249  0.00  0.00    +0.000 C 
ATOM     11  C   UNL     1       2.823   3.090  17.987  0.00  0.00    +0.000 C 
ATOM     12  C   UNL     1       3.062   4.584  17.695  0.00  0.00    +0.000 C 
ATOM     13  C   UNL     1       4.265   5.083  16.841  0.00  0.00    +0.000 C 
ATOM     14  C   UNL     1       4.271   6.729  16.818  0.00  0.00    +0.000 C 
ATOM     15  N   UNL     1       5.463   4.392  17.366  0.00  0.00    +0.000 NA
ATOM     16  C   UNL     1       6.691   4.456  16.615  0.00  0.00    +0.000 C 
ATOM     17  C   UNL     1       5.626   4.301  18.815  0.00  0.00    +0.000 C 
ATOM     18  C   UNL     1       4.762   5.302  19.550  0.00  0.00    +0.000 C 
ATOM     19  C   UNL     1       3.297   5.284  19.030  0.00  0.00    +0.000 C 
ENDROOT
BRANCH   9  20
ATOM     20  O   UNL     1       1.706   2.978  21.425  0.00  0.00    +0.000 OA
ATOM     21  H   UNL     1       1.571   2.045  21.235  0.00  0.00    +0.000 HD
ENDBRANCH   9  20
BRANCH   1  22
ATOM     22  O   UNL     1       0.344   8.637  20.639  0.00  0.00    +0.000 OA
BRANCH  22  23
ATOM     23  C   UNL     1       0.766   9.284  21.852  0.00  0.00    +0.000 C 
BRANCH  23  24
ATOM     24  C   UNL     1      -0.355   9.451  22.881  0.00  0.00    +0.000 C 
BRANCH  24  25
ATOM     25  C   UNL     1      -0.737  10.935  22.985  0.00  0.00    +0.000 C 
BRANCH  25  26
ATOM     26  C   UNL     1      -1.245  11.510  21.663  0.00  0.00    +0.000 C 
BRANCH  26  27
ATOM     27  C   UNL     1      -0.480  12.776  21.267  0.00  0.00    +0.000 C 
BRANCH  27  28
ATOM     28  C   UNL     1       0.064  12.671  19.839  0.00  0.00    +0.000 C 
BRANCH  28  29
ATOM     29  C   UNL     1       1.589  12.540  19.824  0.00  0.00    +0.000 C 
BRANCH  29  31
ATOM     30  C   UNL     1       3.174  13.880  18.394  0.00  0.00    +0.000 C 
ATOM     31  C   UNL     1       2.147  12.759  18.418  0.00  0.00    +0.000 C 
ENDBRANCH  29  31
ENDBRANCH  28  29
ENDBRANCH  27  28
ENDBRANCH  26  27
ENDBRANCH  25  26
ENDBRANCH  24  25
ENDBRANCH  23  24
ENDBRANCH  22  23
ENDBRANCH   1  22
TORSDOF 10
ENDMDL
