MODEL 1
REMARK VINA RESULT:      -8.2      0.000      0.000
REMARK  Name = 
REMARK  9 active torsions:
REMARK  status: ('A' for Active; 'I' for Inactive)
REMARK    1  A    between atoms: C_1  and  O_2
REMARK    2  A    between atoms: O_2  and  C_3
REMARK    3  A    between atoms: C_6  and  C_7
REMARK    4  A    between atoms: C_7  and  N_8
REMARK    5  A    between atoms: C_9  and  C_11
REMARK    6  A    between atoms: C_11  and  S_12
REMARK    7  A    between atoms: S_12  and  C_13
REMARK    8  A    between atoms: N_26  and  C_27
REMARK    9  A    between atoms: C_27  and  C_28
REMARK                            x       y       z     vdW  Elec       q    Type
REMARK                         _______ _______ _______ _____ _____    ______ ____
ROOT
ATOM      1  C   UNL     1       3.480   6.758  18.586  0.00  0.00    +0.000 A 
ATOM      2  N   UNL     1       3.703   7.002  17.324  0.00  0.00    +0.000 NA
ATOM      3  C   UNL     1       4.951   6.494  16.904  0.00  0.00    +0.000 A 
ATOM      4  C   UNL     1       5.934   6.258  17.834  0.00  0.00    +0.000 A 
ATOM      5  O   UNL     1       7.110   5.967  17.223  0.00  0.00    +0.000 OA
ATOM      6  C   UNL     1       6.742   5.538  15.983  0.00  0.00    +0.000 A 
ATOM      7  C   UNL     1       7.606   4.875  15.121  0.00  0.00    +0.000 A 
ATOM      8  C   UNL     1       6.999   4.132  14.112  0.00  0.00    +0.000 A 
ATOM      9  C   UNL     1       5.609   4.147  13.949  0.00  0.00    +0.000 A 
ATOM     10  C   UNL     1       4.778   4.964  14.747  0.00  0.00    +0.000 A 
ATOM     11  C   UNL     1       5.362   5.692  15.802  0.00  0.00    +0.000 A 
ATOM     12  C   UNL     1       5.584   5.677  19.096  0.00  0.00    +0.000 A 
ATOM     13  O   UNL     1       6.287   4.881  19.697  0.00  0.00    +0.000 OA
ATOM     14  N   UNL     1       4.207   5.868  19.377  0.00  0.00    +0.000 N 
ENDROOT
BRANCH   1  15
ATOM     15  S   UNL     1       2.180   7.548  19.472  0.00  0.00    +0.000 S 
BRANCH  15  16
ATOM     16  C   UNL     1       1.647   8.895  18.356  0.00  0.00    +0.000 C 
BRANCH  16  18
ATOM     17  N   UNL     1       0.606  11.057  18.426  0.00  0.00    +0.000 N 
ATOM     18  C   UNL     1       0.912   9.947  19.174  0.00  0.00    +0.000 C 
ATOM     19  O   UNL     1       0.632   9.810  20.359  0.00  0.00    +0.000 OA
ATOM     20  H   UNL     1       0.673  10.930  17.424  0.00  0.00    +0.000 HD
BRANCH  17  21
ATOM     21  C   UNL     1      -0.263  12.108  18.902  0.00  0.00    +0.000 C 
BRANCH  21  25
ATOM     22  C   UNL     1      -4.412  11.410  17.856  0.00  0.00    +0.000 A 
ATOM     23  C   UNL     1      -3.407  11.068  16.967  0.00  0.00    +0.000 A 
ATOM     24  C   UNL     1      -2.073  11.275  17.307  0.00  0.00    +0.000 A 
ATOM     25  C   UNL     1      -1.707  11.876  18.518  0.00  0.00    +0.000 A 
ATOM     26  C   UNL     1      -2.734  12.224  19.406  0.00  0.00    +0.000 A 
ATOM     27  C   UNL     1      -4.077  11.995  19.075  0.00  0.00    +0.000 A 
BRANCH  22  29
ATOM     28  C   UNL     1      -6.704  11.256  18.381  0.00  0.00    +0.000 C 
ATOM     29  O   UNL     1      -5.679  11.148  17.408  0.00  0.00    +0.000 OA
ENDBRANCH  22  29
ENDBRANCH  21  25
ENDBRANCH  17  21
ENDBRANCH  16  18
ENDBRANCH  15  16
ENDBRANCH   1  15
BRANCH  14  30
ATOM     30  C   UNL     1       3.486   4.628  19.705  0.00  0.00    +0.000 C 
BRANCH  30  31
ATOM     31  C   UNL     1       2.490   4.116  18.664  0.00  0.00    +0.000 C 
ATOM     32  C   UNL     1       1.212   3.627  19.339  0.00  0.00    +0.000 C 
ATOM     33  C   UNL     1       0.962   2.256  18.770  0.00  0.00    +0.000 C 
ATOM     34  C   UNL     1       2.269   1.850  18.133  0.00  0.00    +0.000 C 
ATOM     35  O   UNL     1       3.073   3.013  17.963  0.00  0.00    +0.000 OA
ENDBRANCH  30  31
ENDBRANCH  14  30
TORSDOF 8
ENDMDL
MODEL 2
REMARK VINA RESULT:      -8.1      5.210      8.632
REMARK  Name = 
REMARK  9 active torsions:
REMARK  status: ('A' for Active; 'I' for Inactive)
REMARK    1  A    between atoms: C_1  and  O_2
REMARK    2  A    between atoms: O_2  and  C_3
REMARK    3  A    between atoms: C_6  and  C_7
REMARK    4  A    between atoms: C_7  and  N_8
REMARK    5  A    between atoms: C_9  and  C_11
REMARK    6  A    between atoms: C_11  and  S_12
REMARK    7  A    between atoms: S_12  and  C_13
REMARK    8  A    between atoms: N_26  and  C_27
REMARK    9  A    between atoms: C_27  and  C_28
REMARK                            x       y       z     vdW  Elec       q    Type
REMARK                         _______ _______ _______ _____ _____    ______ ____
ROOT
ATOM      1  C   UNL     1       6.073   5.065  18.378  0.00  0.00    +0.000 A 
ATOM      2  N   UNL     1       5.628   4.076  19.101  0.00  0.00    +0.000 NA
ATOM      3  C   UNL     1       4.264   4.237  19.429  0.00  0.00    +0.000 A 
ATOM      4  C   UNL     1       3.706   5.491  19.405  0.00  0.00    +0.000 A 
ATOM      5  O   UNL     1       2.458   5.469  19.938  0.00  0.00    +0.000 OA
ATOM      6  C   UNL     1       2.072   4.167  19.823  0.00  0.00    +0.000 A 
ATOM      7  C   UNL     1       0.758   3.747  19.987  0.00  0.00    +0.000 A 
ATOM      8  C   UNL     1       0.444   2.513  19.425  0.00  0.00    +0.000 A 
ATOM      9  C   UNL     1       1.433   1.729  18.820  0.00  0.00    +0.000 A 
ATOM     10  C   UNL     1       2.791   2.120  18.818  0.00  0.00    +0.000 A 
ATOM     11  C   UNL     1       3.128   3.384  19.342  0.00  0.00    +0.000 A 
ATOM     12  C   UNL     1       4.050   6.394  18.348  0.00  0.00    +0.000 A 
ATOM     13  O   UNL     1       3.266   7.181  17.842  0.00  0.00    +0.000 OA
ATOM     14  N   UNL     1       5.279   6.024  17.745  0.00  0.00    +0.000 N 
ENDROOT
BRANCH   1  15
ATOM     15  S   UNL     1       7.793   5.316  18.098  0.00  0.00    +0.000 S 
BRANCH  15  16
ATOM     16  C   UNL     1       8.194   6.774  19.127  0.00  0.00    +0.000 C 
BRANCH  16  18
ATOM     17  N   UNL     1       8.814   9.077  18.857  0.00  0.00    +0.000 N 
ATOM     18  C   UNL     1       8.211   8.010  18.238  0.00  0.00    +0.000 C 
ATOM     19  O   UNL     1       7.741   8.037  17.107  0.00  0.00    +0.000 OA
ATOM     20  H   UNL     1       9.366   8.844  19.672  0.00  0.00    +0.000 HD
BRANCH  17  21
ATOM     21  C   UNL     1       9.143  10.301  18.164  0.00  0.00    +0.000 C 
BRANCH  21  25
ATOM     22  C   UNL     1       9.857  13.555  20.939  0.00  0.00    +0.000 A 
ATOM     23  C   UNL     1       9.479  13.828  19.636  0.00  0.00    +0.000 A 
ATOM     24  C   UNL     1       9.232  12.785  18.747  0.00  0.00    +0.000 A 
ATOM     25  C   UNL     1       9.406  11.445  19.117  0.00  0.00    +0.000 A 
ATOM     26  C   UNL     1       9.797  11.183  20.438  0.00  0.00    +0.000 A 
ATOM     27  C   UNL     1      10.024  12.232  21.341  0.00  0.00    +0.000 A 
BRANCH  22  29
ATOM     28  C   UNL     1       8.899  15.418  22.018  0.00  0.00    +0.000 C 
ATOM     29  O   UNL     1      10.061  14.664  21.715  0.00  0.00    +0.000 OA
ENDBRANCH  22  29
ENDBRANCH  21  25
ENDBRANCH  17  21
ENDBRANCH  16  18
ENDBRANCH  15  16
ENDBRANCH   1  15
BRANCH  14  30
ATOM     30  C   UNL     1       5.209   5.874  16.283  0.00  0.00    +0.000 C 
BRANCH  30  31
ATOM     31  C   UNL     1       5.881   4.638  15.684  0.00  0.00    +0.000 C 
ATOM     32  C   UNL     1       7.047   5.042  14.788  0.00  0.00    +0.000 C 
ATOM     33  C   UNL     1       6.829   4.301  13.496  0.00  0.00    +0.000 C 
ATOM     34  C   UNL     1       5.391   3.846  13.540  0.00  0.00    +0.000 C 
ATOM     35  O   UNL     1       4.929   3.930  14.884  0.00  0.00    +0.000 OA
ENDBRANCH  30  31
ENDBRANCH  14  30
TORSDOF 8
ENDMDL
MODEL 3
REMARK VINA RESULT:      -8.0      2.536      9.987
REMARK  Name = 
REMARK  9 active torsions:
REMARK  status: ('A' for Active; 'I' for Inactive)
REMARK    1  A    between atoms: C_1  and  O_2
REMARK    2  A    between atoms: O_2  and  C_3
REMARK    3  A    between atoms: C_6  and  C_7
REMARK    4  A    between atoms: C_7  and  N_8
REMARK    5  A    between atoms: C_9  and  C_11
REMARK    6  A    between atoms: C_11  and  S_12
REMARK    7  A    between atoms: S_12  and  C_13
REMARK    8  A    between atoms: N_26  and  C_27
REMARK    9  A    between atoms: C_27  and  C_28
REMARK                            x       y       z     vdW  Elec       q    Type
REMARK                         _______ _______ _______ _____ _____    ______ ____
ROOT
ATOM      1  C   UNL     1       0.980   9.732  20.082  0.00  0.00    +0.000 A 
ATOM      2  N   UNL     1       0.628   9.850  21.332  0.00  0.00    +0.000 NA
ATOM      3  C   UNL     1       0.382  11.195  21.684  0.00  0.00    +0.000 A 
ATOM      4  C   UNL     1       0.943  12.203  20.938  0.00  0.00    +0.000 A 
ATOM      5  O   UNL     1       0.759  13.404  21.542  0.00  0.00    +0.000 OA
ATOM      6  C   UNL     1      -0.311  13.202  22.361  0.00  0.00    +0.000 A 
ATOM      7  C   UNL     1      -1.016  14.239  22.959  0.00  0.00    +0.000 A 
ATOM      8  C   UNL     1      -2.301  13.924  23.391  0.00  0.00    +0.000 A 
ATOM      9  C   UNL     1      -2.789  12.616  23.296  0.00  0.00    +0.000 A 
ATOM     10  C   UNL     1      -1.980  11.555  22.830  0.00  0.00    +0.000 A 
ATOM     11  C   UNL     1      -0.691  11.854  22.348  0.00  0.00    +0.000 A 
ATOM     12  C   UNL     1       0.982  12.084  19.511  0.00  0.00    +0.000 A 
ATOM     13  O   UNL     1       0.839  13.023  18.745  0.00  0.00    +0.000 OA
ATOM     14  N   UNL     1       0.861  10.728  19.112  0.00  0.00    +0.000 N 
ENDROOT
BRANCH   1  15
ATOM     15  S   UNL     1       1.669   8.242  19.445  0.00  0.00    +0.000 S 
BRANCH  15  16
ATOM     16  C   UNL     1       1.643   7.103  20.875  0.00  0.00    +0.000 C 
BRANCH  16  18
ATOM     17  N   UNL     1       2.014   5.623  19.022  0.00  0.00    +0.000 N 
ATOM     18  C   UNL     1       1.998   5.704  20.393  0.00  0.00    +0.000 C 
ATOM     19  O   UNL     1       2.241   4.769  21.146  0.00  0.00    +0.000 OA
ATOM     20  H   UNL     1       2.041   6.514  18.541  0.00  0.00    +0.000 HD
BRANCH  17  21
ATOM     21  C   UNL     1       2.517   4.472  18.310  0.00  0.00    +0.000 C 
BRANCH  21  25
ATOM     22  C   UNL     1       5.907   5.482  15.803  0.00  0.00    +0.000 A 
ATOM     23  C   UNL     1       5.527   4.159  15.953  0.00  0.00    +0.000 A 
ATOM     24  C   UNL     1       4.428   3.832  16.743  0.00  0.00    +0.000 A 
ATOM     25  C   UNL     1       3.712   4.809  17.447  0.00  0.00    +0.000 A 
ATOM     26  C   UNL     1       4.112   6.144  17.293  0.00  0.00    +0.000 A 
ATOM     27  C   UNL     1       5.204   6.476  16.479  0.00  0.00    +0.000 A 
BRANCH  22  29
ATOM     28  C   UNL     1       7.099   4.783  13.894  0.00  0.00    +0.000 C 
ATOM     29  O   UNL     1       6.995   5.671  14.994  0.00  0.00    +0.000 OA
ENDBRANCH  22  29
ENDBRANCH  21  25
ENDBRANCH  17  21
ENDBRANCH  16  18
ENDBRANCH  15  16
ENDBRANCH   1  15
BRANCH  14  30
ATOM     30  C   UNL     1      -0.208  10.486  18.131  0.00  0.00    +0.000 C 
BRANCH  30  31
ATOM     31  C   UNL     1      -1.608  10.223  18.689  0.00  0.00    +0.000 C 
ATOM     32  C   UNL     1      -2.538   9.720  17.590  0.00  0.00    +0.000 C 
ATOM     33  C   UNL     1      -3.766  10.585  17.684  0.00  0.00    +0.000 C 
ATOM     34  C   UNL     1      -3.350  11.773  18.516  0.00  0.00    +0.000 C 
ATOM     35  O   UNL     1      -2.144  11.448  19.200  0.00  0.00    +0.000 OA
ENDBRANCH  30  31
ENDBRANCH  14  30
TORSDOF 8
ENDMDL
MODEL 4
REMARK VINA RESULT:      -8.0      5.244      9.084
REMARK  Name = 
REMARK  9 active torsions:
REMARK  status: ('A' for Active; 'I' for Inactive)
REMARK    1  A    between atoms: C_1  and  O_2
REMARK    2  A    between atoms: O_2  and  C_3
REMARK    3  A    between atoms: C_6  and  C_7
REMARK    4  A    between atoms: C_7  and  N_8
REMARK    5  A    between atoms: C_9  and  C_11
REMARK    6  A    between atoms: C_11  and  S_12
REMARK    7  A    between atoms: S_12  and  C_13
REMARK    8  A    between atoms: N_26  and  C_27
REMARK    9  A    between atoms: C_27  and  C_28
REMARK                            x       y       z     vdW  Elec       q    Type
REMARK                         _______ _______ _______ _____ _____    ______ ____
ROOT
ATOM      1  C   UNL     1       6.187   5.104  18.512  0.00  0.00    +0.000 A 
ATOM      2  N   UNL     1       5.770   4.662  19.666  0.00  0.00    +0.000 NA
ATOM      3  C   UNL     1       4.381   4.855  19.831  0.00  0.00    +0.000 A 
ATOM      4  C   UNL     1       3.738   5.816  19.091  0.00  0.00    +0.000 A 
ATOM      5  O   UNL     1       2.465   5.986  19.529  0.00  0.00    +0.000 OA
ATOM      6  C   UNL     1       2.179   4.819  20.173  0.00  0.00    +0.000 A 
ATOM      7  C   UNL     1       0.890   4.448  20.534  0.00  0.00    +0.000 A 
ATOM      8  C   UNL     1       0.698   3.090  20.773  0.00  0.00    +0.000 A 
ATOM      9  C   UNL     1       1.774   2.196  20.731  0.00  0.00    +0.000 A 
ATOM     10  C   UNL     1       3.099   2.640  20.520  0.00  0.00    +0.000 A 
ATOM     11  C   UNL     1       3.315   4.002  20.234  0.00  0.00    +0.000 A 
ATOM     12  C   UNL     1       4.081   5.989  17.711  0.00  0.00    +0.000 A 
ATOM     13  O   UNL     1       3.276   6.275  16.839  0.00  0.00    +0.000 OA
ATOM     14  N   UNL     1       5.368   5.457  17.438  0.00  0.00    +0.000 N 
ENDROOT
BRANCH   1  15
ATOM     15  S   UNL     1       7.899   5.309  18.156  0.00  0.00    +0.000 S 
BRANCH  15  16
ATOM     16  C   UNL     1       8.336   6.870  19.002  0.00  0.00    +0.000 C 
BRANCH  16  18
ATOM     17  N   UNL     1       8.605   9.208  18.529  0.00  0.00    +0.000 N 
ATOM     18  C   UNL     1       8.094   8.029  18.045  0.00  0.00    +0.000 C 
ATOM     19  O   UNL     1       7.512   7.912  16.973  0.00  0.00    +0.000 OA
ATOM     20  H   UNL     1       9.264   9.108  19.292  0.00  0.00    +0.000 HD
BRANCH  17  21
ATOM     21  C   UNL     1       8.692  10.411  17.734  0.00  0.00    +0.000 C 
BRANCH  21  25
ATOM     22  C   UNL     1      11.066  13.460  19.699  0.00  0.00    +0.000 A 
ATOM     23  C   UNL     1      10.357  13.769  18.550  0.00  0.00    +0.000 A 
ATOM     24  C   UNL     1       9.580  12.796  17.926  0.00  0.00    +0.000 A 
ATOM     25  C   UNL     1       9.530  11.479  18.400  0.00  0.00    +0.000 A 
ATOM     26  C   UNL     1      10.259  11.178  19.559  0.00  0.00    +0.000 A 
ATOM     27  C   UNL     1      11.024  12.162  20.201  0.00  0.00    +0.000 A 
BRANCH  22  29
ATOM     28  C   UNL     1      11.012  15.591  20.704  0.00  0.00    +0.000 C 
ATOM     29  O   UNL     1      11.782  14.504  20.220  0.00  0.00    +0.000 OA
ENDBRANCH  22  29
ENDBRANCH  21  25
ENDBRANCH  17  21
ENDBRANCH  16  18
ENDBRANCH  15  16
ENDBRANCH   1  15
BRANCH  14  30
ATOM     30  C   UNL     1       5.396   4.500  16.322  0.00  0.00    +0.000 C 
BRANCH  30  31
ATOM     31  C   UNL     1       5.558   5.085  14.918  0.00  0.00    +0.000 C 
ATOM     32  C   UNL     1       5.332   4.010  13.859  0.00  0.00    +0.000 C 
ATOM     33  C   UNL     1       6.517   4.107  12.937  0.00  0.00    +0.000 C 
ATOM     34  C   UNL     1       7.544   4.911  13.696  0.00  0.00    +0.000 C 
ATOM     35  O   UNL     1       6.892   5.582  14.770  0.00  0.00    +0.000 OA
ENDBRANCH  30  31
ENDBRANCH  14  30
TORSDOF 8
ENDMDL
MODEL 5
REMARK VINA RESULT:      -8.0      1.099      1.518
REMARK  Name = 
REMARK  9 active torsions:
REMARK  status: ('A' for Active; 'I' for Inactive)
REMARK    1  A    between atoms: C_1  and  O_2
REMARK    2  A    between atoms: O_2  and  C_3
REMARK    3  A    between atoms: C_6  and  C_7
REMARK    4  A    between atoms: C_7  and  N_8
REMARK    5  A    between atoms: C_9  and  C_11
REMARK    6  A    between atoms: C_11  and  S_12
REMARK    7  A    between atoms: S_12  and  C_13
REMARK    8  A    between atoms: N_26  and  C_27
REMARK    9  A    between atoms: C_27  and  C_28
REMARK                            x       y       z     vdW  Elec       q    Type
REMARK                         _______ _______ _______ _____ _____    ______ ____
ROOT
ATOM      1  C   UNL     1       3.124   6.822  18.764  0.00  0.00    +0.000 A 
ATOM      2  N   UNL     1       3.905   7.314  17.843  0.00  0.00    +0.000 NA
ATOM      3  C   UNL     1       4.973   6.442  17.539  0.00  0.00    +0.000 A 
ATOM      4  C   UNL     1       5.358   5.498  18.458  0.00  0.00    +0.000 A 
ATOM      5  O   UNL     1       6.513   4.898  18.073  0.00  0.00    +0.000 OA
ATOM      6  C   UNL     1       6.559   5.103  16.726  0.00  0.00    +0.000 A 
ATOM      7  C   UNL     1       7.426   4.421  15.883  0.00  0.00    +0.000 A 
ATOM      8  C   UNL     1       7.071   4.405  14.537  0.00  0.00    +0.000 A 
ATOM      9  C   UNL     1       5.956   5.117  14.082  0.00  0.00    +0.000 A 
ATOM     10  C   UNL     1       5.192   5.931  14.947  0.00  0.00    +0.000 A 
ATOM     11  C   UNL     1       5.504   5.932  16.321  0.00  0.00    +0.000 A 
ATOM     12  C   UNL     1       4.359   4.786  19.198  0.00  0.00    +0.000 A 
ATOM     13  O   UNL     1       4.454   3.611  19.515  0.00  0.00    +0.000 OA
ATOM     14  N   UNL     1       3.133   5.499  19.208  0.00  0.00    +0.000 N 
ENDROOT
BRANCH   1  15
ATOM     15  S   UNL     1       1.917   7.806  19.585  0.00  0.00    +0.000 S 
BRANCH  15  16
ATOM     16  C   UNL     1       1.480   9.081  18.349  0.00  0.00    +0.000 C 
BRANCH  16  18
ATOM     17  N   UNL     1       0.466  11.253  18.215  0.00  0.00    +0.000 N 
ATOM     18  C   UNL     1       0.670  10.171  19.037  0.00  0.00    +0.000 C 
ATOM     19  O   UNL     1       0.254  10.084  20.186  0.00  0.00    +0.000 OA
ATOM     20  H   UNL     1       0.646  11.085  17.233  0.00  0.00    +0.000 HD
BRANCH  17  21
ATOM     21  C   UNL     1      -0.438  12.329  18.547  0.00  0.00    +0.000 C 
BRANCH  21  25
ATOM     22  C   UNL     1      -4.584  11.289  17.819  0.00  0.00    +0.000 A 
ATOM     23  C   UNL     1      -4.217  11.867  19.022  0.00  0.00    +0.000 A 
ATOM     24  C   UNL     1      -2.889  12.218  19.252  0.00  0.00    +0.000 A 
ATOM     25  C   UNL     1      -1.885  11.955  18.312  0.00  0.00    +0.000 A 
ATOM     26  C   UNL     1      -2.269  11.362  17.102  0.00  0.00    +0.000 A 
ATOM     27  C   UNL     1      -3.609  11.028  16.859  0.00  0.00    +0.000 A 
BRANCH  22  29
ATOM     28  C   UNL     1      -6.576  10.700  18.932  0.00  0.00    +0.000 C 
ATOM     29  O   UNL     1      -5.918  10.999  17.713  0.00  0.00    +0.000 OA
ENDBRANCH  22  29
ENDBRANCH  21  25
ENDBRANCH  17  21
ENDBRANCH  16  18
ENDBRANCH  15  16
ENDBRANCH   1  15
BRANCH  14  30
ATOM     30  C   UNL     1       1.977   4.708  18.758  0.00  0.00    +0.000 C 
BRANCH  30  31
ATOM     31  C   UNL     1       1.159   4.006  19.844  0.00  0.00    +0.000 C 
ATOM     32  C   UNL     1       1.704   4.340  21.229  0.00  0.00    +0.000 C 
ATOM     33  C   UNL     1       1.872   3.014  21.919  0.00  0.00    +0.000 C 
ATOM     34  C   UNL     1       1.818   1.985  20.816  0.00  0.00    +0.000 C 
ATOM     35  O   UNL     1       1.254   2.590  19.658  0.00  0.00    +0.000 OA
ENDBRANCH  30  31
ENDBRANCH  14  30
TORSDOF 8
ENDMDL
MODEL 6
REMARK VINA RESULT:      -7.9      2.102      2.561
REMARK  Name = 
REMARK  9 active torsions:
REMARK  status: ('A' for Active; 'I' for Inactive)
REMARK    1  A    between atoms: C_1  and  O_2
REMARK    2  A    between atoms: O_2  and  C_3
REMARK    3  A    between atoms: C_6  and  C_7
REMARK    4  A    between atoms: C_7  and  N_8
REMARK    5  A    between atoms: C_9  and  C_11
REMARK    6  A    between atoms: C_11  and  S_12
REMARK    7  A    between atoms: S_12  and  C_13
REMARK    8  A    between atoms: N_26  and  C_27
REMARK    9  A    between atoms: C_27  and  C_28
REMARK                            x       y       z     vdW  Elec       q    Type
REMARK                         _______ _______ _______ _____ _____    ______ ____
ROOT
ATOM      1  C   UNL     1       3.475   6.832  18.570  0.00  0.00    +0.000 A 
ATOM      2  N   UNL     1       3.703   7.047  17.305  0.00  0.00    +0.000 NA
ATOM      3  C   UNL     1       4.951   6.526  16.900  0.00  0.00    +0.000 A 
ATOM      4  C   UNL     1       5.931   6.309  17.837  0.00  0.00    +0.000 A 
ATOM      5  O   UNL     1       7.108   6.001  17.237  0.00  0.00    +0.000 OA
ATOM      6  C   UNL     1       6.743   5.546  16.006  0.00  0.00    +0.000 A 
ATOM      7  C   UNL     1       7.607   4.862  15.162  0.00  0.00    +0.000 A 
ATOM      8  C   UNL     1       7.002   4.098  14.168  0.00  0.00    +0.000 A 
ATOM      9  C   UNL     1       5.612   4.112  14.000  0.00  0.00    +0.000 A 
ATOM     10  C   UNL     1       4.780   4.949  14.777  0.00  0.00    +0.000 A 
ATOM     11  C   UNL     1       5.363   5.699  15.817  0.00  0.00    +0.000 A 
ATOM     12  C   UNL     1       5.576   5.757  19.111  0.00  0.00    +0.000 A 
ATOM     13  O   UNL     1       6.275   4.973  19.732  0.00  0.00    +0.000 OA
ATOM     14  N   UNL     1       4.198   5.958  19.384  0.00  0.00    +0.000 N 
ENDROOT
BRANCH   1  15
ATOM     15  S   UNL     1       2.175   7.645  19.434  0.00  0.00    +0.000 S 
BRANCH  15  16
ATOM     16  C   UNL     1       1.494   8.811  18.201  0.00  0.00    +0.000 C 
BRANCH  16  18
ATOM     17  N   UNL     1       0.900  10.151  20.102  0.00  0.00    +0.000 N 
ATOM     18  C   UNL     1       1.413  10.195  18.829  0.00  0.00    +0.000 C 
ATOM     19  O   UNL     1       1.768  11.220  18.258  0.00  0.00    +0.000 OA
ATOM     20  H   UNL     1       0.887   9.232  20.527  0.00  0.00    +0.000 HD
BRANCH  17  21
ATOM     21  C   UNL     1       0.908  11.290  20.990  0.00  0.00    +0.000 C 
BRANCH  21  25
ATOM     22  C   UNL     1      -3.029  12.250  22.531  0.00  0.00    +0.000 A 
ATOM     23  C   UNL     1      -2.163  11.474  23.282  0.00  0.00    +0.000 A 
ATOM     24  C   UNL     1      -0.891  11.178  22.798  0.00  0.00    +0.000 A 
ATOM     25  C   UNL     1      -0.469  11.603  21.531  0.00  0.00    +0.000 A 
ATOM     26  C   UNL     1      -1.359  12.381  20.778  0.00  0.00    +0.000 A 
ATOM     27  C   UNL     1      -2.632  12.699  21.274  0.00  0.00    +0.000 A 
BRANCH  22  29
ATOM     28  C   UNL     1      -4.223  12.599  24.533  0.00  0.00    +0.000 C 
ATOM     29  O   UNL     1      -4.244  12.477  23.121  0.00  0.00    +0.000 OA
ENDBRANCH  22  29
ENDBRANCH  21  25
ENDBRANCH  17  21
ENDBRANCH  16  18
ENDBRANCH  15  16
ENDBRANCH   1  15
BRANCH  14  30
ATOM     30  C   UNL     1       3.473   4.728  19.737  0.00  0.00    +0.000 C 
BRANCH  30  31
ATOM     31  C   UNL     1       2.906   3.906  18.578  0.00  0.00    +0.000 C 
ATOM     32  C   UNL     1       1.552   3.311  18.953  0.00  0.00    +0.000 C 
ATOM     33  C   UNL     1       1.652   1.850  18.609  0.00  0.00    +0.000 C 
ATOM     34  C   UNL     1       3.129   1.582  18.448  0.00  0.00    +0.000 C 
ATOM     35  O   UNL     1       3.801   2.827  18.289  0.00  0.00    +0.000 OA
ENDBRANCH  30  31
ENDBRANCH  14  30
TORSDOF 8
ENDMDL
MODEL 7
REMARK VINA RESULT:      -7.8      2.612      4.218
REMARK  Name = 
REMARK  9 active torsions:
REMARK  status: ('A' for Active; 'I' for Inactive)
REMARK    1  A    between atoms: C_1  and  O_2
REMARK    2  A    between atoms: O_2  and  C_3
REMARK    3  A    between atoms: C_6  and  C_7
REMARK    4  A    between atoms: C_7  and  N_8
REMARK    5  A    between atoms: C_9  and  C_11
REMARK    6  A    between atoms: C_11  and  S_12
REMARK    7  A    between atoms: S_12  and  C_13
REMARK    8  A    between atoms: N_26  and  C_27
REMARK    9  A    between atoms: C_27  and  C_28
REMARK                            x       y       z     vdW  Elec       q    Type
REMARK                         _______ _______ _______ _____ _____    ______ ____
ROOT
ATOM      1  C   UNL     1       3.447   6.881  18.530  0.00  0.00    +0.000 A 
ATOM      2  N   UNL     1       3.699   7.089  17.267  0.00  0.00    +0.000 NA
ATOM      3  C   UNL     1       4.939   6.536  16.882  0.00  0.00    +0.000 A 
ATOM      4  C   UNL     1       5.899   6.297  17.834  0.00  0.00    +0.000 A 
ATOM      5  O   UNL     1       7.077   5.958  17.251  0.00  0.00    +0.000 OA
ATOM      6  C   UNL     1       6.718   5.511  16.015  0.00  0.00    +0.000 A 
ATOM      7  C   UNL     1       7.578   4.803  15.184  0.00  0.00    +0.000 A 
ATOM      8  C   UNL     1       6.968   4.054  14.183  0.00  0.00    +0.000 A 
ATOM      9  C   UNL     1       5.582   4.102  13.994  0.00  0.00    +0.000 A 
ATOM     10  C   UNL     1       4.760   4.960  14.758  0.00  0.00    +0.000 A 
ATOM     11  C   UNL     1       5.346   5.698  15.806  0.00  0.00    +0.000 A 
ATOM     12  C   UNL     1       5.512   5.756  19.103  0.00  0.00    +0.000 A 
ATOM     13  O   UNL     1       6.182   4.955  19.735  0.00  0.00    +0.000 OA
ATOM     14  N   UNL     1       4.136   5.991  19.355  0.00  0.00    +0.000 N 
ENDROOT
BRANCH   1  15
ATOM     15  S   UNL     1       2.154   7.727  19.374  0.00  0.00    +0.000 S 
BRANCH  15  16
ATOM     16  C   UNL     1       1.570   8.958  18.154  0.00  0.00    +0.000 C 
BRANCH  16  18
ATOM     17  N   UNL     1       1.297  11.333  18.379  0.00  0.00    +0.000 N 
ATOM     18  C   UNL     1       0.925  10.118  18.900  0.00  0.00    +0.000 C 
ATOM     19  O   UNL     1       0.164   9.973  19.850  0.00  0.00    +0.000 OA
ATOM     20  H   UNL     1       1.720  11.293  17.460  0.00  0.00    +0.000 HD
BRANCH  17  21
ATOM     21  C   UNL     1       0.674  12.577  18.767  0.00  0.00    +0.000 C 
BRANCH  21  25
ATOM     22  C   UNL     1       3.405  15.924  18.409  0.00  0.00    +0.000 A 
ATOM     23  C   UNL     1       2.091  16.142  18.785  0.00  0.00    +0.000 A 
ATOM     24  C   UNL     1       1.215  15.067  18.917  0.00  0.00    +0.000 A 
ATOM     25  C   UNL     1       1.612  13.755  18.629  0.00  0.00    +0.000 A 
ATOM     26  C   UNL     1       2.944  13.550  18.242  0.00  0.00    +0.000 A 
ATOM     27  C   UNL     1       3.833  14.629  18.130  0.00  0.00    +0.000 A 
BRANCH  22  29
ATOM     28  C   UNL     1       5.418  17.006  18.985  0.00  0.00    +0.000 C 
ATOM     29  O   UNL     1       4.166  17.060  18.324  0.00  0.00    +0.000 OA
ENDBRANCH  22  29
ENDBRANCH  21  25
ENDBRANCH  17  21
ENDBRANCH  16  18
ENDBRANCH  15  16
ENDBRANCH   1  15
BRANCH  14  30
ATOM     30  C   UNL     1       3.375   4.780  19.699  0.00  0.00    +0.000 C 
BRANCH  30  31
ATOM     31  C   UNL     1       2.449   4.219  18.619  0.00  0.00    +0.000 C 
ATOM     32  C   UNL     1       1.150   3.710  19.236  0.00  0.00    +0.000 C 
ATOM     33  C   UNL     1       0.967   2.321  18.686  0.00  0.00    +0.000 C 
ATOM     34  C   UNL     1       2.316   1.937  18.128  0.00  0.00    +0.000 C 
ATOM     35  O   UNL     1       3.097   3.117  17.974  0.00  0.00    +0.000 OA
ENDBRANCH  30  31
ENDBRANCH  14  30
TORSDOF 8
ENDMDL
MODEL 8
REMARK VINA RESULT:      -7.8      2.364      2.921
REMARK  Name = 
REMARK  9 active torsions:
REMARK  status: ('A' for Active; 'I' for Inactive)
REMARK    1  A    between atoms: C_1  and  O_2
REMARK    2  A    between atoms: O_2  and  C_3
REMARK    3  A    between atoms: C_6  and  C_7
REMARK    4  A    between atoms: C_7  and  N_8
REMARK    5  A    between atoms: C_9  and  C_11
REMARK    6  A    between atoms: C_11  and  S_12
REMARK    7  A    between atoms: S_12  and  C_13
REMARK    8  A    between atoms: N_26  and  C_27
REMARK    9  A    between atoms: C_27  and  C_28
REMARK                            x       y       z     vdW  Elec       q    Type
REMARK                         _______ _______ _______ _____ _____    ______ ____
ROOT
ATOM      1  C   UNL     1       3.024   6.994  18.583  0.00  0.00    +0.000 A 
ATOM      2  N   UNL     1       3.798   7.453  17.639  0.00  0.00    +0.000 NA
ATOM      3  C   UNL     1       4.905   6.608  17.409  0.00  0.00    +0.000 A 
ATOM      4  C   UNL     1       5.315   5.746  18.397  0.00  0.00    +0.000 A 
ATOM      5  O   UNL     1       6.499   5.171  18.067  0.00  0.00    +0.000 OA
ATOM      6  C   UNL     1       6.556   5.284  16.711  0.00  0.00    +0.000 A 
ATOM      7  C   UNL     1       7.463   4.582  15.927  0.00  0.00    +0.000 A 
ATOM      8  C   UNL     1       7.129   4.458  14.582  0.00  0.00    +0.000 A 
ATOM      9  C   UNL     1       5.992   5.090  14.065  0.00  0.00    +0.000 A 
ATOM     10  C   UNL     1       5.184   5.930  14.862  0.00  0.00    +0.000 A 
ATOM     11  C   UNL     1       5.475   6.038  16.236  0.00  0.00    +0.000 A 
ATOM     12  C   UNL     1       4.335   5.046  19.172  0.00  0.00    +0.000 A 
ATOM     13  O   UNL     1       4.473   3.901  19.571  0.00  0.00    +0.000 OA
ATOM     14  N   UNL     1       3.080   5.706  19.118  0.00  0.00    +0.000 N 
ENDROOT
BRANCH   1  15
ATOM     15  S   UNL     1       1.766   7.981  19.319  0.00  0.00    +0.000 S 
BRANCH  15  16
ATOM     16  C   UNL     1       1.258   9.113  17.975  0.00  0.00    +0.000 C 
BRANCH  16  18
ATOM     17  N   UNL     1       1.319  10.841  19.640  0.00  0.00    +0.000 N 
ATOM     18  C   UNL     1       0.592  10.335  18.591  0.00  0.00    +0.000 C 
ATOM     19  O   UNL     1      -0.467  10.804  18.190  0.00  0.00    +0.000 OA
ATOM     20  H   UNL     1       2.275  10.512  19.697  0.00  0.00    +0.000 HD
BRANCH  17  21
ATOM     21  C   UNL     1       1.018  12.109  20.264  0.00  0.00    +0.000 C 
BRANCH  21  25
ATOM     22  C   UNL     1      -2.288  11.757  23.047  0.00  0.00    +0.000 A 
ATOM     23  C   UNL     1      -2.265  12.791  22.127  0.00  0.00    +0.000 A 
ATOM     24  C   UNL     1      -1.213  12.897  21.220  0.00  0.00    +0.000 A 
ATOM     25  C   UNL     1      -0.132  12.007  21.241  0.00  0.00    +0.000 A 
ATOM     26  C   UNL     1      -0.164  10.969  22.182  0.00  0.00    +0.000 A 
ATOM     27  C   UNL     1      -1.234  10.848  23.081  0.00  0.00    +0.000 A 
BRANCH  22  29
ATOM     28  C   UNL     1      -3.919  13.035  24.170  0.00  0.00    +0.000 C 
ATOM     29  O   UNL     1      -3.378  11.758  23.875  0.00  0.00    +0.000 OA
ENDBRANCH  22  29
ENDBRANCH  21  25
ENDBRANCH  17  21
ENDBRANCH  16  18
ENDBRANCH  15  16
ENDBRANCH   1  15
BRANCH  14  30
ATOM     30  C   UNL     1       1.964   4.838  18.710  0.00  0.00    +0.000 C 
BRANCH  30  31
ATOM     31  C   UNL     1       1.152   4.189  19.832  0.00  0.00    +0.000 C 
ATOM     32  C   UNL     1       1.754   4.523  21.194  0.00  0.00    +0.000 C 
ATOM     33  C   UNL     1       1.888   3.202  21.902  0.00  0.00    +0.000 C 
ATOM     34  C   UNL     1       1.756   2.158  20.819  0.00  0.00    +0.000 C 
ATOM     35  O   UNL     1       1.182   2.768  19.668  0.00  0.00    +0.000 OA
ENDBRANCH  30  31
ENDBRANCH  14  30
TORSDOF 8
ENDMDL
MODEL 9
REMARK VINA RESULT:      -7.8      2.765     10.711
REMARK  Name = 
REMARK  9 active torsions:
REMARK  status: ('A' for Active; 'I' for Inactive)
REMARK    1  A    between atoms: C_1  and  O_2
REMARK    2  A    between atoms: O_2  and  C_3
REMARK    3  A    between atoms: C_6  and  C_7
REMARK    4  A    between atoms: C_7  and  N_8
REMARK    5  A    between atoms: C_9  and  C_11
REMARK    6  A    between atoms: C_11  and  S_12
REMARK    7  A    between atoms: S_12  and  C_13
REMARK    8  A    between atoms: N_26  and  C_27
REMARK    9  A    between atoms: C_27  and  C_28
REMARK                            x       y       z     vdW  Elec       q    Type
REMARK                         _______ _______ _______ _____ _____    ______ ____
ROOT
ATOM      1  C   UNL     1       0.159  10.942  19.959  0.00  0.00    +0.000 A 
ATOM      2  N   UNL     1      -0.117  10.737  21.217  0.00  0.00    +0.000 NA
ATOM      3  C   UNL     1      -0.354  11.947  21.906  0.00  0.00    +0.000 A 
ATOM      4  C   UNL     1       0.149  13.121  21.404  0.00  0.00    +0.000 A 
ATOM      5  O   UNL     1      -0.009  14.130  22.298  0.00  0.00    +0.000 OA
ATOM      6  C   UNL     1      -1.024  13.704  23.101  0.00  0.00    +0.000 A 
ATOM      7  C   UNL     1      -1.701  14.542  23.978  0.00  0.00    +0.000 A 
ATOM      8  C   UNL     1      -2.954  14.098  24.391  0.00  0.00    +0.000 A 
ATOM      9  C   UNL     1      -3.433  12.842  24.001  0.00  0.00    +0.000 A 
ATOM     10  C   UNL     1      -2.644  11.951  23.240  0.00  0.00    +0.000 A 
ATOM     11  C   UNL     1      -1.390  12.392  22.774  0.00  0.00    +0.000 A 
ATOM     12  C   UNL     1       0.101  13.362  19.992  0.00  0.00    +0.000 A 
ATOM     13  O   UNL     1      -0.099  14.458  19.494  0.00  0.00    +0.000 OA
ATOM     14  N   UNL     1      -0.031  12.145  19.276  0.00  0.00    +0.000 N 
ENDROOT
BRANCH   1  15
ATOM     15  S   UNL     1       0.822   9.675  18.932  0.00  0.00    +0.000 S 
BRANCH  15  16
ATOM     16  C   UNL     1       1.765   8.622  20.092  0.00  0.00    +0.000 C 
BRANCH  16  18
ATOM     17  N   UNL     1       2.618   6.383  20.246  0.00  0.00    +0.000 N 
ATOM     18  C   UNL     1       2.175   7.346  19.372  0.00  0.00    +0.000 C 
ATOM     19  O   UNL     1       2.114   7.204  18.156  0.00  0.00    +0.000 OA
ATOM     20  H   UNL     1       2.382   6.546  21.217  0.00  0.00    +0.000 HD
BRANCH  17  21
ATOM     21  C   UNL     1       2.872   5.019  19.847  0.00  0.00    +0.000 C 
BRANCH  21  25
ATOM     22  C   UNL     1       6.207   4.644  17.102  0.00  0.00    +0.000 A 
ATOM     23  C   UNL     1       6.390   5.244  18.335  0.00  0.00    +0.000 A 
ATOM     24  C   UNL     1       5.325   5.351  19.226  0.00  0.00    +0.000 A 
ATOM     25  C   UNL     1       4.039   4.910  18.891  0.00  0.00    +0.000 A 
ATOM     26  C   UNL     1       3.865   4.311  17.636  0.00  0.00    +0.000 A 
ATOM     27  C   UNL     1       4.941   4.182  16.747  0.00  0.00    +0.000 A 
BRANCH  22  29
ATOM     28  C   UNL     1       7.138   4.897  14.952  0.00  0.00    +0.000 C 
ATOM     29  O   UNL     1       7.331   4.592  16.323  0.00  0.00    +0.000 OA
ENDBRANCH  22  29
ENDBRANCH  21  25
ENDBRANCH  17  21
ENDBRANCH  16  18
ENDBRANCH  15  16
ENDBRANCH   1  15
BRANCH  14  30
ATOM     30  C   UNL     1      -1.156  12.126  18.329  0.00  0.00    +0.000 C 
BRANCH  30  31
ATOM     31  C   UNL     1      -2.364  11.270  18.712  0.00  0.00    +0.000 C 
ATOM     32  C   UNL     1      -3.043  10.709  17.466  0.00  0.00    +0.000 C 
ATOM     33  C   UNL     1      -4.502  11.038  17.627  0.00  0.00    +0.000 C 
ATOM     34  C   UNL     1      -4.552  12.094  18.705  0.00  0.00    +0.000 C 
ATOM     35  O   UNL     1      -3.314  12.085  19.407  0.00  0.00    +0.000 OA
ENDBRANCH  30  31
ENDBRANCH  14  30
TORSDOF 8
ENDMDL
