MODEL 1
REMARK VINA RESULT:      -6.5      0.000      0.000
REMARK  Name = 
REMARK  8 active torsions:
REMARK  status: ('A' for Active; 'I' for Inactive)
REMARK    1  A    between atoms: C_1  and  C_2
REMARK    2  A    between atoms: C_2  and  N_3
REMARK    3  A    between atoms: N_3  and  C_4
REMARK    4  A    between atoms: N_3  and  C_6
REMARK    5  A    between atoms: C_4  and  C_5
REMARK    6  A    between atoms: C_6  and  C_7
REMARK    7  A    between atoms: C_7  and  N_8
REMARK    8  A    between atoms: C_18  and  C_19
REMARK                            x       y       z     vdW  Elec       q    Type
REMARK                         _______ _______ _______ _____ _____    ______ ____
ROOT
ATOM      1  N   UNL     1       1.933   9.735  18.847  0.00  0.00    +0.000 N 
ATOM      2  C   UNL     1       0.805  10.477  18.525  0.00  0.00    +0.000 C 
ATOM      3  N   UNL     1      -0.267   9.814  18.171  0.00  0.00    +0.000 NA
ATOM      4  C   UNL     1      -1.502  10.385  17.833  0.00  0.00    +0.000 A 
ATOM      5  C   UNL     1      -2.173   9.849  16.730  0.00  0.00    +0.000 A 
ATOM      6  C   UNL     1      -3.437  10.312  16.362  0.00  0.00    +0.000 A 
ATOM      7  C   UNL     1      -4.055  11.312  17.109  0.00  0.00    +0.000 A 
ATOM      8  C   UNL     1      -3.411  11.846  18.225  0.00  0.00    +0.000 A 
ATOM      9  C   UNL     1      -2.144  11.379  18.592  0.00  0.00    +0.000 A 
ATOM     10  C   UNL     1      -1.385  12.038  19.667  0.00  0.00    +0.000 C 
ATOM     11  C   UNL     1      -1.796  11.927  20.948  0.00  0.00    +0.000 C 
ATOM     12  C   UNL     1      -0.119  12.709  19.286  0.00  0.00    +0.000 A 
ATOM     13  C   UNL     1       0.023  14.096  19.458  0.00  0.00    +0.000 A 
ATOM     14  C   UNL     1       1.197  14.739  19.063  0.00  0.00    +0.000 A 
ATOM     15  C   UNL     1       2.229  14.007  18.483  0.00  0.00    +0.000 A 
ATOM     16  C   UNL     1       2.089  12.626  18.293  0.00  0.00    +0.000 A 
ATOM     17  C   UNL     1       0.910  11.970  18.678  0.00  0.00    +0.000 A 
ATOM     18  H   UNL     1       2.601   9.696  18.077  0.00  0.00    +0.000 HD
ENDROOT
BRANCH  11  19
ATOM     19  C   UNL     1      -0.985  12.554  22.071  0.00  0.00    +0.000 C 
ATOM     20  N   UNL     1      -0.313  13.074  23.003  0.00  0.00    +0.000 NA
ENDBRANCH  11  19
BRANCH   1  21
ATOM     21  C   UNL     1       1.760   8.382  19.387  0.00  0.00    +0.000 C 
BRANCH  21  22
ATOM     22  C   UNL     1       2.472   7.301  18.538  0.00  0.00    +0.000 C 
BRANCH  22  23
ATOM     23  N   UNL     1       2.836   6.053  19.260  0.00  0.00    +0.000 NA
BRANCH  23  25
ATOM     24  C   UNL     1       2.194   4.531  21.177  0.00  0.00    +0.000 C 
ATOM     25  C   UNL     1       1.906   5.795  20.373  0.00  0.00    +0.000 C 
ENDBRANCH  23  25
BRANCH  23  26
ATOM     26  C   UNL     1       2.960   4.921  18.318  0.00  0.00    +0.000 C 
ATOM     27  C   UNL     1       1.672   4.424  17.661  0.00  0.00    +0.000 C 
ENDBRANCH  23  26
ENDBRANCH  22  23
ENDBRANCH  21  22
ENDBRANCH   1  21
TORSDOF 6
ENDMDL
MODEL 2
REMARK VINA RESULT:      -6.4      0.689      1.147
REMARK  Name = 
REMARK  8 active torsions:
REMARK  status: ('A' for Active; 'I' for Inactive)
REMARK    1  A    between atoms: C_1  and  C_2
REMARK    2  A    between atoms: C_2  and  N_3
REMARK    3  A    between atoms: N_3  and  C_4
REMARK    4  A    between atoms: N_3  and  C_6
REMARK    5  A    between atoms: C_4  and  C_5
REMARK    6  A    between atoms: C_6  and  C_7
REMARK    7  A    between atoms: C_7  and  N_8
REMARK    8  A    between atoms: C_18  and  C_19
REMARK                            x       y       z     vdW  Elec       q    Type
REMARK                         _______ _______ _______ _____ _____    ______ ____
ROOT
ATOM      1  N   UNL     1       1.846   9.865  18.627  0.00  0.00    +0.000 N 
ATOM      2  C   UNL     1       0.688  10.591  18.382  0.00  0.00    +0.000 C 
ATOM      3  N   UNL     1      -0.378   9.917  18.028  0.00  0.00    +0.000 NA
ATOM      4  C   UNL     1      -1.638  10.471  17.760  0.00  0.00    +0.000 A 
ATOM      5  C   UNL     1      -2.330   9.975  16.652  0.00  0.00    +0.000 A 
ATOM      6  C   UNL     1      -3.619  10.422  16.351  0.00  0.00    +0.000 A 
ATOM      7  C   UNL     1      -4.238  11.362  17.170  0.00  0.00    +0.000 A 
ATOM      8  C   UNL     1      -3.571  11.854  18.293  0.00  0.00    +0.000 A 
ATOM      9  C   UNL     1      -2.279  11.405  18.593  0.00  0.00    +0.000 A 
ATOM     10  C   UNL     1      -1.503  12.026  19.677  0.00  0.00    +0.000 C 
ATOM     11  C   UNL     1      -1.867  11.835  20.963  0.00  0.00    +0.000 C 
ATOM     12  C   UNL     1      -0.269  12.752  19.292  0.00  0.00    +0.000 A 
ATOM     13  C   UNL     1      -0.157  14.132  19.535  0.00  0.00    +0.000 A 
ATOM     14  C   UNL     1       0.985  14.828  19.137  0.00  0.00    +0.000 A 
ATOM     15  C   UNL     1       2.016  14.156  18.485  0.00  0.00    +0.000 A 
ATOM     16  C   UNL     1       1.906  12.784  18.225  0.00  0.00    +0.000 A 
ATOM     17  C   UNL     1       0.759  12.075  18.612  0.00  0.00    +0.000 A 
ATOM     18  H   UNL     1       2.489   9.886  17.835  0.00  0.00    +0.000 HD
ENDROOT
BRANCH  11  19
ATOM     19  C   UNL     1      -1.036  12.424  22.091  0.00  0.00    +0.000 C 
ATOM     20  N   UNL     1      -0.346  12.913  23.027  0.00  0.00    +0.000 NA
ENDBRANCH  11  19
BRANCH   1  21
ATOM     21  C   UNL     1       1.727   8.480  19.098  0.00  0.00    +0.000 C 
BRANCH  21  22
ATOM     22  C   UNL     1       2.522   7.479  18.225  0.00  0.00    +0.000 C 
BRANCH  22  23
ATOM     23  N   UNL     1       3.151   6.347  18.957  0.00  0.00    +0.000 NA
BRANCH  23  25
ATOM     24  C   UNL     1       1.792   4.539  17.825  0.00  0.00    +0.000 C 
ATOM     25  C   UNL     1       2.204   5.231  19.120  0.00  0.00    +0.000 C 
ENDBRANCH  23  25
BRANCH  23  26
ATOM     26  C   UNL     1       4.424   5.955  18.318  0.00  0.00    +0.000 C 
ATOM     27  C   UNL     1       5.375   5.087  19.143  0.00  0.00    +0.000 C 
ENDBRANCH  23  26
ENDBRANCH  22  23
ENDBRANCH  21  22
ENDBRANCH   1  21
TORSDOF 6
ENDMDL
MODEL 3
REMARK VINA RESULT:      -6.3      2.964      8.725
REMARK  Name = 
REMARK  8 active torsions:
REMARK  status: ('A' for Active; 'I' for Inactive)
REMARK    1  A    between atoms: C_1  and  C_2
REMARK    2  A    between atoms: C_2  and  N_3
REMARK    3  A    between atoms: N_3  and  C_4
REMARK    4  A    between atoms: N_3  and  C_6
REMARK    5  A    between atoms: C_4  and  C_5
REMARK    6  A    between atoms: C_6  and  C_7
REMARK    7  A    between atoms: C_7  and  N_8
REMARK    8  A    between atoms: C_18  and  C_19
REMARK                            x       y       z     vdW  Elec       q    Type
REMARK                         _______ _______ _______ _____ _____    ______ ____
ROOT
ATOM      1  N   UNL     1       3.742   7.782  18.078  0.00  0.00    +0.000 N 
ATOM      2  C   UNL     1       3.862   6.404  18.187  0.00  0.00    +0.000 C 
ATOM      3  N   UNL     1       2.755   5.704  18.194  0.00  0.00    +0.000 NA
ATOM      4  C   UNL     1       2.677   4.307  18.276  0.00  0.00    +0.000 A 
ATOM      5  C   UNL     1       1.698   3.770  19.117  0.00  0.00    +0.000 A 
ATOM      6  C   UNL     1       1.505   2.390  19.208  0.00  0.00    +0.000 A 
ATOM      7  C   UNL     1       2.285   1.528  18.441  0.00  0.00    +0.000 A 
ATOM      8  C   UNL     1       3.254   2.045  17.580  0.00  0.00    +0.000 A 
ATOM      9  C   UNL     1       3.444   3.428  17.491  0.00  0.00    +0.000 A 
ATOM     10  C   UNL     1       4.563   3.982  16.711  0.00  0.00    +0.000 C 
ATOM     11  C   UNL     1       4.554   3.896  15.364  0.00  0.00    +0.000 C 
ATOM     12  C   UNL     1       5.609   4.718  17.462  0.00  0.00    +0.000 A 
ATOM     13  C   UNL     1       6.931   4.246  17.477  0.00  0.00    +0.000 A 
ATOM     14  C   UNL     1       7.910   4.913  18.215  0.00  0.00    +0.000 A 
ATOM     15  C   UNL     1       7.574   6.045  18.951  0.00  0.00    +0.000 A 
ATOM     16  C   UNL     1       6.254   6.514  18.954  0.00  0.00    +0.000 A 
ATOM     17  C   UNL     1       5.259   5.847  18.223  0.00  0.00    +0.000 A 
ATOM     18  H   UNL     1       3.830   8.250  18.980  0.00  0.00    +0.000 HD
ENDROOT
BRANCH  11  19
ATOM     19  C   UNL     1       5.676   4.518  14.548  0.00  0.00    +0.000 C 
ATOM     20  N   UNL     1       6.607   5.034  13.872  0.00  0.00    +0.000 NA
ENDBRANCH  11  19
BRANCH   1  21
ATOM     21  C   UNL     1       2.581   8.338  17.372  0.00  0.00    +0.000 C 
BRANCH  21  22
ATOM     22  C   UNL     1       2.039   9.628  18.033  0.00  0.00    +0.000 C 
BRANCH  22  23
ATOM     23  N   UNL     1       0.766   9.477  18.788  0.00  0.00    +0.000 NA
BRANCH  23  25
ATOM     24  C   UNL     1       1.367   8.093  20.819  0.00  0.00    +0.000 C 
ATOM     25  C   UNL     1       1.011   9.458  20.240  0.00  0.00    +0.000 C 
ENDBRANCH  23  25
BRANCH  23  26
ATOM     26  C   UNL     1      -0.216  10.498  18.367  0.00  0.00    +0.000 C 
ATOM     27  C   UNL     1      -1.443  10.003  17.600  0.00  0.00    +0.000 C 
ENDBRANCH  23  26
ENDBRANCH  22  23
ENDBRANCH  21  22
ENDBRANCH   1  21
TORSDOF 6
ENDMDL
MODEL 4
REMARK VINA RESULT:      -6.3      0.715      1.391
REMARK  Name = 
REMARK  8 active torsions:
REMARK  status: ('A' for Active; 'I' for Inactive)
REMARK    1  A    between atoms: C_1  and  C_2
REMARK    2  A    between atoms: C_2  and  N_3
REMARK    3  A    between atoms: N_3  and  C_4
REMARK    4  A    between atoms: N_3  and  C_6
REMARK    5  A    between atoms: C_4  and  C_5
REMARK    6  A    between atoms: C_6  and  C_7
REMARK    7  A    between atoms: C_7  and  N_8
REMARK    8  A    between atoms: C_18  and  C_19
REMARK                            x       y       z     vdW  Elec       q    Type
REMARK                         _______ _______ _______ _____ _____    ______ ____
ROOT
ATOM      1  N   UNL     1       1.860  10.056  18.691  0.00  0.00    +0.000 N 
ATOM      2  C   UNL     1       0.677  10.741  18.449  0.00  0.00    +0.000 C 
ATOM      3  N   UNL     1      -0.363  10.031  18.087  0.00  0.00    +0.000 NA
ATOM      4  C   UNL     1      -1.642  10.539  17.822  0.00  0.00    +0.000 A 
ATOM      5  C   UNL     1      -2.314  10.026  16.709  0.00  0.00    +0.000 A 
ATOM      6  C   UNL     1      -3.617  10.427  16.408  0.00  0.00    +0.000 A 
ATOM      7  C   UNL     1      -4.272  11.339  17.232  0.00  0.00    +0.000 A 
ATOM      8  C   UNL     1      -3.626  11.846  18.360  0.00  0.00    +0.000 A 
ATOM      9  C   UNL     1      -2.319  11.443  18.659  0.00  0.00    +0.000 A 
ATOM     10  C   UNL     1      -1.568  12.085  19.749  0.00  0.00    +0.000 C 
ATOM     11  C   UNL     1      -1.927  11.872  21.033  0.00  0.00    +0.000 C 
ATOM     12  C   UNL     1      -0.361  12.859  19.372  0.00  0.00    +0.000 A 
ATOM     13  C   UNL     1      -0.301  14.240  19.624  0.00  0.00    +0.000 A 
ATOM     14  C   UNL     1       0.815  14.980  19.234  0.00  0.00    +0.000 A 
ATOM     15  C   UNL     1       1.871  14.352  18.580  0.00  0.00    +0.000 A 
ATOM     16  C   UNL     1       1.813  12.979  18.310  0.00  0.00    +0.000 A 
ATOM     17  C   UNL     1       0.692  12.225  18.689  0.00  0.00    +0.000 A 
ATOM     18  H   UNL     1       2.503  10.107  17.901  0.00  0.00    +0.000 HD
ENDROOT
BRANCH  11  19
ATOM     19  C   UNL     1      -1.120  12.483  22.167  0.00  0.00    +0.000 C 
ATOM     20  N   UNL     1      -0.451  12.990  23.108  0.00  0.00    +0.000 NA
ENDBRANCH  11  19
BRANCH   1  21
ATOM     21  C   UNL     1       1.792   8.665  19.152  0.00  0.00    +0.000 C 
BRANCH  21  22
ATOM     22  C   UNL     1       2.397   7.666  18.137  0.00  0.00    +0.000 C 
BRANCH  22  23
ATOM     23  N   UNL     1       2.591   6.279  18.639  0.00  0.00    +0.000 NA
BRANCH  23  25
ATOM     24  C   UNL     1       4.681   6.536  17.237  0.00  0.00    +0.000 C 
ATOM     25  C   UNL     1       3.956   5.801  18.360  0.00  0.00    +0.000 C 
ENDBRANCH  23  25
BRANCH  23  26
ATOM     26  C   UNL     1       2.210   6.181  20.064  0.00  0.00    +0.000 C 
ATOM     27  C   UNL     1       1.609   4.855  20.530  0.00  0.00    +0.000 C 
ENDBRANCH  23  26
ENDBRANCH  22  23
ENDBRANCH  21  22
ENDBRANCH   1  21
TORSDOF 6
ENDMDL
MODEL 5
REMARK VINA RESULT:      -6.1      1.803      4.888
REMARK  Name = 
REMARK  8 active torsions:
REMARK  status: ('A' for Active; 'I' for Inactive)
REMARK    1  A    between atoms: C_1  and  C_2
REMARK    2  A    between atoms: C_2  and  N_3
REMARK    3  A    between atoms: N_3  and  C_4
REMARK    4  A    between atoms: N_3  and  C_6
REMARK    5  A    between atoms: C_4  and  C_5
REMARK    6  A    between atoms: C_6  and  C_7
REMARK    7  A    between atoms: C_7  and  N_8
REMARK    8  A    between atoms: C_18  and  C_19
REMARK                            x       y       z     vdW  Elec       q    Type
REMARK                         _______ _______ _______ _____ _____    ______ ____
ROOT
ATOM      1  N   UNL     1       0.043  10.218  22.562  0.00  0.00    +0.000 N 
ATOM      2  C   UNL     1      -0.081  11.432  21.900  0.00  0.00    +0.000 C 
ATOM      3  N   UNL     1       0.998  11.925  21.345  0.00  0.00    +0.000 NA
ATOM      4  C   UNL     1       1.065  13.123  20.620  0.00  0.00    +0.000 A 
ATOM      5  C   UNL     1       2.166  13.951  20.855  0.00  0.00    +0.000 A 
ATOM      6  C   UNL     1       2.347  15.130  20.130  0.00  0.00    +0.000 A 
ATOM      7  C   UNL     1       1.431  15.487  19.143  0.00  0.00    +0.000 A 
ATOM      8  C   UNL     1       0.336  14.663  18.879  0.00  0.00    +0.000 A 
ATOM      9  C   UNL     1       0.157  13.481  19.608  0.00  0.00    +0.000 A 
ATOM     10  C   UNL     1      -1.070  12.685  19.453  0.00  0.00    +0.000 C 
ATOM     11  C   UNL     1      -1.298  12.011  18.306  0.00  0.00    +0.000 C 
ATOM     12  C   UNL     1      -1.956  12.575  20.637  0.00  0.00    +0.000 A 
ATOM     13  C   UNL     1      -3.264  13.085  20.589  0.00  0.00    +0.000 A 
ATOM     14  C   UNL     1      -4.088  13.020  21.714  0.00  0.00    +0.000 A 
ATOM     15  C   UNL     1      -3.609  12.459  22.894  0.00  0.00    +0.000 A 
ATOM     16  C   UNL     1      -2.300  11.963  22.956  0.00  0.00    +0.000 A 
ATOM     17  C   UNL     1      -1.460  12.030  21.834  0.00  0.00    +0.000 A 
ATOM     18  H   UNL     1       0.121  10.336  23.572  0.00  0.00    +0.000 HD
ENDROOT
BRANCH  11  19
ATOM     19  C   UNL     1      -2.534  11.138  18.160  0.00  0.00    +0.000 C 
ATOM     20  N   UNL     1      -3.558  10.414  18.040  0.00  0.00    +0.000 NA
ENDBRANCH  11  19
BRANCH   1  21
ATOM     21  C   UNL     1       1.072   9.272  22.118  0.00  0.00    +0.000 C 
BRANCH  21  22
ATOM     22  C   UNL     1       0.698   8.553  20.800  0.00  0.00    +0.000 C 
BRANCH  22  23
ATOM     23  N   UNL     1       1.738   8.578  19.736  0.00  0.00    +0.000 NA
BRANCH  23  25
ATOM     24  C   UNL     1       2.998   7.073  18.140  0.00  0.00    +0.000 C 
ATOM     25  C   UNL     1       2.241   7.222  19.455  0.00  0.00    +0.000 C 
ENDBRANCH  23  25
BRANCH  23  26
ATOM     26  C   UNL     1       1.242   9.285  18.538  0.00  0.00    +0.000 C 
ATOM     27  C   UNL     1       2.011  10.533  18.102  0.00  0.00    +0.000 C 
ENDBRANCH  23  26
ENDBRANCH  22  23
ENDBRANCH  21  22
ENDBRANCH   1  21
TORSDOF 6
ENDMDL
MODEL 6
REMARK VINA RESULT:      -6.1      3.377      7.288
REMARK  Name = 
REMARK  8 active torsions:
REMARK  status: ('A' for Active; 'I' for Inactive)
REMARK    1  A    between atoms: C_1  and  C_2
REMARK    2  A    between atoms: C_2  and  N_3
REMARK    3  A    between atoms: N_3  and  C_4
REMARK    4  A    between atoms: N_3  and  C_6
REMARK    5  A    between atoms: C_4  and  C_5
REMARK    6  A    between atoms: C_6  and  C_7
REMARK    7  A    between atoms: C_7  and  N_8
REMARK    8  A    between atoms: C_18  and  C_19
REMARK                            x       y       z     vdW  Elec       q    Type
REMARK                         _______ _______ _______ _____ _____    ______ ____
ROOT
ATOM      1  N   UNL     1      -2.470  13.057  23.335  0.00  0.00    +0.000 N 
ATOM      2  C   UNL     1      -2.260  12.399  22.131  0.00  0.00    +0.000 C 
ATOM      3  N   UNL     1      -2.974  12.786  21.103  0.00  0.00    +0.000 NA
ATOM      4  C   UNL     1      -2.888  12.258  19.808  0.00  0.00    +0.000 A 
ATOM      5  C   UNL     1      -4.089  12.030  19.130  0.00  0.00    +0.000 A 
ATOM      6  C   UNL     1      -4.095  11.568  17.812  0.00  0.00    +0.000 A 
ATOM      7  C   UNL     1      -2.891  11.344  17.149  0.00  0.00    +0.000 A 
ATOM      8  C   UNL     1      -1.682  11.586  17.801  0.00  0.00    +0.000 A 
ATOM      9  C   UNL     1      -1.679  12.049  19.122  0.00  0.00    +0.000 A 
ATOM     10  C   UNL     1      -0.419  12.157  19.875  0.00  0.00    +0.000 C 
ATOM     11  C   UNL     1       0.487  13.101  19.542  0.00  0.00    +0.000 C 
ATOM     12  C   UNL     1      -0.261  11.274  21.056  0.00  0.00    +0.000 A 
ATOM     13  C   UNL     1       0.762  10.312  21.085  0.00  0.00    +0.000 A 
ATOM     14  C   UNL     1       0.889   9.451  22.176  0.00  0.00    +0.000 A 
ATOM     15  C   UNL     1      -0.008   9.536  23.236  0.00  0.00    +0.000 A 
ATOM     16  C   UNL     1      -1.041  10.482  23.208  0.00  0.00    +0.000 A 
ATOM     17  C   UNL     1      -1.185  11.347  22.112  0.00  0.00    +0.000 A 
ATOM     18  H   UNL     1      -3.075  12.528  23.963  0.00  0.00    +0.000 HD
ENDROOT
BRANCH  11  19
ATOM     19  C   UNL     1       1.763  13.259  20.353  0.00  0.00    +0.000 C 
ATOM     20  N   UNL     1       2.822  13.390  21.025  0.00  0.00    +0.000 NA
ENDBRANCH  11  19
BRANCH   1  21
ATOM     21  C   UNL     1      -2.925  14.452  23.309  0.00  0.00    +0.000 C 
BRANCH  21  22
ATOM     22  C   UNL     1      -4.197  14.684  24.161  0.00  0.00    +0.000 C 
BRANCH  22  23
ATOM     23  N   UNL     1      -5.487  14.607  23.424  0.00  0.00    +0.000 NA
BRANCH  23  25
ATOM     24  C   UNL     1      -5.920  16.616  21.949  0.00  0.00    +0.000 C 
ATOM     25  C   UNL     1      -5.366  15.202  22.082  0.00  0.00    +0.000 C 
ENDBRANCH  23  25
BRANCH  23  26
ATOM     26  C   UNL     1      -5.999  13.221  23.412  0.00  0.00    +0.000 C 
ATOM     27  C   UNL     1      -6.425  12.652  22.058  0.00  0.00    +0.000 C 
ENDBRANCH  23  26
ENDBRANCH  22  23
ENDBRANCH  21  22
ENDBRANCH   1  21
TORSDOF 6
ENDMDL
MODEL 7
REMARK VINA RESULT:      -6.0      3.069      6.555
REMARK  Name = 
REMARK  8 active torsions:
REMARK  status: ('A' for Active; 'I' for Inactive)
REMARK    1  A    between atoms: C_1  and  C_2
REMARK    2  A    between atoms: C_2  and  N_3
REMARK    3  A    between atoms: N_3  and  C_4
REMARK    4  A    between atoms: N_3  and  C_6
REMARK    5  A    between atoms: C_4  and  C_5
REMARK    6  A    between atoms: C_6  and  C_7
REMARK    7  A    between atoms: C_7  and  N_8
REMARK    8  A    between atoms: C_18  and  C_19
REMARK                            x       y       z     vdW  Elec       q    Type
REMARK                         _______ _______ _______ _____ _____    ______ ____
ROOT
ATOM      1  N   UNL     1      -1.882  10.688  18.367  0.00  0.00    +0.000 N 
ATOM      2  C   UNL     1      -1.040  11.388  19.221  0.00  0.00    +0.000 C 
ATOM      3  N   UNL     1      -0.639  12.571  18.829  0.00  0.00    +0.000 NA
ATOM      4  C   UNL     1       0.193  13.431  19.560  0.00  0.00    +0.000 A 
ATOM      5  C   UNL     1       1.202  14.094  18.857  0.00  0.00    +0.000 A 
ATOM      6  C   UNL     1       2.033  15.019  19.492  0.00  0.00    +0.000 A 
ATOM      7  C   UNL     1       1.851  15.305  20.842  0.00  0.00    +0.000 A 
ATOM      8  C   UNL     1       0.835  14.669  21.557  0.00  0.00    +0.000 A 
ATOM      9  C   UNL     1       0.003  13.742  20.918  0.00  0.00    +0.000 A 
ATOM     10  C   UNL     1      -0.966  12.948  21.689  0.00  0.00    +0.000 C 
ATOM     11  C   UNL     1      -2.049  13.546  22.231  0.00  0.00    +0.000 C 
ATOM     12  C   UNL     1      -0.752  11.482  21.736  0.00  0.00    +0.000 A 
ATOM     13  C   UNL     1      -0.499  10.844  22.962  0.00  0.00    +0.000 A 
ATOM     14  C   UNL     1      -0.256   9.471  23.005  0.00  0.00    +0.000 A 
ATOM     15  C   UNL     1      -0.252   8.729  21.828  0.00  0.00    +0.000 A 
ATOM     16  C   UNL     1      -0.488   9.359  20.599  0.00  0.00    +0.000 A 
ATOM     17  C   UNL     1      -0.724  10.741  20.541  0.00  0.00    +0.000 A 
ATOM     18  H   UNL     1      -1.381   9.984  17.824  0.00  0.00    +0.000 HD
ENDROOT
BRANCH  11  19
ATOM     19  C   UNL     1      -3.086  12.723  22.978  0.00  0.00    +0.000 C 
ATOM     20  N   UNL     1      -3.946  12.041  23.598  0.00  0.00    +0.000 NA
ENDBRANCH  11  19
BRANCH   1  21
ATOM     21  C   UNL     1      -2.761  11.440  17.465  0.00  0.00    +0.000 C 
BRANCH  21  22
ATOM     22  C   UNL     1      -4.242  11.006  17.572  0.00  0.00    +0.000 C 
BRANCH  22  23
ATOM     23  N   UNL     1      -5.164  12.010  18.169  0.00  0.00    +0.000 NA
BRANCH  23  25
ATOM     24  C   UNL     1      -6.813  10.242  18.916  0.00  0.00    +0.000 C 
ATOM     25  C   UNL     1      -6.557  11.532  18.143  0.00  0.00    +0.000 C 
ENDBRANCH  23  25
BRANCH  23  26
ATOM     26  C   UNL     1      -4.701  12.408  19.514  0.00  0.00    +0.000 C 
ATOM     27  C   UNL     1      -5.452  13.554  20.194  0.00  0.00    +0.000 C 
ENDBRANCH  23  26
ENDBRANCH  22  23
ENDBRANCH  21  22
ENDBRANCH   1  21
TORSDOF 6
ENDMDL
MODEL 8
REMARK VINA RESULT:      -6.0      1.845      4.009
REMARK  Name = 
REMARK  8 active torsions:
REMARK  status: ('A' for Active; 'I' for Inactive)
REMARK    1  A    between atoms: C_1  and  C_2
REMARK    2  A    between atoms: C_2  and  N_3
REMARK    3  A    between atoms: N_3  and  C_4
REMARK    4  A    between atoms: N_3  and  C_6
REMARK    5  A    between atoms: C_4  and  C_5
REMARK    6  A    between atoms: C_6  and  C_7
REMARK    7  A    between atoms: C_7  and  N_8
REMARK    8  A    between atoms: C_18  and  C_19
REMARK                            x       y       z     vdW  Elec       q    Type
REMARK                         _______ _______ _______ _____ _____    ______ ____
ROOT
ATOM      1  N   UNL     1       1.188   9.057  17.607  0.00  0.00    +0.000 N 
ATOM      2  C   UNL     1       0.363   9.513  18.627  0.00  0.00    +0.000 C 
ATOM      3  N   UNL     1       0.791   9.361  19.856  0.00  0.00    +0.000 NA
ATOM      4  C   UNL     1       0.111   9.776  21.010  0.00  0.00    +0.000 A 
ATOM      5  C   UNL     1       0.104   8.897  22.097  0.00  0.00    +0.000 A 
ATOM      6  C   UNL     1      -0.491   9.255  23.308  0.00  0.00    +0.000 A 
ATOM      7  C   UNL     1      -1.075  10.511  23.450  0.00  0.00    +0.000 A 
ATOM      8  C   UNL     1      -1.060  11.411  22.384  0.00  0.00    +0.000 A 
ATOM      9  C   UNL     1      -0.463  11.049  21.171  0.00  0.00    +0.000 A 
ATOM     10  C   UNL     1      -0.576  11.920  19.990  0.00  0.00    +0.000 C 
ATOM     11  C   UNL     1       0.075  13.102  19.958  0.00  0.00    +0.000 C 
ATOM     12  C   UNL     1      -1.329  11.387  18.829  0.00  0.00    +0.000 A 
ATOM     13  C   UNL     1      -2.500  12.028  18.393  0.00  0.00    +0.000 A 
ATOM     14  C   UNL     1      -3.234  11.507  17.327  0.00  0.00    +0.000 A 
ATOM     15  C   UNL     1      -2.812  10.339  16.698  0.00  0.00    +0.000 A 
ATOM     16  C   UNL     1      -1.654   9.684  17.137  0.00  0.00    +0.000 A 
ATOM     17  C   UNL     1      -0.913  10.193  18.214  0.00  0.00    +0.000 A 
ATOM     18  H   UNL     1       0.897   8.145  17.256  0.00  0.00    +0.000 HD
ENDROOT
BRANCH  11  19
ATOM     19  C   UNL     1       0.011  13.980  18.719  0.00  0.00    +0.000 C 
ATOM     20  N   UNL     1      -0.043  14.708  17.691  0.00  0.00    +0.000 NA
ENDBRANCH  11  19
BRANCH   1  21
ATOM     21  C   UNL     1       2.638   9.036  17.826  0.00  0.00    +0.000 C 
BRANCH  21  22
ATOM     22  C   UNL     1       3.266   7.649  17.548  0.00  0.00    +0.000 C 
BRANCH  22  23
ATOM     23  N   UNL     1       2.586   6.495  18.195  0.00  0.00    +0.000 NA
BRANCH  23  25
ATOM     24  C   UNL     1       4.679   5.184  17.646  0.00  0.00    +0.000 C 
ATOM     25  C   UNL     1       3.157   5.218  17.735  0.00  0.00    +0.000 C 
ENDBRANCH  23  25
BRANCH  23  26
ATOM     26  C   UNL     1       2.584   6.647  19.665  0.00  0.00    +0.000 C 
ATOM     27  C   UNL     1       1.825   5.590  20.469  0.00  0.00    +0.000 C 
ENDBRANCH  23  26
ENDBRANCH  22  23
ENDBRANCH  21  22
ENDBRANCH   1  21
TORSDOF 6
ENDMDL
MODEL 9
REMARK VINA RESULT:      -6.0      3.304      7.280
REMARK  Name = 
REMARK  8 active torsions:
REMARK  status: ('A' for Active; 'I' for Inactive)
REMARK    1  A    between atoms: C_1  and  C_2
REMARK    2  A    between atoms: C_2  and  N_3
REMARK    3  A    between atoms: N_3  and  C_4
REMARK    4  A    between atoms: N_3  and  C_6
REMARK    5  A    between atoms: C_4  and  C_5
REMARK    6  A    between atoms: C_6  and  C_7
REMARK    7  A    between atoms: C_7  and  N_8
REMARK    8  A    between atoms: C_18  and  C_19
REMARK                            x       y       z     vdW  Elec       q    Type
REMARK                         _______ _______ _______ _____ _____    ______ ____
ROOT
ATOM      1  N   UNL     1      -2.719  13.445  22.505  0.00  0.00    +0.000 N 
ATOM      2  C   UNL     1      -2.487  12.566  21.456  0.00  0.00    +0.000 C 
ATOM      3  N   UNL     1      -3.177  12.747  20.358  0.00  0.00    +0.000 NA
ATOM      4  C   UNL     1      -3.066  11.978  19.191  0.00  0.00    +0.000 A 
ATOM      5  C   UNL     1      -4.253  11.623  18.545  0.00  0.00    +0.000 A 
ATOM      6  C   UNL     1      -4.234  10.915  17.342  0.00  0.00    +0.000 A 
ATOM      7  C   UNL     1      -3.017  10.566  16.761  0.00  0.00    +0.000 A 
ATOM      8  C   UNL     1      -1.821  10.929  17.380  0.00  0.00    +0.000 A 
ATOM      9  C   UNL     1      -1.843  11.639  18.586  0.00  0.00    +0.000 A 
ATOM     10  C   UNL     1      -0.600  11.891  19.331  0.00  0.00    +0.000 C 
ATOM     11  C   UNL     1       0.318  12.752  18.841  0.00  0.00    +0.000 C 
ATOM     12  C   UNL     1      -0.471  11.253  20.663  0.00  0.00    +0.000 A 
ATOM     13  C   UNL     1       0.547  10.315  20.901  0.00  0.00    +0.000 A 
ATOM     14  C   UNL     1       0.647   9.682  22.141  0.00  0.00    +0.000 A 
ATOM     15  C   UNL     1      -0.273   9.971  23.144  0.00  0.00    +0.000 A 
ATOM     16  C   UNL     1      -1.300  10.894  22.911  0.00  0.00    +0.000 A 
ATOM     17  C   UNL     1      -1.417  11.530  21.666  0.00  0.00    +0.000 A 
ATOM     18  H   UNL     1      -3.340  13.048  23.210  0.00  0.00    +0.000 HD
ENDROOT
BRANCH  11  19
ATOM     19  C   UNL     1       1.577  13.063  19.633  0.00  0.00    +0.000 C 
ATOM     20  N   UNL     1       2.623  13.321  20.289  0.00  0.00    +0.000 NA
ENDBRANCH  11  19
BRANCH   1  21
ATOM     21  C   UNL     1      -3.167  14.809  22.200  0.00  0.00    +0.000 C 
BRANCH  21  22
ATOM     22  C   UNL     1      -4.380  15.248  23.055  0.00  0.00    +0.000 C 
BRANCH  22  23
ATOM     23  N   UNL     1      -5.657  14.540  22.769  0.00  0.00    +0.000 NA
BRANCH  23  25
ATOM     24  C   UNL     1      -7.547  13.651  24.196  0.00  0.00    +0.000 C 
ATOM     25  C   UNL     1      -6.667  14.832  23.800  0.00  0.00    +0.000 C 
ENDBRANCH  23  25
BRANCH  23  26
ATOM     26  C   UNL     1      -6.116  14.826  21.394  0.00  0.00    +0.000 C 
ATOM     27  C   UNL     1      -6.677  13.651  20.592  0.00  0.00    +0.000 C 
ENDBRANCH  23  26
ENDBRANCH  22  23
ENDBRANCH  21  22
ENDBRANCH   1  21
TORSDOF 6
ENDMDL
