MODEL 1
REMARK VINA RESULT:      -8.0      0.000      0.000
REMARK  Name = 
REMARK  6 active torsions:
REMARK  status: ('A' for Active; 'I' for Inactive)
REMARK    1  A    between atoms: C_1  and  C_2
REMARK    2  A    between atoms: C_6  and  C_7
REMARK    3  A    between atoms: C_8  and  N_9
REMARK    4  A    between atoms: N_12  and  N_13
REMARK    5  A    between atoms: C_14  and  C_15
REMARK    6  A    between atoms: C_18  and  C_19
REMARK                            x       y       z     vdW  Elec       q    Type
REMARK                         _______ _______ _______ _____ _____    ______ ____
ROOT
ATOM      1  N   UNL     1       0.396  10.257  19.528  0.00  0.00    +0.000 N 
ATOM      2  C   UNL     1       1.260  10.922  18.679  0.00  0.00    +0.000 C 
ATOM      3  O   UNL     1       1.456  12.130  18.607  0.00  0.00    +0.000 OA
ATOM      4  N   UNL     1       1.902  10.037  17.812  0.00  0.00    +0.000 N 
ATOM      5  H   UNL     1       0.139   9.376  19.101  0.00  0.00    +0.000 HD
ATOM      6  H   UNL     1       2.568  10.423  17.152  0.00  0.00    +0.000 HD
ENDROOT
BRANCH   1  14
ATOM      7  C   UNL     1      -1.781  12.125  18.680  0.00  0.00    +0.000 C 
ATOM      8  C   UNL     1      -1.509  11.719  20.103  0.00  0.00    +0.000 A 
ATOM      9  C   UNL     1      -2.276  12.334  21.110  0.00  0.00    +0.000 A 
ATOM     10  C   UNL     1      -2.026  12.088  22.457  0.00  0.00    +0.000 A 
ATOM     11  C   UNL     1      -1.004  11.221  22.821  0.00  0.00    +0.000 A 
ATOM     12  C   UNL     1      -0.216  10.591  21.844  0.00  0.00    +0.000 A 
ATOM     13  C   UNL     1       0.847   9.628  22.303  0.00  0.00    +0.000 C 
ATOM     14  C   UNL     1      -0.476  10.831  20.473  0.00  0.00    +0.000 A 
ENDBRANCH   1  14
BRANCH   4  15
ATOM     15  N   UNL     1       1.708   8.699  17.942  0.00  0.00    +0.000 NA
ATOM     16  C   UNL     1       2.565   8.016  18.635  0.00  0.00    +0.000 C 
BRANCH  16  17
ATOM     17  C   UNL     1       2.308   6.575  18.856  0.00  0.00    +0.000 A 
ATOM     18  C   UNL     1       2.247   5.725  17.745  0.00  0.00    +0.000 A 
ATOM     19  C   UNL     1       1.969   4.371  17.903  0.00  0.00    +0.000 A 
ATOM     20  C   UNL     1       1.747   3.840  19.180  0.00  0.00    +0.000 A 
ATOM     21  C   UNL     1       1.817   4.697  20.294  0.00  0.00    +0.000 A 
ATOM     22  C   UNL     1       2.096   6.062  20.137  0.00  0.00    +0.000 A 
BRANCH  20  23
ATOM     23  C   UNL     1       1.430   2.372  19.346  0.00  0.00    +0.000 C 
ATOM     24  F   UNL     1       0.312   1.978  18.676  0.00  0.00    +0.000 F 
ATOM     25  F   UNL     1       2.435   1.569  18.900  0.00  0.00    +0.000 F 
ATOM     26  F   UNL     1       1.224   2.030  20.647  0.00  0.00    +0.000 F 
ENDBRANCH  20  23
ENDBRANCH  16  17
ENDBRANCH   4  15
TORSDOF 4
ENDMDL
MODEL 2
REMARK VINA RESULT:      -8.0      0.119      1.258
REMARK  Name = 
REMARK  6 active torsions:
REMARK  status: ('A' for Active; 'I' for Inactive)
REMARK    1  A    between atoms: C_1  and  C_2
REMARK    2  A    between atoms: C_6  and  C_7
REMARK    3  A    between atoms: C_8  and  N_9
REMARK    4  A    between atoms: N_12  and  N_13
REMARK    5  A    between atoms: C_14  and  C_15
REMARK    6  A    between atoms: C_18  and  C_19
REMARK                            x       y       z     vdW  Elec       q    Type
REMARK                         _______ _______ _______ _____ _____    ______ ____
ROOT
ATOM      1  N   UNL     1       0.440  10.242  19.572  0.00  0.00    +0.000 N 
ATOM      2  C   UNL     1       1.327  10.915  18.754  0.00  0.00    +0.000 C 
ATOM      3  O   UNL     1       1.556  12.119  18.729  0.00  0.00    +0.000 OA
ATOM      4  N   UNL     1       1.952  10.046  17.858  0.00  0.00    +0.000 N 
ATOM      5  H   UNL     1       0.163   9.385  19.111  0.00  0.00    +0.000 HD
ATOM      6  H   UNL     1       2.632  10.439  17.217  0.00  0.00    +0.000 HD
ENDROOT
BRANCH   1  14
ATOM      7  C   UNL     1      -1.696  12.181  18.779  0.00  0.00    +0.000 C 
ATOM      8  C   UNL     1      -1.436  11.724  20.189  0.00  0.00    +0.000 A 
ATOM      9  C   UNL     1      -2.194  12.321  21.214  0.00  0.00    +0.000 A 
ATOM     10  C   UNL     1      -1.953  12.027  22.553  0.00  0.00    +0.000 A 
ATOM     11  C   UNL     1      -0.951  11.128  22.892  0.00  0.00    +0.000 A 
ATOM     12  C   UNL     1      -0.172  10.514  21.896  0.00  0.00    +0.000 A 
ATOM     13  C   UNL     1       0.869   9.515  22.327  0.00  0.00    +0.000 C 
ATOM     14  C   UNL     1      -0.423  10.803  20.533  0.00  0.00    +0.000 A 
ENDBRANCH   1  14
BRANCH   4  15
ATOM     15  N   UNL     1       1.722   8.710  17.936  0.00  0.00    +0.000 NA
ATOM     16  C   UNL     1       2.577   7.974  18.575  0.00  0.00    +0.000 C 
BRANCH  16  17
ATOM     17  C   UNL     1       2.283   6.533  18.741  0.00  0.00    +0.000 A 
ATOM     18  C   UNL     1       2.016   6.043  20.025  0.00  0.00    +0.000 A 
ATOM     19  C   UNL     1       1.774   4.690  20.233  0.00  0.00    +0.000 A 
ATOM     20  C   UNL     1       1.795   3.796  19.154  0.00  0.00    +0.000 A 
ATOM     21  C   UNL     1       2.057   4.292  17.864  0.00  0.00    +0.000 A 
ATOM     22  C   UNL     1       2.302   5.657  17.653  0.00  0.00    +0.000 A 
BRANCH  20  23
ATOM     23  C   UNL     1       1.547   2.323  19.386  0.00  0.00    +0.000 C 
ATOM     24  F   UNL     1       1.378   1.999  20.697  0.00  0.00    +0.000 F 
ATOM     25  F   UNL     1       0.431   1.876  18.745  0.00  0.00    +0.000 F 
ATOM     26  F   UNL     1       2.574   1.548  18.940  0.00  0.00    +0.000 F 
ENDBRANCH  20  23
ENDBRANCH  16  17
ENDBRANCH   4  15
TORSDOF 4
ENDMDL
MODEL 3
REMARK VINA RESULT:      -7.9      1.228      2.502
REMARK  Name = 
REMARK  6 active torsions:
REMARK  status: ('A' for Active; 'I' for Inactive)
REMARK    1  A    between atoms: C_1  and  C_2
REMARK    2  A    between atoms: C_6  and  C_7
REMARK    3  A    between atoms: C_8  and  N_9
REMARK    4  A    between atoms: N_12  and  N_13
REMARK    5  A    between atoms: C_14  and  C_15
REMARK    6  A    between atoms: C_18  and  C_19
REMARK                            x       y       z     vdW  Elec       q    Type
REMARK                         _______ _______ _______ _____ _____    ______ ____
ROOT
ATOM      1  N   UNL     1      -0.541  10.684  18.880  0.00  0.00    +0.000 N 
ATOM      2  C   UNL     1       0.665  11.312  18.639  0.00  0.00    +0.000 C 
ATOM      3  O   UNL     1       0.863  12.509  18.458  0.00  0.00    +0.000 OA
ATOM      4  N   UNL     1       1.712  10.392  18.565  0.00  0.00    +0.000 N 
ATOM      5  H   UNL     1      -0.469   9.721  18.579  0.00  0.00    +0.000 HD
ATOM      6  H   UNL     1       2.645  10.752  18.401  0.00  0.00    +0.000 HD
ENDROOT
BRANCH   1  14
ATOM      7  C   UNL     1      -1.367  12.339  21.231  0.00  0.00    +0.000 C 
ATOM      8  C   UNL     1      -2.234  12.063  20.033  0.00  0.00    +0.000 A 
ATOM      9  C   UNL     1      -3.557  12.544  20.065  0.00  0.00    +0.000 A 
ATOM     10  C   UNL     1      -4.455  12.252  19.042  0.00  0.00    +0.000 A 
ATOM     11  C   UNL     1      -4.045  11.476  17.966  0.00  0.00    +0.000 A 
ATOM     12  C   UNL     1      -2.733  10.977  17.900  0.00  0.00    +0.000 A 
ATOM     13  C   UNL     1      -2.339  10.179  16.685  0.00  0.00    +0.000 C 
ATOM     14  C   UNL     1      -1.815  11.282  18.934  0.00  0.00    +0.000 A 
ENDBRANCH   1  14
BRANCH   4  15
ATOM     15  N   UNL     1       1.480   9.078  18.817  0.00  0.00    +0.000 NA
ATOM     16  C   UNL     1       2.411   8.222  18.535  0.00  0.00    +0.000 C 
BRANCH  16  17
ATOM     17  C   UNL     1       2.197   6.801  18.892  0.00  0.00    +0.000 A 
ATOM     18  C   UNL     1       2.241   5.837  17.877  0.00  0.00    +0.000 A 
ATOM     19  C   UNL     1       2.007   4.496  18.162  0.00  0.00    +0.000 A 
ATOM     20  C   UNL     1       1.724   4.092  19.473  0.00  0.00    +0.000 A 
ATOM     21  C   UNL     1       1.688   5.063  20.491  0.00  0.00    +0.000 A 
ATOM     22  C   UNL     1       1.923   6.415  20.206  0.00  0.00    +0.000 A 
BRANCH  20  23
ATOM     23  C   UNL     1       1.455   2.636  19.776  0.00  0.00    +0.000 C 
ATOM     24  F   UNL     1       2.516   1.823  19.522  0.00  0.00    +0.000 F 
ATOM     25  F   UNL     1       1.128   2.428  21.081  0.00  0.00    +0.000 F 
ATOM     26  F   UNL     1       0.420   2.137  19.045  0.00  0.00    +0.000 F 
ENDBRANCH  20  23
ENDBRANCH  16  17
ENDBRANCH   4  15
TORSDOF 4
ENDMDL
MODEL 4
REMARK VINA RESULT:      -7.8      0.695      1.317
REMARK  Name = 
REMARK  6 active torsions:
REMARK  status: ('A' for Active; 'I' for Inactive)
REMARK    1  A    between atoms: C_1  and  C_2
REMARK    2  A    between atoms: C_6  and  C_7
REMARK    3  A    between atoms: C_8  and  N_9
REMARK    4  A    between atoms: N_12  and  N_13
REMARK    5  A    between atoms: C_14  and  C_15
REMARK    6  A    between atoms: C_18  and  C_19
REMARK                            x       y       z     vdW  Elec       q    Type
REMARK                         _______ _______ _______ _____ _____    ______ ____
ROOT
ATOM      1  N   UNL     1      -0.071  10.583  19.033  0.00  0.00    +0.000 N 
ATOM      2  C   UNL     1       1.032  11.175  18.449  0.00  0.00    +0.000 C 
ATOM      3  O   UNL     1       1.263  12.373  18.331  0.00  0.00    +0.000 OA
ATOM      4  N   UNL     1       1.903  10.220  17.922  0.00  0.00    +0.000 N 
ATOM      5  H   UNL     1      -0.193   9.662  18.631  0.00  0.00    +0.000 HD
ATOM      6  H   UNL     1       2.752  10.550  17.479  0.00  0.00    +0.000 HD
ENDROOT
BRANCH   1  14
ATOM      7  C   UNL     1      -2.423  11.320  17.337  0.00  0.00    +0.000 C 
ATOM      8  C   UNL     1      -2.311  11.597  18.812  0.00  0.00    +0.000 A 
ATOM      9  C   UNL     1      -3.349  12.334  19.413  0.00  0.00    +0.000 A 
ATOM     10  C   UNL     1      -3.281  12.716  20.750  0.00  0.00    +0.000 A 
ATOM     11  C   UNL     1      -2.174  12.365  21.511  0.00  0.00    +0.000 A 
ATOM     12  C   UNL     1      -1.118  11.631  20.945  0.00  0.00    +0.000 A 
ATOM     13  C   UNL     1       0.034  11.244  21.836  0.00  0.00    +0.000 C 
ATOM     14  C   UNL     1      -1.190  11.232  19.588  0.00  0.00    +0.000 A 
ENDBRANCH   1  14
BRANCH   4  15
ATOM     15  N   UNL     1       1.653   8.898  18.108  0.00  0.00    +0.000 NA
ATOM     16  C   UNL     1       2.609   8.148  18.561  0.00  0.00    +0.000 C 
BRANCH  16  17
ATOM     17  C   UNL     1       2.315   6.727  18.852  0.00  0.00    +0.000 A 
ATOM     18  C   UNL     1       2.274   5.817  17.788  0.00  0.00    +0.000 A 
ATOM     19  C   UNL     1       1.962   4.480  18.011  0.00  0.00    +0.000 A 
ATOM     20  C   UNL     1       1.685   4.025  19.306  0.00  0.00    +0.000 A 
ATOM     21  C   UNL     1       1.735   4.941  20.373  0.00  0.00    +0.000 A 
ATOM     22  C   UNL     1       2.048   6.290  20.152  0.00  0.00    +0.000 A 
BRANCH  20  23
ATOM     23  C   UNL     1       1.332   2.575  19.542  0.00  0.00    +0.000 C 
ATOM     24  F   UNL     1       1.064   2.285  20.844  0.00  0.00    +0.000 F 
ATOM     25  F   UNL     1       0.232   2.186  18.839  0.00  0.00    +0.000 F 
ATOM     26  F   UNL     1       2.334   1.730  19.171  0.00  0.00    +0.000 F 
ENDBRANCH  20  23
ENDBRANCH  16  17
ENDBRANCH   4  15
TORSDOF 4
ENDMDL
MODEL 5
REMARK VINA RESULT:      -7.8      0.984      2.331
REMARK  Name = 
REMARK  6 active torsions:
REMARK  status: ('A' for Active; 'I' for Inactive)
REMARK    1  A    between atoms: C_1  and  C_2
REMARK    2  A    between atoms: C_6  and  C_7
REMARK    3  A    between atoms: C_8  and  N_9
REMARK    4  A    between atoms: N_12  and  N_13
REMARK    5  A    between atoms: C_14  and  C_15
REMARK    6  A    between atoms: C_18  and  C_19
REMARK                            x       y       z     vdW  Elec       q    Type
REMARK                         _______ _______ _______ _____ _____    ______ ____
ROOT
ATOM      1  N   UNL     1      -0.151  10.717  18.850  0.00  0.00    +0.000 N 
ATOM      2  C   UNL     1       1.034  11.279  18.418  0.00  0.00    +0.000 C 
ATOM      3  O   UNL     1       1.307  12.470  18.322  0.00  0.00    +0.000 OA
ATOM      4  N   UNL     1       1.947  10.299  18.023  0.00  0.00    +0.000 N 
ATOM      5  H   UNL     1      -0.238   9.795  18.443  0.00  0.00    +0.000 HD
ATOM      6  H   UNL     1       2.856  10.606  17.697  0.00  0.00    +0.000 HD
ENDROOT
BRANCH   1  14
ATOM      7  C   UNL     1      -0.350  12.017  21.537  0.00  0.00    +0.000 C 
ATOM      8  C   UNL     1      -1.445  12.014  20.505  0.00  0.00    +0.000 A 
ATOM      9  C   UNL     1      -2.679  12.587  20.867  0.00  0.00    +0.000 A 
ATOM     10  C   UNL     1      -3.774  12.542  20.010  0.00  0.00    +0.000 A 
ATOM     11  C   UNL     1      -3.654  11.926  18.771  0.00  0.00    +0.000 A 
ATOM     12  C   UNL     1      -2.439  11.343  18.375  0.00  0.00    +0.000 A 
ATOM     13  C   UNL     1      -2.362  10.730  17.001  0.00  0.00    +0.000 C 
ATOM     14  C   UNL     1      -1.321  11.397  19.242  0.00  0.00    +0.000 A 
ENDBRANCH   1  14
BRANCH   4  15
ATOM     15  N   UNL     1       1.644   8.985  18.183  0.00  0.00    +0.000 NA
ATOM     16  C   UNL     1       2.586   8.177  18.557  0.00  0.00    +0.000 C 
BRANCH  16  17
ATOM     17  C   UNL     1       2.239   6.762  18.822  0.00  0.00    +0.000 A 
ATOM     18  C   UNL     1       1.938   6.377  20.134  0.00  0.00    +0.000 A 
ATOM     19  C   UNL     1       1.646   5.050  20.434  0.00  0.00    +0.000 A 
ATOM     20  C   UNL     1       1.648   4.081  19.423  0.00  0.00    +0.000 A 
ATOM     21  C   UNL     1       1.944   4.473  18.105  0.00  0.00    +0.000 A 
ATOM     22  C   UNL     1       2.240   5.810  17.800  0.00  0.00    +0.000 A 
BRANCH  20  23
ATOM     23  C   UNL     1       1.345   2.638  19.756  0.00  0.00    +0.000 C 
ATOM     24  F   UNL     1       0.299   2.126  19.052  0.00  0.00    +0.000 F 
ATOM     25  F   UNL     1       2.400   1.814  19.508  0.00  0.00    +0.000 F 
ATOM     26  F   UNL     1       1.032   2.464  21.069  0.00  0.00    +0.000 F 
ENDBRANCH  20  23
ENDBRANCH  16  17
ENDBRANCH   4  15
TORSDOF 4
ENDMDL
MODEL 6
REMARK VINA RESULT:      -7.8      0.145      2.040
REMARK  Name = 
REMARK  6 active torsions:
REMARK  status: ('A' for Active; 'I' for Inactive)
REMARK    1  A    between atoms: C_1  and  C_2
REMARK    2  A    between atoms: C_6  and  C_7
REMARK    3  A    between atoms: C_8  and  N_9
REMARK    4  A    between atoms: N_12  and  N_13
REMARK    5  A    between atoms: C_14  and  C_15
REMARK    6  A    between atoms: C_18  and  C_19
REMARK                            x       y       z     vdW  Elec       q    Type
REMARK                         _______ _______ _______ _____ _____    ______ ____
ROOT
ATOM      1  N   UNL     1       0.518  10.341  19.606  0.00  0.00    +0.000 N 
ATOM      2  C   UNL     1       1.389  10.983  18.748  0.00  0.00    +0.000 C 
ATOM      3  O   UNL     1       1.646  12.181  18.701  0.00  0.00    +0.000 OA
ATOM      4  N   UNL     1       1.960  10.090  17.839  0.00  0.00    +0.000 N 
ATOM      5  H   UNL     1       0.204   9.486  19.165  0.00  0.00    +0.000 HD
ATOM      6  H   UNL     1       2.625  10.459  17.170  0.00  0.00    +0.000 HD
ENDROOT
BRANCH   1  14
ATOM      7  C   UNL     1       0.875   9.677  22.500  0.00  0.00    +0.000 C 
ATOM      8  C   UNL     1      -0.154  10.634  21.963  0.00  0.00    +0.000 A 
ATOM      9  C   UNL     1      -1.068  11.184  22.881  0.00  0.00    +0.000 A 
ATOM     10  C   UNL     1      -2.111  12.003  22.457  0.00  0.00    +0.000 A 
ATOM     11  C   UNL     1      -2.256  12.289  21.106  0.00  0.00    +0.000 A 
ATOM     12  C   UNL     1      -1.364  11.757  20.160  0.00  0.00    +0.000 A 
ATOM     13  C   UNL     1      -1.549  12.141  18.715  0.00  0.00    +0.000 C 
ATOM     14  C   UNL     1      -0.296  10.932  20.591  0.00  0.00    +0.000 A 
ENDBRANCH   1  14
BRANCH   4  15
ATOM     15  N   UNL     1       1.701   8.761  17.942  0.00  0.00    +0.000 NA
ATOM     16  C   UNL     1       2.580   8.005  18.523  0.00  0.00    +0.000 C 
BRANCH  16  17
ATOM     17  C   UNL     1       2.262   6.572  18.717  0.00  0.00    +0.000 A 
ATOM     18  C   UNL     1       2.007   6.109  20.015  0.00  0.00    +0.000 A 
ATOM     19  C   UNL     1       1.743   4.764  20.248  0.00  0.00    +0.000 A 
ATOM     20  C   UNL     1       1.727   3.853  19.185  0.00  0.00    +0.000 A 
ATOM     21  C   UNL     1       1.976   4.323  17.882  0.00  0.00    +0.000 A 
ATOM     22  C   UNL     1       2.244   5.679  17.644  0.00  0.00    +0.000 A 
BRANCH  20  23
ATOM     23  C   UNL     1       1.455   2.389  19.444  0.00  0.00    +0.000 C 
ATOM     24  F   UNL     1       0.336   1.925  18.823  0.00  0.00    +0.000 F 
ATOM     25  F   UNL     1       2.474   1.588  19.026  0.00  0.00    +0.000 F 
ATOM     26  F   UNL     1       1.283   2.120  20.768  0.00  0.00    +0.000 F 
ENDBRANCH  20  23
ENDBRANCH  16  17
ENDBRANCH   4  15
TORSDOF 4
ENDMDL
MODEL 7
REMARK VINA RESULT:      -7.7      0.307      1.943
REMARK  Name = 
REMARK  6 active torsions:
REMARK  status: ('A' for Active; 'I' for Inactive)
REMARK    1  A    between atoms: C_1  and  C_2
REMARK    2  A    between atoms: C_6  and  C_7
REMARK    3  A    between atoms: C_8  and  N_9
REMARK    4  A    between atoms: N_12  and  N_13
REMARK    5  A    between atoms: C_14  and  C_15
REMARK    6  A    between atoms: C_18  and  C_19
REMARK                            x       y       z     vdW  Elec       q    Type
REMARK                         _______ _______ _______ _____ _____    ______ ____
ROOT
ATOM      1  N   UNL     1       0.317  10.501  19.612  0.00  0.00    +0.000 N 
ATOM      2  C   UNL     1       1.228  11.096  18.763  0.00  0.00    +0.000 C 
ATOM      3  O   UNL     1       1.471  12.292  18.644  0.00  0.00    +0.000 OA
ATOM      4  N   UNL     1       1.863  10.151  17.954  0.00  0.00    +0.000 N 
ATOM      5  H   UNL     1       0.040   9.612  19.216  0.00  0.00    +0.000 HD
ATOM      6  H   UNL     1       2.560  10.484  17.299  0.00  0.00    +0.000 HD
ENDROOT
BRANCH   1  14
ATOM      7  C   UNL     1       0.494  10.025  22.560  0.00  0.00    +0.000 C 
ATOM      8  C   UNL     1      -0.504  10.937  21.899  0.00  0.00    +0.000 A 
ATOM      9  C   UNL     1      -1.478  11.536  22.721  0.00  0.00    +0.000 A 
ATOM     10  C   UNL     1      -2.496  12.316  22.180  0.00  0.00    +0.000 A 
ATOM     11  C   UNL     1      -2.557  12.515  20.807  0.00  0.00    +0.000 A 
ATOM     12  C   UNL     1      -1.603  11.932  19.956  0.00  0.00    +0.000 A 
ATOM     13  C   UNL     1      -1.699  12.222  18.481  0.00  0.00    +0.000 C 
ATOM     14  C   UNL     1      -0.561  11.146  20.505  0.00  0.00    +0.000 A 
ENDBRANCH   1  14
BRANCH   4  15
ATOM     15  N   UNL     1       1.616   8.829  18.136  0.00  0.00    +0.000 NA
ATOM     16  C   UNL     1       2.604   8.057  18.466  0.00  0.00    +0.000 C 
BRANCH  16  17
ATOM     17  C   UNL     1       2.323   6.632  18.753  0.00  0.00    +0.000 A 
ATOM     18  C   UNL     1       2.366   5.711  17.699  0.00  0.00    +0.000 A 
ATOM     19  C   UNL     1       2.070   4.370  17.917  0.00  0.00    +0.000 A 
ATOM     20  C   UNL     1       1.724   3.922  19.199  0.00  0.00    +0.000 A 
ATOM     21  C   UNL     1       1.690   4.850  20.257  0.00  0.00    +0.000 A 
ATOM     22  C   UNL     1       1.987   6.203  20.039  0.00  0.00    +0.000 A 
BRANCH  20  23
ATOM     23  C   UNL     1       1.388   2.467  19.429  0.00  0.00    +0.000 C 
ATOM     24  F   UNL     1       2.282   1.608  18.867  0.00  0.00    +0.000 F 
ATOM     25  F   UNL     1       1.343   2.146  20.752  0.00  0.00    +0.000 F 
ATOM     26  F   UNL     1       0.173   2.128  18.917  0.00  0.00    +0.000 F 
ENDBRANCH  20  23
ENDBRANCH  16  17
ENDBRANCH   4  15
TORSDOF 4
ENDMDL
MODEL 8
REMARK VINA RESULT:      -7.7      2.026      3.319
REMARK  Name = 
REMARK  6 active torsions:
REMARK  status: ('A' for Active; 'I' for Inactive)
REMARK    1  A    between atoms: C_1  and  C_2
REMARK    2  A    between atoms: C_6  and  C_7
REMARK    3  A    between atoms: C_8  and  N_9
REMARK    4  A    between atoms: N_12  and  N_13
REMARK    5  A    between atoms: C_14  and  C_15
REMARK    6  A    between atoms: C_18  and  C_19
REMARK                            x       y       z     vdW  Elec       q    Type
REMARK                         _______ _______ _______ _____ _____    ______ ____
ROOT
ATOM      1  N   UNL     1      -1.399  11.303  18.591  0.00  0.00    +0.000 N 
ATOM      2  C   UNL     1      -0.367  12.189  18.352  0.00  0.00    +0.000 C 
ATOM      3  O   UNL     1      -0.453  13.365  18.017  0.00  0.00    +0.000 OA
ATOM      4  N   UNL     1       0.878  11.570  18.486  0.00  0.00    +0.000 N 
ATOM      5  H   UNL     1      -1.058  10.362  18.437  0.00  0.00    +0.000 HD
ATOM      6  H   UNL     1       1.704  12.138  18.340  0.00  0.00    +0.000 HD
ENDROOT
BRANCH   1  14
ATOM      7  C   UNL     1      -2.924  12.652  20.782  0.00  0.00    +0.000 C 
ATOM      8  C   UNL     1      -3.526  12.181  19.486  0.00  0.00    +0.000 A 
ATOM      9  C   UNL     1      -4.920  12.304  19.335  0.00  0.00    +0.000 A 
ATOM     10  C   UNL     1      -5.570  11.807  18.209  0.00  0.00    +0.000 A 
ATOM     11  C   UNL     1      -4.836  11.179  17.211  0.00  0.00    +0.000 A 
ATOM     12  C   UNL     1      -3.444  11.036  17.327  0.00  0.00    +0.000 A 
ATOM     13  C   UNL     1      -2.701  10.386  16.190  0.00  0.00    +0.000 C 
ATOM     14  C   UNL     1      -2.779  11.551  18.467  0.00  0.00    +0.000 A 
ENDBRANCH   1  14
BRANCH   4  15
ATOM     15  N   UNL     1       0.952  10.281  18.906  0.00  0.00    +0.000 NA
ATOM     16  C   UNL     1       1.860   9.515  18.387  0.00  0.00    +0.000 C 
BRANCH  16  17
ATOM     17  C   UNL     1       2.004   8.136  18.906  0.00  0.00    +0.000 A 
ATOM     18  C   UNL     1       2.400   7.122  18.025  0.00  0.00    +0.000 A 
ATOM     19  C   UNL     1       2.508   5.806  18.462  0.00  0.00    +0.000 A 
ATOM     20  C   UNL     1       2.223   5.478  19.793  0.00  0.00    +0.000 A 
ATOM     21  C   UNL     1       1.833   6.501  20.677  0.00  0.00    +0.000 A 
ATOM     22  C   UNL     1       1.721   7.829  20.239  0.00  0.00    +0.000 A 
BRANCH  20  23
ATOM     23  C   UNL     1       2.328   4.045  20.260  0.00  0.00    +0.000 C 
ATOM     24  F   UNL     1       2.150   3.895  21.601  0.00  0.00    +0.000 F 
ATOM     25  F   UNL     1       1.405   3.236  19.669  0.00  0.00    +0.000 F 
ATOM     26  F   UNL     1       3.543   3.496  19.982  0.00  0.00    +0.000 F 
ENDBRANCH  20  23
ENDBRANCH  16  17
ENDBRANCH   4  15
TORSDOF 4
ENDMDL
MODEL 9
REMARK VINA RESULT:      -7.6      1.096      1.858
REMARK  Name = 
REMARK  6 active torsions:
REMARK  status: ('A' for Active; 'I' for Inactive)
REMARK    1  A    between atoms: C_1  and  C_2
REMARK    2  A    between atoms: C_6  and  C_7
REMARK    3  A    between atoms: C_8  and  N_9
REMARK    4  A    between atoms: N_12  and  N_13
REMARK    5  A    between atoms: C_14  and  C_15
REMARK    6  A    between atoms: C_18  and  C_19
REMARK                            x       y       z     vdW  Elec       q    Type
REMARK                         _______ _______ _______ _____ _____    ______ ____
ROOT
ATOM      1  N   UNL     1      -0.171  10.611  19.279  0.00  0.00    +0.000 N 
ATOM      2  C   UNL     1       0.945  11.169  18.685  0.00  0.00    +0.000 C 
ATOM      3  O   UNL     1       1.099  12.331  18.326  0.00  0.00    +0.000 OA
ATOM      4  N   UNL     1       1.938  10.212  18.468  0.00  0.00    +0.000 N 
ATOM      5  H   UNL     1      -0.178   9.618  19.082  0.00  0.00    +0.000 HD
ATOM      6  H   UNL     1       2.805  10.520  18.044  0.00  0.00    +0.000 HD
ENDROOT
BRANCH   1  14
ATOM      7  C   UNL     1      -2.398  10.657  17.283  0.00  0.00    +0.000 C 
ATOM      8  C   UNL     1      -2.456  11.295  18.644  0.00  0.00    +0.000 A 
ATOM      9  C   UNL     1      -3.607  12.041  18.962  0.00  0.00    +0.000 A 
ATOM     10  C   UNL     1      -3.703  12.743  20.160  0.00  0.00    +0.000 A 
ATOM     11  C   UNL     1      -2.650  12.709  21.065  0.00  0.00    +0.000 A 
ATOM     12  C   UNL     1      -1.485  11.976  20.782  0.00  0.00    +0.000 A 
ATOM     13  C   UNL     1      -0.398  11.944  21.824  0.00  0.00    +0.000 C 
ATOM     14  C   UNL     1      -1.390  11.253  19.568  0.00  0.00    +0.000 A 
ENDBRANCH   1  14
BRANCH   4  15
ATOM     15  N   UNL     1       1.766   8.942  18.918  0.00  0.00    +0.000 NA
ATOM     16  C   UNL     1       2.333   7.975  18.266  0.00  0.00    +0.000 C 
BRANCH  16  17
ATOM     17  C   UNL     1       2.224   6.600  18.804  0.00  0.00    +0.000 A 
ATOM     18  C   UNL     1       2.023   6.430  20.180  0.00  0.00    +0.000 A 
ATOM     19  C   UNL     1       1.954   5.156  20.734  0.00  0.00    +0.000 A 
ATOM     20  C   UNL     1       2.085   4.024  19.919  0.00  0.00    +0.000 A 
ATOM     21  C   UNL     1       2.279   4.200  18.537  0.00  0.00    +0.000 A 
ATOM     22  C   UNL     1       2.350   5.483  17.976  0.00  0.00    +0.000 A 
BRANCH  20  23
ATOM     23  C   UNL     1       2.025   2.642  20.527  0.00  0.00    +0.000 C 
ATOM     24  F   UNL     1       1.680   1.671  19.638  0.00  0.00    +0.000 F 
ATOM     25  F   UNL     1       3.218   2.255  21.058  0.00  0.00    +0.000 F 
ATOM     26  F   UNL     1       1.118   2.559  21.539  0.00  0.00    +0.000 F 
ENDBRANCH  20  23
ENDBRANCH  16  17
ENDBRANCH   4  15
TORSDOF 4
ENDMDL
