MODEL 1
REMARK VINA RESULT:      -6.8      0.000      0.000
REMARK  Name = 
REMARK  14 active torsions:
REMARK  status: ('A' for Active; 'I' for Inactive)
REMARK    1  A    between atoms: C_1  and  C_2
REMARK    2  A    between atoms: C_5  and  C_6
REMARK    3  A    between atoms: C_6  and  N_7
REMARK    4  A    between atoms: C_10  and  C_11
REMARK    5  A    between atoms: C_11  and  C_12
REMARK    6  A    between atoms: C_12  and  O_13
REMARK    7  A    between atoms: O_13  and  P_14
REMARK    8  A    between atoms: P_14  and  O_16
REMARK    9  A    between atoms: P_14  and  O_17
REMARK   10  A    between atoms: O_17  and  P_18
REMARK   11  A    between atoms: P_18  and  O_20
REMARK   12  A    between atoms: P_18  and  O_21
REMARK   13  A    between atoms: C_22  and  C_23
REMARK   14  A    between atoms: C_24  and  N_25
REMARK                            x       y       z     vdW  Elec       q    Type
REMARK                         _______ _______ _______ _____ _____    ______ ____
ROOT
ATOM      1  N   UNL     1       1.302   9.316  19.260  0.00  0.00    +0.000 N 
ATOM      2  C   UNL     1       0.745   9.237  20.458  0.00  0.00    +0.000 A 
ATOM      3  S   UNL     1       1.200   7.809  21.273  0.00  0.00    +0.000 S 
ATOM      4  C   UNL     1       2.104   7.258  19.918  0.00  0.00    +0.000 A 
ATOM      5  C   UNL     1       2.119   8.235  18.932  0.00  0.00    +0.000 A 
ATOM      6  C   UNL     1       2.846   8.224  17.637  0.00  0.00    +0.000 C 
ENDROOT
BRANCH   1   7
ATOM      7  C   UNL     1       0.909  10.397  18.338  0.00  0.00    +0.000 C 
BRANCH   7  12
ATOM      8  C   UNL     1      -4.649  11.469  17.786  0.00  0.00    +0.000 C 
ATOM      9  C   UNL     1      -3.215  11.124  18.039  0.00  0.00    +0.000 A 
ATOM     10  N   UNL     1      -2.716  10.053  17.408  0.00  0.00    +0.000 NA
ATOM     11  C   UNL     1      -1.399   9.835  17.555  0.00  0.00    +0.000 A 
ATOM     12  C   UNL     1      -0.567  10.629  18.317  0.00  0.00    +0.000 A 
ATOM     13  C   UNL     1      -1.184  11.698  18.933  0.00  0.00    +0.000 A 
ATOM     14  N   UNL     1      -2.495  11.946  18.824  0.00  0.00    +0.000 NA
BRANCH  13  15
ATOM     15  N   UNL     1      -0.473  12.638  19.682  0.00  0.00    +0.000 N 
ATOM     16  H   UNL     1      -0.724  13.585  19.399  0.00  0.00    +0.000 HD
ATOM     17  H   UNL     1      -0.798  12.511  20.644  0.00  0.00    +0.000 HD
ENDBRANCH  13  15
ENDBRANCH   7  12
ENDBRANCH   1   7
BRANCH   4  18
ATOM     18  C   UNL     1       2.672   5.867  19.942  0.00  0.00    +0.000 C 
BRANCH  18  19
ATOM     19  C   UNL     1       2.180   4.974  18.811  0.00  0.00    +0.000 C 
BRANCH  19  20
ATOM     20  O   UNL     1       2.967   3.790  18.689  0.00  0.00    +0.000 OA
BRANCH  20  21
ATOM     21  P   UNL     1       4.660   4.118  18.847  0.00  0.00    +0.000 P 
ATOM     22  O   UNL     1       4.798   2.951  19.823  0.00  0.00    +0.000 OA
BRANCH  21  23
ATOM     23  O   UNL     1       4.907   3.573  17.332  0.00  0.00    +0.000 OA
ATOM     24  H   UNL     1       5.497   4.147  16.812  0.00  0.00    +0.000 HD
ENDBRANCH  21  23
BRANCH  21  25
ATOM     25  O   UNL     1       6.350   4.446  19.003  0.00  0.00    +0.000 OA
BRANCH  25  26
ATOM     26  P   UNL     1       6.964   5.043  17.500  0.00  0.00    +0.000 P 
ATOM     27  O   UNL     1       7.432   6.352  18.125  0.00  0.00    +0.000 OA
BRANCH  26  28
ATOM     28  O   UNL     1       8.261   4.067  17.635  0.00  0.00    +0.000 OA
ATOM     29  H   UNL     1       8.182   3.597  18.491  0.00  0.00    +0.000 HD
ENDBRANCH  26  28
BRANCH  26  30
ATOM     30  O   UNL     1       7.577   5.640  15.996  0.00  0.00    +0.000 OA
ATOM     31  H   UNL     1       6.825   5.515  15.378  0.00  0.00    +0.000 HD
ENDBRANCH  26  30
ENDBRANCH  25  26
ENDBRANCH  21  25
ENDBRANCH  20  21
ENDBRANCH  19  20
ENDBRANCH  18  19
ENDBRANCH   4  18
TORSDOF 12
ENDMDL
MODEL 2
REMARK VINA RESULT:      -6.7      6.534      8.316
REMARK  Name = 
REMARK  14 active torsions:
REMARK  status: ('A' for Active; 'I' for Inactive)
REMARK    1  A    between atoms: C_1  and  C_2
REMARK    2  A    between atoms: C_5  and  C_6
REMARK    3  A    between atoms: C_6  and  N_7
REMARK    4  A    between atoms: C_10  and  C_11
REMARK    5  A    between atoms: C_11  and  C_12
REMARK    6  A    between atoms: C_12  and  O_13
REMARK    7  A    between atoms: O_13  and  P_14
REMARK    8  A    between atoms: P_14  and  O_16
REMARK    9  A    between atoms: P_14  and  O_17
REMARK   10  A    between atoms: O_17  and  P_18
REMARK   11  A    between atoms: P_18  and  O_20
REMARK   12  A    between atoms: P_18  and  O_21
REMARK   13  A    between atoms: C_22  and  C_23
REMARK   14  A    between atoms: C_24  and  N_25
REMARK                            x       y       z     vdW  Elec       q    Type
REMARK                         _______ _______ _______ _____ _____    ______ ____
ROOT
ATOM      1  N   UNL     1       5.955   5.298  18.081  0.00  0.00    +0.000 N 
ATOM      2  C   UNL     1       6.807   5.032  19.058  0.00  0.00    +0.000 A 
ATOM      3  S   UNL     1       8.010   6.234  19.192  0.00  0.00    +0.000 S 
ATOM      4  C   UNL     1       7.395   7.079  17.826  0.00  0.00    +0.000 A 
ATOM      5  C   UNL     1       6.226   6.476  17.384  0.00  0.00    +0.000 A 
ATOM      6  C   UNL     1       5.317   6.917  16.296  0.00  0.00    +0.000 C 
ENDROOT
BRANCH   1   7
ATOM      7  C   UNL     1       4.937   4.301  17.704  0.00  0.00    +0.000 C 
BRANCH   7  12
ATOM      8  C   UNL     1       1.250   2.655  21.709  0.00  0.00    +0.000 C 
ATOM      9  C   UNL     1       2.258   3.180  20.736  0.00  0.00    +0.000 A 
ATOM     10  N   UNL     1       3.449   2.568  20.687  0.00  0.00    +0.000 NA
ATOM     11  C   UNL     1       4.290   2.977  19.724  0.00  0.00    +0.000 A 
ATOM     12  C   UNL     1       4.001   3.980  18.823  0.00  0.00    +0.000 A 
ATOM     13  C   UNL     1       2.755   4.552  18.968  0.00  0.00    +0.000 A 
ATOM     14  N   UNL     1       1.888   4.185  19.921  0.00  0.00    +0.000 NA
BRANCH  13  15
ATOM     15  N   UNL     1       2.278   5.532  18.094  0.00  0.00    +0.000 N 
ATOM     16  H   UNL     1       1.424   5.953  18.459  0.00  0.00    +0.000 HD
ATOM     17  H   UNL     1       2.999   6.258  18.091  0.00  0.00    +0.000 HD
ENDBRANCH  13  15
ENDBRANCH   7  12
ENDBRANCH   1   7
BRANCH   4  18
ATOM     18  C   UNL     1       8.175   8.242  17.282  0.00  0.00    +0.000 C 
BRANCH  18  19
ATOM     19  C   UNL     1       8.100   9.498  18.139  0.00  0.00    +0.000 C 
BRANCH  19  20
ATOM     20  O   UNL     1       9.150   9.547  19.104  0.00  0.00    +0.000 OA
BRANCH  20  21
ATOM     21  P   UNL     1       9.957  11.078  19.107  0.00  0.00    +0.000 P 
ATOM     22  O   UNL     1       9.135  11.518  17.896  0.00  0.00    +0.000 OA
BRANCH  21  23
ATOM     23  O   UNL     1       9.162  11.496  20.465  0.00  0.00    +0.000 OA
ATOM     24  H   UNL     1       8.195  11.517  20.350  0.00  0.00    +0.000 HD
ENDBRANCH  21  23
BRANCH  21  25
ATOM     25  O   UNL     1      10.764  12.608  19.111  0.00  0.00    +0.000 OA
BRANCH  25  26
ATOM     26  P   UNL     1      11.014  13.132  17.481  0.00  0.00    +0.000 P 
ATOM     27  O   UNL     1      11.802  14.362  17.919  0.00  0.00    +0.000 OA
BRANCH  26  28
ATOM     28  O   UNL     1      12.160  11.991  17.284  0.00  0.00    +0.000 OA
ATOM     29  H   UNL     1      12.456  11.720  18.177  0.00  0.00    +0.000 HD
ENDBRANCH  26  28
BRANCH  26  30
ATOM     30  O   UNL     1      11.264  13.656  15.851  0.00  0.00    +0.000 OA
ATOM     31  H   UNL     1      12.049  13.140  15.564  0.00  0.00    +0.000 HD
ENDBRANCH  26  30
ENDBRANCH  25  26
ENDBRANCH  21  25
ENDBRANCH  20  21
ENDBRANCH  19  20
ENDBRANCH  18  19
ENDBRANCH   4  18
TORSDOF 12
ENDMDL
MODEL 3
REMARK VINA RESULT:      -6.7      1.317      1.698
REMARK  Name = 
REMARK  14 active torsions:
REMARK  status: ('A' for Active; 'I' for Inactive)
REMARK    1  A    between atoms: C_1  and  C_2
REMARK    2  A    between atoms: C_5  and  C_6
REMARK    3  A    between atoms: C_6  and  N_7
REMARK    4  A    between atoms: C_10  and  C_11
REMARK    5  A    between atoms: C_11  and  C_12
REMARK    6  A    between atoms: C_12  and  O_13
REMARK    7  A    between atoms: O_13  and  P_14
REMARK    8  A    between atoms: P_14  and  O_16
REMARK    9  A    between atoms: P_14  and  O_17
REMARK   10  A    between atoms: O_17  and  P_18
REMARK   11  A    between atoms: P_18  and  O_20
REMARK   12  A    between atoms: P_18  and  O_21
REMARK   13  A    between atoms: C_22  and  C_23
REMARK   14  A    between atoms: C_24  and  N_25
REMARK                            x       y       z     vdW  Elec       q    Type
REMARK                         _______ _______ _______ _____ _____    ______ ____
ROOT
ATOM      1  N   UNL     1       1.445   9.268  19.123  0.00  0.00    +0.000 N 
ATOM      2  C   UNL     1       1.925   9.207  17.891  0.00  0.00    +0.000 A 
ATOM      3  S   UNL     1       2.804   7.770  17.624  0.00  0.00    +0.000 S 
ATOM      4  C   UNL     1       2.591   7.273  19.257  0.00  0.00    +0.000 A 
ATOM      5  C   UNL     1       1.762   8.167  19.919  0.00  0.00    +0.000 A 
ATOM      6  C   UNL     1       1.241   8.085  21.307  0.00  0.00    +0.000 C 
ENDROOT
BRANCH   1   7
ATOM      7  C   UNL     1       0.792  10.501  19.596  0.00  0.00    +0.000 C 
BRANCH   7  12
ATOM      8  C   UNL     1      -3.937  11.262  16.531  0.00  0.00    +0.000 C 
ATOM      9  C   UNL     1      -2.752  11.123  17.434  0.00  0.00    +0.000 A 
ATOM     10  N   UNL     1      -2.610   9.966  18.094  0.00  0.00    +0.000 NA
ATOM     11  C   UNL     1      -1.478   9.819  18.801  0.00  0.00    +0.000 A 
ATOM     12  C   UNL     1      -0.494  10.781  18.890  0.00  0.00    +0.000 A 
ATOM     13  C   UNL     1      -0.745  11.938  18.182  0.00  0.00    +0.000 A 
ATOM     14  N   UNL     1      -1.865  12.133  17.474  0.00  0.00    +0.000 NA
BRANCH  13  15
ATOM     15  N   UNL     1       0.180  12.982  18.110  0.00  0.00    +0.000 N 
ATOM     16  H   UNL     1       0.343  13.249  17.139  0.00  0.00    +0.000 HD
ATOM     17  H   UNL     1      -0.277  13.774  18.570  0.00  0.00    +0.000 HD
ENDBRANCH  13  15
ENDBRANCH   7  12
ENDBRANCH   1   7
BRANCH   4  18
ATOM     18  C   UNL     1       3.325   6.056  19.746  0.00  0.00    +0.000 C 
BRANCH  18  19
ATOM     19  C   UNL     1       2.601   4.743  19.482  0.00  0.00    +0.000 C 
BRANCH  19  20
ATOM     20  O   UNL     1       3.180   4.027  18.393  0.00  0.00    +0.000 OA
BRANCH  20  21
ATOM     21  P   UNL     1       4.910   4.088  18.424  0.00  0.00    +0.000 P 
ATOM     22  O   UNL     1       4.921   3.211  19.675  0.00  0.00    +0.000 OA
BRANCH  21  23
ATOM     23  O   UNL     1       4.968   3.131  17.107  0.00  0.00    +0.000 OA
ATOM     24  H   UNL     1       4.672   3.580  16.295  0.00  0.00    +0.000 HD
ENDBRANCH  21  23
BRANCH  21  25
ATOM     25  O   UNL     1       6.638   4.148  18.454  0.00  0.00    +0.000 OA
BRANCH  25  26
ATOM     26  P   UNL     1       7.183   5.518  17.548  0.00  0.00    +0.000 P 
ATOM     27  O   UNL     1       7.840   4.645  16.484  0.00  0.00    +0.000 OA
BRANCH  26  28
ATOM     28  O   UNL     1       5.674   5.749  16.979  0.00  0.00    +0.000 OA
ATOM     29  H   UNL     1       5.523   6.716  16.945  0.00  0.00    +0.000 HD
ENDBRANCH  26  28
BRANCH  26  30
ATOM     30  O   UNL     1       7.728   6.887  16.642  0.00  0.00    +0.000 OA
ATOM     31  H   UNL     1       6.898   7.266  16.282  0.00  0.00    +0.000 HD
ENDBRANCH  26  30
ENDBRANCH  25  26
ENDBRANCH  21  25
ENDBRANCH  20  21
ENDBRANCH  19  20
ENDBRANCH  18  19
ENDBRANCH   4  18
TORSDOF 12
ENDMDL
MODEL 4
REMARK VINA RESULT:      -6.6      1.259      1.684
REMARK  Name = 
REMARK  14 active torsions:
REMARK  status: ('A' for Active; 'I' for Inactive)
REMARK    1  A    between atoms: C_1  and  C_2
REMARK    2  A    between atoms: C_5  and  C_6
REMARK    3  A    between atoms: C_6  and  N_7
REMARK    4  A    between atoms: C_10  and  C_11
REMARK    5  A    between atoms: C_11  and  C_12
REMARK    6  A    between atoms: C_12  and  O_13
REMARK    7  A    between atoms: O_13  and  P_14
REMARK    8  A    between atoms: P_14  and  O_16
REMARK    9  A    between atoms: P_14  and  O_17
REMARK   10  A    between atoms: O_17  and  P_18
REMARK   11  A    between atoms: P_18  and  O_20
REMARK   12  A    between atoms: P_18  and  O_21
REMARK   13  A    between atoms: C_22  and  C_23
REMARK   14  A    between atoms: C_24  and  N_25
REMARK                            x       y       z     vdW  Elec       q    Type
REMARK                         _______ _______ _______ _____ _____    ______ ____
ROOT
ATOM      1  N   UNL     1       0.702  10.299  19.724  0.00  0.00    +0.000 N 
ATOM      2  C   UNL     1       0.504  10.313  21.032  0.00  0.00    +0.000 A 
ATOM      3  S   UNL     1       1.082   8.891  21.775  0.00  0.00    +0.000 S 
ATOM      4  C   UNL     1       1.527   8.215  20.257  0.00  0.00    +0.000 A 
ATOM      5  C   UNL     1       1.323   9.144  19.248  0.00  0.00    +0.000 A 
ATOM      6  C   UNL     1       1.651   9.023  17.804  0.00  0.00    +0.000 C 
ENDROOT
BRANCH   1   7
ATOM      7  C   UNL     1       0.132  11.367  18.883  0.00  0.00    +0.000 C 
BRANCH   7  12
ATOM      8  C   UNL     1      -5.432  11.043  17.751  0.00  0.00    +0.000 C 
ATOM      9  C   UNL     1      -3.993  11.069  18.160  0.00  0.00    +0.000 A 
ATOM     10  N   UNL     1      -3.197  10.104  17.681  0.00  0.00    +0.000 NA
ATOM     11  C   UNL     1      -1.889  10.217  17.962  0.00  0.00    +0.000 A 
ATOM     12  C   UNL     1      -1.347  11.239  18.712  0.00  0.00    +0.000 A 
ATOM     13  C   UNL     1      -2.255  12.173  19.166  0.00  0.00    +0.000 A 
ATOM     14  N   UNL     1      -3.569  12.094  18.921  0.00  0.00    +0.000 NA
BRANCH  13  15
ATOM     15  N   UNL     1      -1.863  13.308  19.880  0.00  0.00    +0.000 N 
ATOM     16  H   UNL     1      -2.386  14.126  19.568  0.00  0.00    +0.000 HD
ATOM     17  H   UNL     1      -2.138  13.121  20.848  0.00  0.00    +0.000 HD
ENDBRANCH  13  15
ENDBRANCH   7  12
ENDBRANCH   1   7
BRANCH   4  18
ATOM     18  C   UNL     1       1.990   6.786  20.209  0.00  0.00    +0.000 C 
BRANCH  18  19
ATOM     19  C   UNL     1       3.078   6.518  19.177  0.00  0.00    +0.000 C 
BRANCH  19  20
ATOM     20  O   UNL     1       4.050   5.593  19.659  0.00  0.00    +0.000 OA
BRANCH  20  21
ATOM     21  P   UNL     1       4.796   4.707  18.372  0.00  0.00    +0.000 P 
ATOM     22  O   UNL     1       5.032   6.009  17.608  0.00  0.00    +0.000 OA
BRANCH  21  23
ATOM     23  O   UNL     1       6.086   4.411  19.322  0.00  0.00    +0.000 OA
ATOM     24  H   UNL     1       6.934   4.491  18.849  0.00  0.00    +0.000 HD
ENDBRANCH  21  23
BRANCH  21  25
ATOM     25  O   UNL     1       5.541   3.821  17.087  0.00  0.00    +0.000 OA
BRANCH  25  26
ATOM     26  P   UNL     1       6.629   4.857  16.228  0.00  0.00    +0.000 P 
ATOM     27  O   UNL     1       7.844   4.330  16.984  0.00  0.00    +0.000 OA
BRANCH  26  28
ATOM     28  O   UNL     1       6.535   3.884  14.925  0.00  0.00    +0.000 OA
ATOM     29  H   UNL     1       6.803   4.416  14.147  0.00  0.00    +0.000 HD
ENDBRANCH  26  28
BRANCH  26  30
ATOM     30  O   UNL     1       7.717   5.893  15.369  0.00  0.00    +0.000 OA
ATOM     31  H   UNL     1       8.432   5.284  15.084  0.00  0.00    +0.000 HD
ENDBRANCH  26  30
ENDBRANCH  25  26
ENDBRANCH  21  25
ENDBRANCH  20  21
ENDBRANCH  19  20
ENDBRANCH  18  19
ENDBRANCH   4  18
TORSDOF 12
ENDMDL
MODEL 5
REMARK VINA RESULT:      -6.6      6.639      8.450
REMARK  Name = 
REMARK  14 active torsions:
REMARK  status: ('A' for Active; 'I' for Inactive)
REMARK    1  A    between atoms: C_1  and  C_2
REMARK    2  A    between atoms: C_5  and  C_6
REMARK    3  A    between atoms: C_6  and  N_7
REMARK    4  A    between atoms: C_10  and  C_11
REMARK    5  A    between atoms: C_11  and  C_12
REMARK    6  A    between atoms: C_12  and  O_13
REMARK    7  A    between atoms: O_13  and  P_14
REMARK    8  A    between atoms: P_14  and  O_16
REMARK    9  A    between atoms: P_14  and  O_17
REMARK   10  A    between atoms: O_17  and  P_18
REMARK   11  A    between atoms: P_18  and  O_20
REMARK   12  A    between atoms: P_18  and  O_21
REMARK   13  A    between atoms: C_22  and  C_23
REMARK   14  A    between atoms: C_24  and  N_25
REMARK                            x       y       z     vdW  Elec       q    Type
REMARK                         _______ _______ _______ _____ _____    ______ ____
ROOT
ATOM      1  N   UNL     1       5.643   5.043  17.704  0.00  0.00    +0.000 N 
ATOM      2  C   UNL     1       6.425   4.697  18.714  0.00  0.00    +0.000 A 
ATOM      3  S   UNL     1       7.663   5.842  18.977  0.00  0.00    +0.000 S 
ATOM      4  C   UNL     1       7.160   6.776  17.623  0.00  0.00    +0.000 A 
ATOM      5  C   UNL     1       5.998   6.242  17.086  0.00  0.00    +0.000 A 
ATOM      6  C   UNL     1       5.171   6.771  15.971  0.00  0.00    +0.000 C 
ENDROOT
BRANCH   1   7
ATOM      7  C   UNL     1       4.613   4.107  17.220  0.00  0.00    +0.000 C 
BRANCH   7  12
ATOM      8  C   UNL     1       1.262   2.772  21.617  0.00  0.00    +0.000 C 
ATOM      9  C   UNL     1       2.043   3.102  20.384  0.00  0.00    +0.000 A 
ATOM     10  N   UNL     1       2.170   4.396  20.061  0.00  0.00    +0.000 NA
ATOM     11  C   UNL     1       2.975   4.674  19.022  0.00  0.00    +0.000 A 
ATOM     12  C   UNL     1       3.641   3.717  18.285  0.00  0.00    +0.000 A 
ATOM     13  C   UNL     1       3.431   2.417  18.694  0.00  0.00    +0.000 A 
ATOM     14  N   UNL     1       2.629   2.092  19.716  0.00  0.00    +0.000 NA
BRANCH  13  15
ATOM     15  N   UNL     1       4.086   1.335  18.100  0.00  0.00    +0.000 N 
ATOM     16  H   UNL     1       3.651   1.099  17.209  0.00  0.00    +0.000 HD
ATOM     17  H   UNL     1       5.030   1.674  17.900  0.00  0.00    +0.000 HD
ENDBRANCH  13  15
ENDBRANCH   7  12
ENDBRANCH   1   7
BRANCH   4  18
ATOM     18  C   UNL     1       8.013   7.933  17.184  0.00  0.00    +0.000 C 
BRANCH  18  19
ATOM     19  C   UNL     1       7.801   9.206  17.993  0.00  0.00    +0.000 C 
BRANCH  19  20
ATOM     20  O   UNL     1       8.934   9.516  18.802  0.00  0.00    +0.000 OA
BRANCH  20  21
ATOM     21  P   UNL     1       9.286  11.210  18.801  0.00  0.00    +0.000 P 
ATOM     22  O   UNL     1       9.999  11.066  20.145  0.00  0.00    +0.000 OA
BRANCH  21  23
ATOM     23  O   UNL     1      10.367  10.987  17.603  0.00  0.00    +0.000 OA
ATOM     24  H   UNL     1      10.760  10.096  17.605  0.00  0.00    +0.000 HD
ENDBRANCH  21  23
BRANCH  21  25
ATOM     25  O   UNL     1       9.639  12.904  18.800  0.00  0.00    +0.000 OA
BRANCH  25  26
ATOM     26  P   UNL     1       8.236  13.784  18.297  0.00  0.00    +0.000 P 
ATOM     27  O   UNL     1       9.060  14.990  17.859  0.00  0.00    +0.000 OA
BRANCH  26  28
ATOM     28  O   UNL     1       8.140  12.873  16.950  0.00  0.00    +0.000 OA
ATOM     29  H   UNL     1       7.723  13.426  16.256  0.00  0.00    +0.000 HD
ENDBRANCH  26  28
BRANCH  26  30
ATOM     30  O   UNL     1       6.834  14.664  17.795  0.00  0.00    +0.000 OA
ATOM     31  H   UNL     1       6.316  14.759  18.623  0.00  0.00    +0.000 HD
ENDBRANCH  26  30
ENDBRANCH  25  26
ENDBRANCH  21  25
ENDBRANCH  20  21
ENDBRANCH  19  20
ENDBRANCH  18  19
ENDBRANCH   4  18
TORSDOF 12
ENDMDL
MODEL 6
REMARK VINA RESULT:      -6.5      2.559      3.818
REMARK  Name = 
REMARK  14 active torsions:
REMARK  status: ('A' for Active; 'I' for Inactive)
REMARK    1  A    between atoms: C_1  and  C_2
REMARK    2  A    between atoms: C_5  and  C_6
REMARK    3  A    between atoms: C_6  and  N_7
REMARK    4  A    between atoms: C_10  and  C_11
REMARK    5  A    between atoms: C_11  and  C_12
REMARK    6  A    between atoms: C_12  and  O_13
REMARK    7  A    between atoms: O_13  and  P_14
REMARK    8  A    between atoms: P_14  and  O_16
REMARK    9  A    between atoms: P_14  and  O_17
REMARK   10  A    between atoms: O_17  and  P_18
REMARK   11  A    between atoms: P_18  and  O_20
REMARK   12  A    between atoms: P_18  and  O_21
REMARK   13  A    between atoms: C_22  and  C_23
REMARK   14  A    between atoms: C_24  and  N_25
REMARK                            x       y       z     vdW  Elec       q    Type
REMARK                         _______ _______ _______ _____ _____    ______ ____
ROOT
ATOM      1  N   UNL     1       0.683  10.690  19.827  0.00  0.00    +0.000 N 
ATOM      2  C   UNL     1       1.123  10.644  18.580  0.00  0.00    +0.000 A 
ATOM      3  S   UNL     1       1.749   9.107  18.186  0.00  0.00    +0.000 S 
ATOM      4  C   UNL     1       1.489   8.531  19.786  0.00  0.00    +0.000 A 
ATOM      5  C   UNL     1       0.830   9.497  20.534  0.00  0.00    +0.000 A 
ATOM      6  C   UNL     1       0.329   9.397  21.929  0.00  0.00    +0.000 C 
ENDROOT
BRANCH   1   7
ATOM      7  C   UNL     1       0.250  11.975  20.406  0.00  0.00    +0.000 C 
BRANCH   7  12
ATOM      8  C   UNL     1       3.323  16.580  19.104  0.00  0.00    +0.000 C 
ATOM      9  C   UNL     1       2.563  15.313  19.342  0.00  0.00    +0.000 A 
ATOM     10  N   UNL     1       3.090  14.427  20.197  0.00  0.00    +0.000 NA
ATOM     11  C   UNL     1       2.333  13.356  20.487  0.00  0.00    +0.000 A 
ATOM     12  C   UNL     1       1.085  13.125  19.946  0.00  0.00    +0.000 A 
ATOM     13  C   UNL     1       0.643  14.092  19.069  0.00  0.00    +0.000 A 
ATOM     14  N   UNL     1       1.368  15.170  18.741  0.00  0.00    +0.000 NA
BRANCH  13  15
ATOM     15  N   UNL     1      -0.627  14.047  18.488  0.00  0.00    +0.000 N 
ATOM     16  H   UNL     1      -0.572  13.692  17.534  0.00  0.00    +0.000 HD
ATOM     17  H   UNL     1      -1.146  13.358  19.039  0.00  0.00    +0.000 HD
ENDBRANCH  13  15
ENDBRANCH   7  12
ENDBRANCH   1   7
BRANCH   4  18
ATOM     18  C   UNL     1       2.023   7.179  20.166  0.00  0.00    +0.000 C 
BRANCH  18  19
ATOM     19  C   UNL     1       2.901   6.535  19.102  0.00  0.00    +0.000 C 
BRANCH  19  20
ATOM     20  O   UNL     1       3.084   5.140  19.337  0.00  0.00    +0.000 OA
BRANCH  20  21
ATOM     21  P   UNL     1       4.702   4.631  18.991  0.00  0.00    +0.000 P 
ATOM     22  O   UNL     1       4.166   3.346  18.360  0.00  0.00    +0.000 OA
BRANCH  21  23
ATOM     23  O   UNL     1       4.818   5.776  17.839  0.00  0.00    +0.000 OA
ATOM     24  H   UNL     1       5.148   6.628  18.179  0.00  0.00    +0.000 HD
ENDBRANCH  21  23
BRANCH  21  25
ATOM     25  O   UNL     1       6.318   4.123  18.645  0.00  0.00    +0.000 OA
BRANCH  25  26
ATOM     26  P   UNL     1       6.842   4.836  17.159  0.00  0.00    +0.000 P 
ATOM     27  O   UNL     1       8.236   4.229  17.272  0.00  0.00    +0.000 OA
BRANCH  26  28
ATOM     28  O   UNL     1       6.003   3.719  16.320  0.00  0.00    +0.000 OA
ATOM     29  H   UNL     1       5.674   4.154  15.507  0.00  0.00    +0.000 HD
ENDBRANCH  26  28
BRANCH  26  30
ATOM     30  O   UNL     1       7.365   5.549  15.672  0.00  0.00    +0.000 OA
ATOM     31  H   UNL     1       6.894   6.410  15.654  0.00  0.00    +0.000 HD
ENDBRANCH  26  30
ENDBRANCH  25  26
ENDBRANCH  21  25
ENDBRANCH  20  21
ENDBRANCH  19  20
ENDBRANCH  18  19
ENDBRANCH   4  18
TORSDOF 12
ENDMDL
MODEL 7
REMARK VINA RESULT:      -6.5      0.723      1.194
REMARK  Name = 
REMARK  14 active torsions:
REMARK  status: ('A' for Active; 'I' for Inactive)
REMARK    1  A    between atoms: C_1  and  C_2
REMARK    2  A    between atoms: C_5  and  C_6
REMARK    3  A    between atoms: C_6  and  N_7
REMARK    4  A    between atoms: C_10  and  C_11
REMARK    5  A    between atoms: C_11  and  C_12
REMARK    6  A    between atoms: C_12  and  O_13
REMARK    7  A    between atoms: O_13  and  P_14
REMARK    8  A    between atoms: P_14  and  O_16
REMARK    9  A    between atoms: P_14  and  O_17
REMARK   10  A    between atoms: O_17  and  P_18
REMARK   11  A    between atoms: P_18  and  O_20
REMARK   12  A    between atoms: P_18  and  O_21
REMARK   13  A    between atoms: C_22  and  C_23
REMARK   14  A    between atoms: C_24  and  N_25
REMARK                            x       y       z     vdW  Elec       q    Type
REMARK                         _______ _______ _______ _____ _____    ______ ____
ROOT
ATOM      1  N   UNL     1       1.088   9.636  19.463  0.00  0.00    +0.000 N 
ATOM      2  C   UNL     1       0.617   9.598  20.699  0.00  0.00    +0.000 A 
ATOM      3  S   UNL     1       1.059   8.159  21.501  0.00  0.00    +0.000 S 
ATOM      4  C   UNL     1       1.833   7.548  20.092  0.00  0.00    +0.000 A 
ATOM      5  C   UNL     1       1.825   8.511  19.093  0.00  0.00    +0.000 A 
ATOM      6  C   UNL     1       2.455   8.448  17.750  0.00  0.00    +0.000 C 
ENDROOT
BRANCH   1   7
ATOM      7  C   UNL     1       0.684  10.724  18.556  0.00  0.00    +0.000 C 
BRANCH   7  12
ATOM      8  C   UNL     1      -4.851  11.183  17.331  0.00  0.00    +0.000 C 
ATOM      9  C   UNL     1      -3.429  10.990  17.754  0.00  0.00    +0.000 A 
ATOM     10  N   UNL     1      -2.727  10.027  17.141  0.00  0.00    +0.000 NA
ATOM     11  C   UNL     1      -1.422   9.954  17.449  0.00  0.00    +0.000 A 
ATOM     12  C   UNL     1      -0.795  10.786  18.353  0.00  0.00    +0.000 A 
ATOM     13  C   UNL     1      -1.611  11.734  18.935  0.00  0.00    +0.000 A 
ATOM     14  N   UNL     1      -2.919  11.836  18.667  0.00  0.00    +0.000 NA
BRANCH  13  15
ATOM     15  N   UNL     1      -1.120  12.699  19.817  0.00  0.00    +0.000 N 
ATOM     16  H   UNL     1      -1.536  13.609  19.621  0.00  0.00    +0.000 HD
ATOM     17  H   UNL     1      -1.449  12.406  20.741  0.00  0.00    +0.000 HD
ENDBRANCH  13  15
ENDBRANCH   7  12
ENDBRANCH   1   7
BRANCH   4  18
ATOM     18  C   UNL     1       2.331   6.130  20.097  0.00  0.00    +0.000 C 
BRANCH  18  19
ATOM     19  C   UNL     1       2.038   5.362  18.814  0.00  0.00    +0.000 C 
BRANCH  19  20
ATOM     20  O   UNL     1       3.015   4.355  18.564  0.00  0.00    +0.000 OA
BRANCH  20  21
ATOM     21  P   UNL     1       4.360   4.966  17.663  0.00  0.00    +0.000 P 
ATOM     22  O   UNL     1       5.321   4.414  18.715  0.00  0.00    +0.000 OA
BRANCH  21  23
ATOM     23  O   UNL     1       4.116   3.830  16.522  0.00  0.00    +0.000 OA
ATOM     24  H   UNL     1       3.464   3.156  16.788  0.00  0.00    +0.000 HD
ENDBRANCH  21  23
BRANCH  21  25
ATOM     25  O   UNL     1       5.704   5.578  16.762  0.00  0.00    +0.000 OA
BRANCH  25  26
ATOM     26  P   UNL     1       7.151   4.776  17.269  0.00  0.00    +0.000 P 
ATOM     27  O   UNL     1       7.745   4.801  15.865  0.00  0.00    +0.000 OA
BRANCH  26  28
ATOM     28  O   UNL     1       7.690   6.160  17.939  0.00  0.00    +0.000 OA
ATOM     29  H   UNL     1       8.106   5.924  18.794  0.00  0.00    +0.000 HD
ENDBRANCH  26  28
BRANCH  26  30
ATOM     30  O   UNL     1       8.598   3.975  17.776  0.00  0.00    +0.000 OA
ATOM     31  H   UNL     1       8.379   3.023  17.674  0.00  0.00    +0.000 HD
ENDBRANCH  26  30
ENDBRANCH  25  26
ENDBRANCH  21  25
ENDBRANCH  20  21
ENDBRANCH  19  20
ENDBRANCH  18  19
ENDBRANCH   4  18
TORSDOF 12
ENDMDL
MODEL 8
REMARK VINA RESULT:      -6.5      6.856      8.652
REMARK  Name = 
REMARK  14 active torsions:
REMARK  status: ('A' for Active; 'I' for Inactive)
REMARK    1  A    between atoms: C_1  and  C_2
REMARK    2  A    between atoms: C_5  and  C_6
REMARK    3  A    between atoms: C_6  and  N_7
REMARK    4  A    between atoms: C_10  and  C_11
REMARK    5  A    between atoms: C_11  and  C_12
REMARK    6  A    between atoms: C_12  and  O_13
REMARK    7  A    between atoms: O_13  and  P_14
REMARK    8  A    between atoms: P_14  and  O_16
REMARK    9  A    between atoms: P_14  and  O_17
REMARK   10  A    between atoms: O_17  and  P_18
REMARK   11  A    between atoms: P_18  and  O_20
REMARK   12  A    between atoms: P_18  and  O_21
REMARK   13  A    between atoms: C_22  and  C_23
REMARK   14  A    between atoms: C_24  and  N_25
REMARK                            x       y       z     vdW  Elec       q    Type
REMARK                         _______ _______ _______ _____ _____    ______ ____
ROOT
ATOM      1  N   UNL     1       5.873   5.169  17.806  0.00  0.00    +0.000 N 
ATOM      2  C   UNL     1       6.859   4.830  18.621  0.00  0.00    +0.000 A 
ATOM      3  S   UNL     1       7.924   6.133  18.901  0.00  0.00    +0.000 S 
ATOM      4  C   UNL     1       7.058   7.146  17.814  0.00  0.00    +0.000 A 
ATOM      5  C   UNL     1       5.922   6.490  17.361  0.00  0.00    +0.000 A 
ATOM      6  C   UNL     1       4.845   7.014  16.483  0.00  0.00    +0.000 C 
ENDROOT
BRANCH   1   7
ATOM      7  C   UNL     1       4.939   4.140  17.317  0.00  0.00    +0.000 C 
BRANCH   7  12
ATOM      8  C   UNL     1       1.366   2.805  21.535  0.00  0.00    +0.000 C 
ATOM      9  C   UNL     1       2.205   3.152  20.346  0.00  0.00    +0.000 A 
ATOM     10  N   UNL     1       2.473   4.448  20.135  0.00  0.00    +0.000 NA
ATOM     11  C   UNL     1       3.326   4.725  19.136  0.00  0.00    +0.000 A 
ATOM     12  C   UNL     1       3.907   3.767  18.331  0.00  0.00    +0.000 A 
ATOM     13  C   UNL     1       3.555   2.467  18.625  0.00  0.00    +0.000 A 
ATOM     14  N   UNL     1       2.699   2.145  19.604  0.00  0.00    +0.000 NA
BRANCH  13  15
ATOM     15  N   UNL     1       4.107   1.374  17.952  0.00  0.00    +0.000 N 
ATOM     16  H   UNL     1       5.111   1.320  18.122  0.00  0.00    +0.000 HD
ATOM     17  H   UNL     1       3.679   0.552  18.385  0.00  0.00    +0.000 HD
ENDBRANCH  13  15
ENDBRANCH   7  12
ENDBRANCH   1   7
BRANCH   4  18
ATOM     18  C   UNL     1       7.629   8.492  17.467  0.00  0.00    +0.000 C 
BRANCH  18  19
ATOM     19  C   UNL     1       8.611   9.036  18.495  0.00  0.00    +0.000 C 
BRANCH  19  20
ATOM     20  O   UNL     1       9.347  10.148  17.990  0.00  0.00    +0.000 OA
BRANCH  20  21
ATOM     21  P   UNL     1       9.549  11.387  19.181  0.00  0.00    +0.000 P 
ATOM     22  O   UNL     1       9.183  10.393  20.282  0.00  0.00    +0.000 OA
BRANCH  21  23
ATOM     23  O   UNL     1      11.160  11.350  18.949  0.00  0.00    +0.000 OA
ATOM     24  H   UNL     1      11.567  10.512  19.233  0.00  0.00    +0.000 HD
ENDBRANCH  21  23
BRANCH  21  25
ATOM     25  O   UNL     1       9.750  12.626  20.370  0.00  0.00    +0.000 OA
BRANCH  25  26
ATOM     26  P   UNL     1       9.772  14.173  19.594  0.00  0.00    +0.000 P 
ATOM     27  O   UNL     1      11.296  14.227  19.582  0.00  0.00    +0.000 OA
BRANCH  26  28
ATOM     28  O   UNL     1       9.401  13.471  18.172  0.00  0.00    +0.000 OA
ATOM     29  H   UNL     1       8.436  13.302  18.176  0.00  0.00    +0.000 HD
ENDBRANCH  26  28
BRANCH  26  30
ATOM     30  O   UNL     1       9.794  15.719  18.819  0.00  0.00    +0.000 OA
ATOM     31  H   UNL     1       9.198  16.262  19.378  0.00  0.00    +0.000 HD
ENDBRANCH  26  30
ENDBRANCH  25  26
ENDBRANCH  21  25
ENDBRANCH  20  21
ENDBRANCH  19  20
ENDBRANCH  18  19
ENDBRANCH   4  18
TORSDOF 12
ENDMDL
MODEL 9
REMARK VINA RESULT:      -6.4      1.578      2.292
REMARK  Name = 
REMARK  14 active torsions:
REMARK  status: ('A' for Active; 'I' for Inactive)
REMARK    1  A    between atoms: C_1  and  C_2
REMARK    2  A    between atoms: C_5  and  C_6
REMARK    3  A    between atoms: C_6  and  N_7
REMARK    4  A    between atoms: C_10  and  C_11
REMARK    5  A    between atoms: C_11  and  C_12
REMARK    6  A    between atoms: C_12  and  O_13
REMARK    7  A    between atoms: O_13  and  P_14
REMARK    8  A    between atoms: P_14  and  O_16
REMARK    9  A    between atoms: P_14  and  O_17
REMARK   10  A    between atoms: O_17  and  P_18
REMARK   11  A    between atoms: P_18  and  O_20
REMARK   12  A    between atoms: P_18  and  O_21
REMARK   13  A    between atoms: C_22  and  C_23
REMARK   14  A    between atoms: C_24  and  N_25
REMARK                            x       y       z     vdW  Elec       q    Type
REMARK                         _______ _______ _______ _____ _____    ______ ____
ROOT
ATOM      1  N   UNL     1       1.498   9.255  19.073  0.00  0.00    +0.000 N 
ATOM      2  C   UNL     1       2.111   9.077  17.914  0.00  0.00    +0.000 A 
ATOM      3  S   UNL     1       2.831   7.534  17.810  0.00  0.00    +0.000 S 
ATOM      4  C   UNL     1       2.365   7.148  19.420  0.00  0.00    +0.000 A 
ATOM      5  C   UNL     1       1.579   8.166  19.941  0.00  0.00    +0.000 A 
ATOM      6  C   UNL     1       0.890   8.215  21.255  0.00  0.00    +0.000 C 
ENDROOT
BRANCH   1   7
ATOM      7  C   UNL     1       0.950  10.579  19.418  0.00  0.00    +0.000 C 
BRANCH   7  12
ATOM      8  C   UNL     1      -3.988  11.261  16.681  0.00  0.00    +0.000 C 
ATOM      9  C   UNL     1      -2.746  11.129  17.505  0.00  0.00    +0.000 A 
ATOM     10  N   UNL     1      -2.488   9.931  18.047  0.00  0.00    +0.000 NA
ATOM     11  C   UNL     1      -1.310   9.805  18.678  0.00  0.00    +0.000 A 
ATOM     12  C   UNL     1      -0.390  10.825  18.807  0.00  0.00    +0.000 A 
ATOM     13  C   UNL     1      -0.760  12.019  18.224  0.00  0.00    +0.000 A 
ATOM     14  N   UNL     1      -1.929  12.195  17.595  0.00  0.00    +0.000 NA
BRANCH  13  15
ATOM     15  N   UNL     1       0.085  13.131  18.202  0.00  0.00    +0.000 N 
ATOM     16  H   UNL     1       0.202  13.511  19.141  0.00  0.00    +0.000 HD
ATOM     17  H   UNL     1       0.994  12.767  17.905  0.00  0.00    +0.000 HD
ENDBRANCH  13  15
ENDBRANCH   7  12
ENDBRANCH   1   7
BRANCH   4  18
ATOM     18  C   UNL     1       2.880   5.879  20.039  0.00  0.00    +0.000 C 
BRANCH  18  19
ATOM     19  C   UNL     1       4.254   5.455  19.539  0.00  0.00    +0.000 C 
BRANCH  19  20
ATOM     20  O   UNL     1       4.254   4.111  19.062  0.00  0.00    +0.000 OA
BRANCH  20  21
ATOM     21  P   UNL     1       4.511   4.030  17.352  0.00  0.00    +0.000 P 
ATOM     22  O   UNL     1       5.926   4.576  17.535  0.00  0.00    +0.000 OA
BRANCH  21  23
ATOM     23  O   UNL     1       4.557   2.404  17.434  0.00  0.00    +0.000 OA
ATOM     24  H   UNL     1       4.190   2.054  18.265  0.00  0.00    +0.000 HD
ENDBRANCH  21  23
BRANCH  21  25
ATOM     25  O   UNL     1       4.767   3.949  15.643  0.00  0.00    +0.000 OA
BRANCH  25  26
ATOM     26  P   UNL     1       6.289   4.673  15.254  0.00  0.00    +0.000 P 
ATOM     27  O   UNL     1       6.302   4.069  13.854  0.00  0.00    +0.000 OA
BRANCH  26  28
ATOM     28  O   UNL     1       5.557   6.113  15.044  0.00  0.00    +0.000 OA
ATOM     29  H   UNL     1       6.249   6.803  15.117  0.00  0.00    +0.000 HD
ENDBRANCH  26  28
BRANCH  26  30
ATOM     30  O   UNL     1       7.811   5.397  14.864  0.00  0.00    +0.000 OA
ATOM     31  H   UNL     1       7.671   5.749  13.958  0.00  0.00    +0.000 HD
ENDBRANCH  26  30
ENDBRANCH  25  26
ENDBRANCH  21  25
ENDBRANCH  20  21
ENDBRANCH  19  20
ENDBRANCH  18  19
ENDBRANCH   4  18
TORSDOF 12
ENDMDL
