MODEL 1
REMARK VINA RESULT:      -7.9      0.000      0.000
REMARK  Name = 
REMARK  6 active torsions:
REMARK  status: ('A' for Active; 'I' for Inactive)
REMARK    1  A    between atoms: C_1  and  N_2
REMARK    2  A    between atoms: N_2  and  C_20
REMARK    3  A    between atoms: C_6  and  C_7
REMARK    4  A    between atoms: N_9  and  C_10
REMARK    5  A    between atoms: C_10  and  C_11
REMARK    6  A    between atoms: C_17  and  N_18
REMARK                            x       y       z     vdW  Elec       q    Type
REMARK                         _______ _______ _______ _____ _____    ______ ____
ROOT
ATOM      1  C   UNL     1       4.245   5.501  17.105  0.00  0.00    +0.000 C 
ATOM      2  N   UNL     1       3.668   5.679  18.424  0.00  0.00    +0.000 N 
ATOM      3  C   UNL     1       2.955   6.853  18.655  0.00  0.00    +0.000 A 
ATOM      4  N   UNL     1       2.771   7.744  17.667  0.00  0.00    +0.000 NA
ATOM      5  C   UNL     1       2.045   8.855  17.945  0.00  0.00    +0.000 A 
ATOM      6  C   UNL     1       1.491   9.118  19.175  0.00  0.00    +0.000 A 
ATOM      7  C   UNL     1       1.767   8.175  20.143  0.00  0.00    +0.000 A 
ATOM      8  N   UNL     1       2.467   7.058  19.890  0.00  0.00    +0.000 NA
ENDROOT
BRANCH   2   9
ATOM      9  C   UNL     1       3.384   4.545  19.332  0.00  0.00    +0.000 C 
ATOM     10  C   UNL     1       1.888   4.183  19.390  0.00  0.00    +0.000 C 
ATOM     11  C   UNL     1       1.404   3.461  18.140  0.00  0.00    +0.000 C 
ATOM     12  C   UNL     1       2.214   2.198  17.872  0.00  0.00    +0.000 C 
ATOM     13  C   UNL     1       3.723   2.422  17.884  0.00  0.00    +0.000 C 
ATOM     14  C   UNL     1       4.210   3.275  19.056  0.00  0.00    +0.000 C 
ENDBRANCH   2   9
BRANCH   6  15
ATOM     15  C   UNL     1       0.694  10.348  19.386  0.00  0.00    +0.000 C 
ATOM     16  O   UNL     1       0.718  10.912  20.474  0.00  0.00    +0.000 OA
ATOM     17  N   UNL     1      -0.041  10.801  18.312  0.00  0.00    +0.000 N 
ATOM     18  H   UNL     1       0.096  10.355  17.408  0.00  0.00    +0.000 HD
BRANCH  17  19
ATOM     19  C   UNL     1      -0.852  11.995  18.368  0.00  0.00    +0.000 C 
BRANCH  19  20
ATOM     20  C   UNL     1      -2.278  11.702  17.973  0.00  0.00    +0.000 A 
ATOM     21  C   UNL     1      -3.334  11.981  18.854  0.00  0.00    +0.000 A 
ATOM     22  C   UNL     1      -4.655  11.708  18.491  0.00  0.00    +0.000 A 
ATOM     23  C   UNL     1      -4.937  11.145  17.248  0.00  0.00    +0.000 A 
ATOM     24  C   UNL     1      -3.897  10.852  16.369  0.00  0.00    +0.000 A 
ATOM     25  C   UNL     1      -2.574  11.123  16.731  0.00  0.00    +0.000 A 
ENDBRANCH  19  20
ENDBRANCH  17  19
ENDBRANCH   6  15
BRANCH   7  26
ATOM     26  N   UNL     1       1.331   8.277  21.468  0.00  0.00    +0.000 N 
ATOM     27  H   UNL     1       0.914   7.401  21.778  0.00  0.00    +0.000 HD
ATOM     28  H   UNL     1       0.641   9.029  21.482  0.00  0.00    +0.000 HD
ENDBRANCH   7  26
TORSDOF 5
ENDMDL
MODEL 2
REMARK VINA RESULT:      -7.8      0.723      1.191
REMARK  Name = 
REMARK  6 active torsions:
REMARK  status: ('A' for Active; 'I' for Inactive)
REMARK    1  A    between atoms: C_1  and  N_2
REMARK    2  A    between atoms: N_2  and  C_20
REMARK    3  A    between atoms: C_6  and  C_7
REMARK    4  A    between atoms: N_9  and  C_10
REMARK    5  A    between atoms: C_10  and  C_11
REMARK    6  A    between atoms: C_17  and  N_18
REMARK                            x       y       z     vdW  Elec       q    Type
REMARK                         _______ _______ _______ _____ _____    ______ ____
ROOT
ATOM      1  C   UNL     1       3.988   4.937  17.471  0.00  0.00    +0.000 C 
ATOM      2  N   UNL     1       3.477   5.303  18.779  0.00  0.00    +0.000 N 
ATOM      3  C   UNL     1       2.835   6.534  18.891  0.00  0.00    +0.000 A 
ATOM      4  N   UNL     1       2.655   7.310  17.810  0.00  0.00    +0.000 NA
ATOM      5  C   UNL     1       1.999   8.485  17.976  0.00  0.00    +0.000 A 
ATOM      6  C   UNL     1       1.511   8.923  19.184  0.00  0.00    +0.000 A 
ATOM      7  C   UNL     1       1.780   8.089  20.249  0.00  0.00    +0.000 A 
ATOM      8  N   UNL     1       2.411   6.912  20.109  0.00  0.00    +0.000 NA
ENDROOT
BRANCH   2   9
ATOM      9  C   UNL     1       3.174   4.303  19.828  0.00  0.00    +0.000 C 
ATOM     10  C   UNL     1       1.672   3.977  19.930  0.00  0.00    +0.000 C 
ATOM     11  C   UNL     1       1.176   3.105  18.785  0.00  0.00    +0.000 C 
ATOM     12  C   UNL     1       1.965   1.805  18.686  0.00  0.00    +0.000 C 
ATOM     13  C   UNL     1       3.477   2.003  18.672  0.00  0.00    +0.000 C 
ATOM     14  C   UNL     1       3.979   2.995  19.723  0.00  0.00    +0.000 C 
ENDBRANCH   2   9
BRANCH   6  15
ATOM     15  C   UNL     1       0.788  10.212  19.273  0.00  0.00    +0.000 C 
ATOM     16  O   UNL     1       1.417  11.263  19.328  0.00  0.00    +0.000 OA
ATOM     17  N   UNL     1      -0.588  10.149  19.280  0.00  0.00    +0.000 N 
ATOM     18  H   UNL     1      -1.034   9.254  19.097  0.00  0.00    +0.000 HD
BRANCH  17  19
ATOM     19  C   UNL     1      -1.423  11.326  19.347  0.00  0.00    +0.000 C 
BRANCH  19  20
ATOM     20  C   UNL     1      -2.480  11.304  18.272  0.00  0.00    +0.000 A 
ATOM     21  C   UNL     1      -2.156  10.917  16.962  0.00  0.00    +0.000 A 
ATOM     22  C   UNL     1      -3.133  10.898  15.963  0.00  0.00    +0.000 A 
ATOM     23  C   UNL     1      -4.442  11.273  16.258  0.00  0.00    +0.000 A 
ATOM     24  C   UNL     1      -4.774  11.671  17.551  0.00  0.00    +0.000 A 
ATOM     25  C   UNL     1      -3.798  11.692  18.552  0.00  0.00    +0.000 A 
ENDBRANCH  19  20
ENDBRANCH  17  19
ENDBRANCH   6  15
BRANCH   7  26
ATOM     26  N   UNL     1       1.406   8.372  21.567  0.00  0.00    +0.000 N 
ATOM     27  H   UNL     1       1.727   7.639  22.198  0.00  0.00    +0.000 HD
ATOM     28  H   UNL     1       0.387   8.425  21.566  0.00  0.00    +0.000 HD
ENDBRANCH   7  26
TORSDOF 5
ENDMDL
MODEL 3
REMARK VINA RESULT:      -7.6      0.846      1.360
REMARK  Name = 
REMARK  6 active torsions:
REMARK  status: ('A' for Active; 'I' for Inactive)
REMARK    1  A    between atoms: C_1  and  N_2
REMARK    2  A    between atoms: N_2  and  C_20
REMARK    3  A    between atoms: C_6  and  C_7
REMARK    4  A    between atoms: N_9  and  C_10
REMARK    5  A    between atoms: C_10  and  C_11
REMARK    6  A    between atoms: C_17  and  N_18
REMARK                            x       y       z     vdW  Elec       q    Type
REMARK                         _______ _______ _______ _____ _____    ______ ____
ROOT
ATOM      1  C   UNL     1       3.501   4.940  17.570  0.00  0.00    +0.000 C 
ATOM      2  N   UNL     1       3.064   5.330  18.897  0.00  0.00    +0.000 N 
ATOM      3  C   UNL     1       2.537   6.611  19.044  0.00  0.00    +0.000 A 
ATOM      4  N   UNL     1       2.396   7.416  17.979  0.00  0.00    +0.000 NA
ATOM      5  C   UNL     1       1.852   8.642  18.180  0.00  0.00    +0.000 A 
ATOM      6  C   UNL     1       1.441   9.103  19.408  0.00  0.00    +0.000 A 
ATOM      7  C   UNL     1       1.666   8.232  20.454  0.00  0.00    +0.000 A 
ATOM      8  N   UNL     1       2.185   7.006  20.279  0.00  0.00    +0.000 NA
ENDROOT
BRANCH   2   9
ATOM      9  C   UNL     1       2.704   4.345  19.941  0.00  0.00    +0.000 C 
ATOM     10  C   UNL     1       1.221   3.932  19.891  0.00  0.00    +0.000 C 
ATOM     11  C   UNL     1       0.905   2.998  18.731  0.00  0.00    +0.000 C 
ATOM     12  C   UNL     1       1.772   1.745  18.765  0.00  0.00    +0.000 C 
ATOM     13  C   UNL     1       3.263   2.034  18.909  0.00  0.00    +0.000 C 
ATOM     14  C   UNL     1       3.588   3.085  19.972  0.00  0.00    +0.000 C 
ENDBRANCH   2   9
BRANCH   6  15
ATOM     15  C   UNL     1       0.839  10.449  19.535  0.00  0.00    +0.000 C 
ATOM     16  O   UNL     1       0.934  11.064  20.592  0.00  0.00    +0.000 OA
ATOM     17  N   UNL     1       0.195  10.947  18.423  0.00  0.00    +0.000 N 
ATOM     18  H   UNL     1       0.275  10.435  17.547  0.00  0.00    +0.000 HD
BRANCH  17  19
ATOM     19  C   UNL     1      -0.425  12.251  18.397  0.00  0.00    +0.000 C 
BRANCH  19  20
ATOM     20  C   UNL     1      -1.907  12.152  18.656  0.00  0.00    +0.000 A 
ATOM     21  C   UNL     1      -2.759  11.568  17.706  0.00  0.00    +0.000 A 
ATOM     22  C   UNL     1      -4.133  11.478  17.942  0.00  0.00    +0.000 A 
ATOM     23  C   UNL     1      -4.674  11.977  19.125  0.00  0.00    +0.000 A 
ATOM     24  C   UNL     1      -3.841  12.569  20.071  0.00  0.00    +0.000 A 
ATOM     25  C   UNL     1      -2.466  12.662  19.836  0.00  0.00    +0.000 A 
ENDBRANCH  19  20
ENDBRANCH  17  19
ENDBRANCH   6  15
BRANCH   7  26
ATOM     26  N   UNL     1       1.357   8.527  21.786  0.00  0.00    +0.000 N 
ATOM     27  H   UNL     1       2.104   9.069  22.217  0.00  0.00    +0.000 HD
ATOM     28  H   UNL     1       1.247   7.628  22.256  0.00  0.00    +0.000 HD
ENDBRANCH   7  26
TORSDOF 5
ENDMDL
MODEL 4
REMARK VINA RESULT:      -7.4      6.030      9.272
REMARK  Name = 
REMARK  6 active torsions:
REMARK  status: ('A' for Active; 'I' for Inactive)
REMARK    1  A    between atoms: C_1  and  N_2
REMARK    2  A    between atoms: N_2  and  C_20
REMARK    3  A    between atoms: C_6  and  C_7
REMARK    4  A    between atoms: N_9  and  C_10
REMARK    5  A    between atoms: C_10  and  C_11
REMARK    6  A    between atoms: C_17  and  N_18
REMARK                            x       y       z     vdW  Elec       q    Type
REMARK                         _______ _______ _______ _____ _____    ______ ____
ROOT
ATOM      1  C   UNL     1       8.281  11.496  17.632  0.00  0.00    +0.000 C 
ATOM      2  N   UNL     1       8.676  10.401  18.499  0.00  0.00    +0.000 N 
ATOM      3  C   UNL     1       8.206   9.131  18.174  0.00  0.00    +0.000 A 
ATOM      4  N   UNL     1       7.468   8.938  17.069  0.00  0.00    +0.000 NA
ATOM      5  C   UNL     1       7.062   7.674  16.792  0.00  0.00    +0.000 A 
ATOM      6  C   UNL     1       7.363   6.585  17.575  0.00  0.00    +0.000 A 
ATOM      7  C   UNL     1       8.084   6.879  18.714  0.00  0.00    +0.000 A 
ATOM      8  N   UNL     1       8.513   8.118  19.003  0.00  0.00    +0.000 NA
ENDROOT
BRANCH   2   9
ATOM      9  C   UNL     1       9.872  10.460  19.367  0.00  0.00    +0.000 C 
ATOM     10  C   UNL     1      11.040  11.236  18.728  0.00  0.00    +0.000 C 
ATOM     11  C   UNL     1      10.819  12.742  18.725  0.00  0.00    +0.000 C 
ATOM     12  C   UNL     1      10.572  13.278  20.130  0.00  0.00    +0.000 C 
ATOM     13  C   UNL     1       9.493  12.519  20.896  0.00  0.00    +0.000 C 
ATOM     14  C   UNL     1       9.613  10.998  20.787  0.00  0.00    +0.000 C 
ENDBRANCH   2   9
BRANCH   6  15
ATOM     15  C   UNL     1       6.897   5.236  17.186  0.00  0.00    +0.000 C 
ATOM     16  O   UNL     1       7.706   4.325  17.049  0.00  0.00    +0.000 OA
ATOM     17  N   UNL     1       5.540   5.079  17.004  0.00  0.00    +0.000 N 
ATOM     18  H   UNL     1       4.924   5.844  17.266  0.00  0.00    +0.000 HD
BRANCH  17  19
ATOM     19  C   UNL     1       4.942   3.815  16.638  0.00  0.00    +0.000 C 
BRANCH  19  20
ATOM     20  C   UNL     1       3.648   3.593  17.380  0.00  0.00    +0.000 A 
ATOM     21  C   UNL     1       2.964   4.673  17.960  0.00  0.00    +0.000 A 
ATOM     22  C   UNL     1       1.767   4.469  18.650  0.00  0.00    +0.000 A 
ATOM     23  C   UNL     1       1.242   3.185  18.775  0.00  0.00    +0.000 A 
ATOM     24  C   UNL     1       1.916   2.103  18.214  0.00  0.00    +0.000 A 
ATOM     25  C   UNL     1       3.116   2.304  17.525  0.00  0.00    +0.000 A 
ENDBRANCH  19  20
ENDBRANCH  17  19
ENDBRANCH   6  15
BRANCH   7  26
ATOM     26  N   UNL     1       8.456   5.920  19.662  0.00  0.00    +0.000 N 
ATOM     27  H   UNL     1       9.330   5.470  19.395  0.00  0.00    +0.000 HD
ATOM     28  H   UNL     1       7.695   5.241  19.691  0.00  0.00    +0.000 HD
ENDBRANCH   7  26
TORSDOF 5
ENDMDL
MODEL 5
REMARK VINA RESULT:      -7.4      2.303      3.662
REMARK  Name = 
REMARK  6 active torsions:
REMARK  status: ('A' for Active; 'I' for Inactive)
REMARK    1  A    between atoms: C_1  and  N_2
REMARK    2  A    between atoms: N_2  and  C_20
REMARK    3  A    between atoms: C_6  and  C_7
REMARK    4  A    between atoms: N_9  and  C_10
REMARK    5  A    between atoms: C_10  and  C_11
REMARK    6  A    between atoms: C_17  and  N_18
REMARK                            x       y       z     vdW  Elec       q    Type
REMARK                         _______ _______ _______ _____ _____    ______ ____
ROOT
ATOM      1  C   UNL     1       4.059   5.569  17.415  0.00  0.00    +0.000 C 
ATOM      2  N   UNL     1       3.416   5.801  18.694  0.00  0.00    +0.000 N 
ATOM      3  C   UNL     1       2.712   6.994  18.847  0.00  0.00    +0.000 A 
ATOM      4  N   UNL     1       2.597   7.853  17.822  0.00  0.00    +0.000 NA
ATOM      5  C   UNL     1       1.877   8.985  18.022  0.00  0.00    +0.000 A 
ATOM      6  C   UNL     1       1.263   9.299  19.211  0.00  0.00    +0.000 A 
ATOM      7  C   UNL     1       1.471   8.386  20.224  0.00  0.00    +0.000 A 
ATOM      8  N   UNL     1       2.164   7.249  20.047  0.00  0.00    +0.000 NA
ENDROOT
BRANCH   2   9
ATOM      9  C   UNL     1       3.063   4.704  19.623  0.00  0.00    +0.000 C 
ATOM     10  C   UNL     1       1.596   4.256  19.493  0.00  0.00    +0.000 C 
ATOM     11  C   UNL     1       1.335   3.437  18.236  0.00  0.00    +0.000 C 
ATOM     12  C   UNL     1       2.240   2.214  18.164  0.00  0.00    +0.000 C 
ATOM     13  C   UNL     1       3.718   2.529  18.375  0.00  0.00    +0.000 C 
ATOM     14  C   UNL     1       3.986   3.474  19.547  0.00  0.00    +0.000 C 
ENDBRANCH   2   9
BRANCH   6  15
ATOM     15  C   UNL     1       0.478  10.548  19.338  0.00  0.00    +0.000 C 
ATOM     16  O   UNL     1      -0.500  10.583  20.076  0.00  0.00    +0.000 OA
ATOM     17  N   UNL     1       0.912  11.628  18.601  0.00  0.00    +0.000 N 
ATOM     18  H   UNL     1       1.805  11.559  18.119  0.00  0.00    +0.000 HD
BRANCH  17  19
ATOM     19  C   UNL     1       0.254  12.914  18.638  0.00  0.00    +0.000 C 
BRANCH  19  20
ATOM     20  C   UNL     1       1.253  14.038  18.533  0.00  0.00    +0.000 A 
ATOM     21  C   UNL     1       2.585  13.778  18.176  0.00  0.00    +0.000 A 
ATOM     22  C   UNL     1       3.513  14.817  18.081  0.00  0.00    +0.000 A 
ATOM     23  C   UNL     1       3.124  16.128  18.349  0.00  0.00    +0.000 A 
ATOM     24  C   UNL     1       1.808  16.400  18.715  0.00  0.00    +0.000 A 
ATOM     25  C   UNL     1       0.878  15.360  18.813  0.00  0.00    +0.000 A 
ENDBRANCH  19  20
ENDBRANCH  17  19
ENDBRANCH   6  15
BRANCH   7  26
ATOM     26  N   UNL     1       0.967   8.540  21.520  0.00  0.00    +0.000 N 
ATOM     27  H   UNL     1      -0.035   8.356  21.540  0.00  0.00    +0.000 HD
ATOM     28  H   UNL     1       1.162   9.506  21.786  0.00  0.00    +0.000 HD
ENDBRANCH   7  26
TORSDOF 5
ENDMDL
MODEL 6
REMARK VINA RESULT:      -7.4      0.799      1.159
REMARK  Name = 
REMARK  6 active torsions:
REMARK  status: ('A' for Active; 'I' for Inactive)
REMARK    1  A    between atoms: C_1  and  N_2
REMARK    2  A    between atoms: N_2  and  C_20
REMARK    3  A    between atoms: C_6  and  C_7
REMARK    4  A    between atoms: N_9  and  C_10
REMARK    5  A    between atoms: C_10  and  C_11
REMARK    6  A    between atoms: C_17  and  N_18
REMARK                            x       y       z     vdW  Elec       q    Type
REMARK                         _______ _______ _______ _____ _____    ______ ____
ROOT
ATOM      1  C   UNL     1       3.721   4.940  17.279  0.00  0.00    +0.000 C 
ATOM      2  N   UNL     1       3.123   5.198  18.576  0.00  0.00    +0.000 N 
ATOM      3  C   UNL     1       2.629   6.479  18.807  0.00  0.00    +0.000 A 
ATOM      4  N   UNL     1       2.661   7.407  17.837  0.00  0.00    +0.000 NA
ATOM      5  C   UNL     1       2.140   8.629  18.113  0.00  0.00    +0.000 A 
ATOM      6  C   UNL     1       1.586   8.968  19.324  0.00  0.00    +0.000 A 
ATOM      7  C   UNL     1       1.637   7.972  20.277  0.00  0.00    +0.000 A 
ATOM      8  N   UNL     1       2.129   6.749  20.025  0.00  0.00    +0.000 NA
ENDROOT
BRANCH   2   9
ATOM      9  C   UNL     1       2.591   4.120  19.440  0.00  0.00    +0.000 C 
ATOM     10  C   UNL     1       1.686   3.134  18.680  0.00  0.00    +0.000 C 
ATOM     11  C   UNL     1       2.465   2.189  17.775  0.00  0.00    +0.000 C 
ATOM     12  C   UNL     1       3.516   1.406  18.553  0.00  0.00    +0.000 C 
ATOM     13  C   UNL     1       4.416   2.280  19.421  0.00  0.00    +0.000 C 
ATOM     14  C   UNL     1       3.659   3.337  20.226  0.00  0.00    +0.000 C 
ENDBRANCH   2   9
BRANCH   6  15
ATOM     15  C   UNL     1       1.021  10.320  19.533  0.00  0.00    +0.000 C 
ATOM     16  O   UNL     1       1.092  10.848  20.637  0.00  0.00    +0.000 OA
ATOM     17  N   UNL     1       0.439  10.923  18.439  0.00  0.00    +0.000 N 
ATOM     18  H   UNL     1       0.539  10.478  17.530  0.00  0.00    +0.000 HD
BRANCH  17  19
ATOM     19  C   UNL     1      -0.138  12.246  18.492  0.00  0.00    +0.000 C 
BRANCH  19  20
ATOM     20  C   UNL     1      -1.629  12.179  18.713  0.00  0.00    +0.000 A 
ATOM     21  C   UNL     1      -2.198  12.692  19.889  0.00  0.00    +0.000 A 
ATOM     22  C   UNL     1      -3.578  12.629  20.097  0.00  0.00    +0.000 A 
ATOM     23  C   UNL     1      -4.404  12.045  19.139  0.00  0.00    +0.000 A 
ATOM     24  C   UNL     1      -3.850  11.522  17.973  0.00  0.00    +0.000 A 
ATOM     25  C   UNL     1      -2.469  11.582  17.763  0.00  0.00    +0.000 A 
ENDBRANCH  19  20
ENDBRANCH  17  19
ENDBRANCH   6  15
BRANCH   7  26
ATOM     26  N   UNL     1       1.163   8.128  21.584  0.00  0.00    +0.000 N 
ATOM     27  H   UNL     1       1.509   8.996  21.991  0.00  0.00    +0.000 HD
ATOM     28  H   UNL     1       1.507   7.323  22.108  0.00  0.00    +0.000 HD
ENDBRANCH   7  26
TORSDOF 5
ENDMDL
MODEL 7
REMARK VINA RESULT:      -7.3      2.059      3.304
REMARK  Name = 
REMARK  6 active torsions:
REMARK  status: ('A' for Active; 'I' for Inactive)
REMARK    1  A    between atoms: C_1  and  N_2
REMARK    2  A    between atoms: N_2  and  C_20
REMARK    3  A    between atoms: C_6  and  C_7
REMARK    4  A    between atoms: N_9  and  C_10
REMARK    5  A    between atoms: C_10  and  C_11
REMARK    6  A    between atoms: C_17  and  N_18
REMARK                            x       y       z     vdW  Elec       q    Type
REMARK                         _______ _______ _______ _____ _____    ______ ____
ROOT
ATOM      1  C   UNL     1       3.971   5.618  17.405  0.00  0.00    +0.000 C 
ATOM      2  N   UNL     1       3.367   5.833  18.706  0.00  0.00    +0.000 N 
ATOM      3  C   UNL     1       2.647   7.012  18.887  0.00  0.00    +0.000 A 
ATOM      4  N   UNL     1       2.482   7.873  17.870  0.00  0.00    +0.000 NA
ATOM      5  C   UNL     1       1.748   8.990  18.099  0.00  0.00    +0.000 A 
ATOM      6  C   UNL     1       1.168   9.288  19.309  0.00  0.00    +0.000 A 
ATOM      7  C   UNL     1       1.426   8.375  20.310  0.00  0.00    +0.000 A 
ATOM      8  N   UNL     1       2.134   7.252  20.105  0.00  0.00    +0.000 NA
ENDROOT
BRANCH   2   9
ATOM      9  C   UNL     1       3.066   4.726  19.641  0.00  0.00    +0.000 C 
ATOM     10  C   UNL     1       1.604   4.250  19.557  0.00  0.00    +0.000 C 
ATOM     11  C   UNL     1       1.318   3.431  18.306  0.00  0.00    +0.000 C 
ATOM     12  C   UNL     1       2.244   2.225  18.200  0.00  0.00    +0.000 C 
ATOM     13  C   UNL     1       3.721   2.569  18.364  0.00  0.00    +0.000 C 
ATOM     14  C   UNL     1       4.010   3.514  19.531  0.00  0.00    +0.000 C 
ENDBRANCH   2   9
BRANCH   6  15
ATOM     15  C   UNL     1       0.365  10.521  19.466  0.00  0.00    +0.000 C 
ATOM     16  O   UNL     1      -0.328  10.676  20.467  0.00  0.00    +0.000 OA
ATOM     17  N   UNL     1       0.453  11.451  18.453  0.00  0.00    +0.000 N 
ATOM     18  H   UNL     1       1.149  11.309  17.725  0.00  0.00    +0.000 HD
BRANCH  17  19
ATOM     19  C   UNL     1      -0.263  12.705  18.480  0.00  0.00    +0.000 C 
BRANCH  19  20
ATOM     20  C   UNL     1       0.690  13.872  18.547  0.00  0.00    +0.000 A 
ATOM     21  C   UNL     1       0.230  15.149  18.906  0.00  0.00    +0.000 A 
ATOM     22  C   UNL     1       1.110  16.232  18.966  0.00  0.00    +0.000 A 
ATOM     23  C   UNL     1       2.458  16.055  18.661  0.00  0.00    +0.000 A 
ATOM     24  C   UNL     1       2.926  14.796  18.292  0.00  0.00    +0.000 A 
ATOM     25  C   UNL     1       2.046  13.711  18.229  0.00  0.00    +0.000 A 
ENDBRANCH  19  20
ENDBRANCH  17  19
ENDBRANCH   6  15
BRANCH   7  26
ATOM     26  N   UNL     1       0.963   8.515  21.623  0.00  0.00    +0.000 N 
ATOM     27  H   UNL     1       1.007   9.489  21.918  0.00  0.00    +0.000 HD
ATOM     28  H   UNL     1       1.571   7.935  22.201  0.00  0.00    +0.000 HD
ENDBRANCH   7  26
TORSDOF 5
ENDMDL
MODEL 8
REMARK VINA RESULT:      -7.3      2.672      8.567
REMARK  Name = 
REMARK  6 active torsions:
REMARK  status: ('A' for Active; 'I' for Inactive)
REMARK    1  A    between atoms: C_1  and  N_2
REMARK    2  A    between atoms: N_2  and  C_20
REMARK    3  A    between atoms: C_6  and  C_7
REMARK    4  A    between atoms: N_9  and  C_10
REMARK    5  A    between atoms: C_10  and  C_11
REMARK    6  A    between atoms: C_17  and  N_18
REMARK                            x       y       z     vdW  Elec       q    Type
REMARK                         _______ _______ _______ _____ _____    ______ ____
ROOT
ATOM      1  C   UNL     1      -1.127  10.999  23.248  0.00  0.00    +0.000 C 
ATOM      2  N   UNL     1      -0.624  11.614  22.034  0.00  0.00    +0.000 N 
ATOM      3  C   UNL     1       0.069  10.794  21.145  0.00  0.00    +0.000 A 
ATOM      4  N   UNL     1       0.205   9.482  21.393  0.00  0.00    +0.000 NA
ATOM      5  C   UNL     1       0.866   8.730  20.477  0.00  0.00    +0.000 A 
ATOM      6  C   UNL     1       1.402   9.236  19.317  0.00  0.00    +0.000 A 
ATOM      7  C   UNL     1       1.259  10.600  19.165  0.00  0.00    +0.000 A 
ATOM      8  N   UNL     1       0.593  11.364  20.046  0.00  0.00    +0.000 NA
ENDROOT
BRANCH   2   9
ATOM      9  C   UNL     1      -1.188  12.863  21.476  0.00  0.00    +0.000 C 
ATOM     10  C   UNL     1      -2.683  12.742  21.125  0.00  0.00    +0.000 C 
ATOM     11  C   UNL     1      -3.582  12.742  22.353  0.00  0.00    +0.000 C 
ATOM     12  C   UNL     1      -3.368  13.985  23.207  0.00  0.00    +0.000 C 
ATOM     13  C   UNL     1      -1.904  14.257  23.540  0.00  0.00    +0.000 C 
ATOM     14  C   UNL     1      -0.963  14.115  22.343  0.00  0.00    +0.000 C 
ENDBRANCH   2   9
BRANCH   6  15
ATOM     15  C   UNL     1       2.092   8.340  18.362  0.00  0.00    +0.000 C 
ATOM     16  O   UNL     1       2.324   8.725  17.221  0.00  0.00    +0.000 OA
ATOM     17  N   UNL     1       2.447   7.094  18.829  0.00  0.00    +0.000 N 
ATOM     18  H   UNL     1       2.340   6.899  19.822  0.00  0.00    +0.000 HD
BRANCH  17  19
ATOM     19  C   UNL     1       3.137   6.121  18.014  0.00  0.00    +0.000 C 
BRANCH  19  20
ATOM     20  C   UNL     1       2.581   4.737  18.232  0.00  0.00    +0.000 A 
ATOM     21  C   UNL     1       1.626   4.502  19.234  0.00  0.00    +0.000 A 
ATOM     22  C   UNL     1       1.111   3.220  19.440  0.00  0.00    +0.000 A 
ATOM     23  C   UNL     1       1.550   2.156  18.655  0.00  0.00    +0.000 A 
ATOM     24  C   UNL     1       2.506   2.372  17.665  0.00  0.00    +0.000 A 
ATOM     25  C   UNL     1       3.024   3.655  17.458  0.00  0.00    +0.000 A 
ENDBRANCH  19  20
ENDBRANCH  17  19
ENDBRANCH   6  15
BRANCH   7  26
ATOM     26  N   UNL     1       1.769  11.314  18.076  0.00  0.00    +0.000 N 
ATOM     27  H   UNL     1       2.289  10.698  17.453  0.00  0.00    +0.000 HD
ATOM     28  H   UNL     1       2.381  12.030  18.468  0.00  0.00    +0.000 HD
ENDBRANCH   7  26
TORSDOF 5
ENDMDL
MODEL 9
REMARK VINA RESULT:      -7.3      3.002      8.884
REMARK  Name = 
REMARK  6 active torsions:
REMARK  status: ('A' for Active; 'I' for Inactive)
REMARK    1  A    between atoms: C_1  and  N_2
REMARK    2  A    between atoms: N_2  and  C_20
REMARK    3  A    between atoms: C_6  and  C_7
REMARK    4  A    between atoms: N_9  and  C_10
REMARK    5  A    between atoms: C_10  and  C_11
REMARK    6  A    between atoms: C_17  and  N_18
REMARK                            x       y       z     vdW  Elec       q    Type
REMARK                         _______ _______ _______ _____ _____    ______ ____
ROOT
ATOM      1  C   UNL     1      -0.906  10.513  23.291  0.00  0.00    +0.000 C 
ATOM      2  N   UNL     1      -0.506  11.176  22.064  0.00  0.00    +0.000 N 
ATOM      3  C   UNL     1       0.214  10.424  21.139  0.00  0.00    +0.000 A 
ATOM      4  N   UNL     1       0.466   9.125  21.365  0.00  0.00    +0.000 NA
ATOM      5  C   UNL     1       1.148   8.438  20.414  0.00  0.00    +0.000 A 
ATOM      6  C   UNL     1       1.592   8.996  19.239  0.00  0.00    +0.000 A 
ATOM      7  C   UNL     1       1.331  10.345  19.109  0.00  0.00    +0.000 A 
ATOM      8  N   UNL     1       0.643  11.044  20.026  0.00  0.00    +0.000 NA
ENDROOT
BRANCH   2   9
ATOM      9  C   UNL     1      -1.193  12.380  21.545  0.00  0.00    +0.000 C 
ATOM     10  C   UNL     1      -2.722  12.317  21.714  0.00  0.00    +0.000 C 
ATOM     11  C   UNL     1      -3.170  12.535  23.153  0.00  0.00    +0.000 C 
ATOM     12  C   UNL     1      -2.659  13.860  23.706  0.00  0.00    +0.000 C 
ATOM     13  C   UNL     1      -1.161  14.072  23.508  0.00  0.00    +0.000 C 
ATOM     14  C   UNL     1      -0.667  13.715  22.105  0.00  0.00    +0.000 C 
ENDBRANCH   2   9
BRANCH   6  15
ATOM     15  C   UNL     1       2.311   8.168  18.246  0.00  0.00    +0.000 C 
ATOM     16  O   UNL     1       2.569   8.627  17.138  0.00  0.00    +0.000 OA
ATOM     17  N   UNL     1       2.664   6.896  18.641  0.00  0.00    +0.000 N 
ATOM     18  H   UNL     1       2.535   6.637  19.616  0.00  0.00    +0.000 HD
BRANCH  17  19
ATOM     19  C   UNL     1       3.382   5.982  17.782  0.00  0.00    +0.000 C 
BRANCH  19  20
ATOM     20  C   UNL     1       4.869   6.072  18.016  0.00  0.00    +0.000 A 
ATOM     21  C   UNL     1       5.460   5.415  19.107  0.00  0.00    +0.000 A 
ATOM     22  C   UNL     1       6.837   5.500  19.327  0.00  0.00    +0.000 A 
ATOM     23  C   UNL     1       7.639   6.247  18.467  0.00  0.00    +0.000 A 
ATOM     24  C   UNL     1       7.063   6.914  17.388  0.00  0.00    +0.000 A 
ATOM     25  C   UNL     1       5.685   6.832  17.166  0.00  0.00    +0.000 A 
ENDBRANCH  19  20
ENDBRANCH  17  19
ENDBRANCH   6  15
BRANCH   7  26
ATOM     26  N   UNL     1       1.735  11.107  18.008  0.00  0.00    +0.000 N 
ATOM     27  H   UNL     1       2.237  10.531  17.335  0.00  0.00    +0.000 HD
ATOM     28  H   UNL     1       2.342  11.840  18.378  0.00  0.00    +0.000 HD
ENDBRANCH   7  26
TORSDOF 5
ENDMDL
