MODEL 1
REMARK VINA RESULT:      -8.2      0.000      0.000
REMARK  Name = 
REMARK  8 active torsions:
REMARK  status: ('A' for Active; 'I' for Inactive)
REMARK    1  A    between atoms: C_1  and  O_2
REMARK    2  A    between atoms: O_2  and  C_3
REMARK    3  A    between atoms: C_3  and  C_5
REMARK    4  A    between atoms: C_10  and  S_11
REMARK    5  A    between atoms: S_11  and  N_14
REMARK    6  A    between atoms: N_14  and  N_15
REMARK    7  A    between atoms: C_16  and  C_18
REMARK    8  A    between atoms: C_23  and  N_24
REMARK                            x       y       z     vdW  Elec       q    Type
REMARK                         _______ _______ _______ _____ _____    ______ ____
ROOT
ATOM      1  N   UNL     1       1.681   8.585  21.436  0.00  0.00    +0.000 NA
ATOM      2  H   UNL     1       2.276   9.180  20.839  0.00  0.00    +0.000 HD
ENDROOT
BRANCH   1   3
ATOM      3  N   UNL     1       1.720   7.140  21.204  0.00  0.00    +0.000 N 
ATOM      4  C   UNL     1       2.114   6.649  19.969  0.00  0.00    +0.000 C 
ATOM      5  O   UNL     1       2.410   7.381  19.029  0.00  0.00    +0.000 OA
ATOM      6  H   UNL     1       1.455   6.550  21.987  0.00  0.00    +0.000 HD
BRANCH   4   7
ATOM      7  C   UNL     1       2.142   5.151  19.837  0.00  0.00    +0.000 A 
ATOM      8  C   UNL     1       1.080   4.424  20.414  0.00  0.00    +0.000 A 
ATOM      9  C   UNL     1       0.957   3.043  20.231  0.00  0.00    +0.000 A 
ATOM     10  C   UNL     1       1.864   2.368  19.428  0.00  0.00    +0.000 A 
ATOM     11  C   UNL     1       2.916   3.064  18.835  0.00  0.00    +0.000 A 
ATOM     12  C   UNL     1       3.083   4.450  19.045  0.00  0.00    +0.000 A 
BRANCH  12  13
ATOM     13  N   UNL     1       4.264   5.043  18.505  0.00  0.00    +0.000 N 
ATOM     14  C   UNL     1       4.468   5.368  17.174  0.00  0.00    +0.000 A 
ATOM     15  C   UNL     1       5.757   5.820  17.004  0.00  0.00    +0.000 A 
ATOM     16  C   UNL     1       6.387   5.749  18.263  0.00  0.00    +0.000 A 
ATOM     17  C   UNL     1       5.459   5.261  19.159  0.00  0.00    +0.000 A 
ENDBRANCH  12  13
ENDBRANCH   4   7
ENDBRANCH   1   3
BRANCH   1  18
ATOM     18  S   UNL     1       0.258   9.222  22.084  0.00  0.00    +0.000 S 
ATOM     19  O   UNL     1       0.667   9.931  23.284  0.00  0.00    +0.000 OA
ATOM     20  O   UNL     1      -0.728   8.169  22.187  0.00  0.00    +0.000 OA
BRANCH  18  26
ATOM     21  C   UNL     1      -0.924  11.643  21.334  0.00  0.00    +0.000 A 
ATOM     22  C   UNL     1      -1.244  12.608  20.357  0.00  0.00    +0.000 A 
ATOM     23  C   UNL     1      -0.980  12.379  19.008  0.00  0.00    +0.000 A 
ATOM     24  C   UNL     1      -0.395  11.182  18.613  0.00  0.00    +0.000 A 
ATOM     25  C   UNL     1      -0.079  10.212  19.567  0.00  0.00    +0.000 A 
ATOM     26  C   UNL     1      -0.357  10.425  20.931  0.00  0.00    +0.000 A 
BRANCH  21  27
ATOM     27  C   UNL     1      -1.294  11.931  22.736  0.00  0.00    +0.000 C 
ATOM     28  O   UNL     1      -2.231  11.377  23.295  0.00  0.00    +0.000 OA
BRANCH  27  30
ATOM     29  C   UNL     1      -1.230  14.088  23.672  0.00  0.00    +0.000 C 
ATOM     30  O   UNL     1      -0.522  12.923  23.235  0.00  0.00    +0.000 OA
ENDBRANCH  27  30
ENDBRANCH  21  27
ENDBRANCH  18  26
ENDBRANCH   1  18
TORSDOF 7
ENDMDL
MODEL 2
REMARK VINA RESULT:      -7.9      2.521      4.246
REMARK  Name = 
REMARK  8 active torsions:
REMARK  status: ('A' for Active; 'I' for Inactive)
REMARK    1  A    between atoms: C_1  and  O_2
REMARK    2  A    between atoms: O_2  and  C_3
REMARK    3  A    between atoms: C_3  and  C_5
REMARK    4  A    between atoms: C_10  and  S_11
REMARK    5  A    between atoms: S_11  and  N_14
REMARK    6  A    between atoms: N_14  and  N_15
REMARK    7  A    between atoms: C_16  and  C_18
REMARK    8  A    between atoms: C_23  and  N_24
REMARK                            x       y       z     vdW  Elec       q    Type
REMARK                         _______ _______ _______ _____ _____    ______ ____
ROOT
ATOM      1  N   UNL     1       1.702   8.659  19.288  0.00  0.00    +0.000 NA
ATOM      2  H   UNL     1       2.030   8.618  20.266  0.00  0.00    +0.000 HD
ENDROOT
BRANCH   1   3
ATOM      3  N   UNL     1       2.425   7.858  18.298  0.00  0.00    +0.000 N 
ATOM      4  C   UNL     1       3.076   6.700  18.689  0.00  0.00    +0.000 C 
ATOM      5  O   UNL     1       3.105   6.317  19.855  0.00  0.00    +0.000 OA
ATOM      6  H   UNL     1       2.406   8.199  17.341  0.00  0.00    +0.000 HD
BRANCH   4   7
ATOM      7  C   UNL     1       3.771   5.936  17.596  0.00  0.00    +0.000 A 
ATOM      8  C   UNL     1       4.656   6.650  16.760  0.00  0.00    +0.000 A 
ATOM      9  C   UNL     1       5.440   6.001  15.802  0.00  0.00    +0.000 A 
ATOM     10  C   UNL     1       5.393   4.618  15.691  0.00  0.00    +0.000 A 
ATOM     11  C   UNL     1       4.538   3.887  16.513  0.00  0.00    +0.000 A 
ATOM     12  C   UNL     1       3.704   4.529  17.455  0.00  0.00    +0.000 A 
BRANCH  12  13
ATOM     13  N   UNL     1       2.771   3.706  18.152  0.00  0.00    +0.000 N 
ATOM     14  C   UNL     1       3.092   2.681  19.027  0.00  0.00    +0.000 A 
ATOM     15  C   UNL     1       1.942   2.039  19.426  0.00  0.00    +0.000 A 
ATOM     16  C   UNL     1       0.870   2.664  18.757  0.00  0.00    +0.000 A 
ATOM     17  C   UNL     1       1.402   3.669  17.978  0.00  0.00    +0.000 A 
ENDBRANCH  12  13
ENDBRANCH   4   7
ENDBRANCH   1   3
BRANCH   1  18
ATOM     18  S   UNL     1       0.925  10.052  18.733  0.00  0.00    +0.000 S 
ATOM     19  O   UNL     1      -0.073   9.583  17.786  0.00  0.00    +0.000 OA
ATOM     20  O   UNL     1       1.920  11.006  18.295  0.00  0.00    +0.000 OA
BRANCH  18  26
ATOM     21  C   UNL     1      -1.002  11.664  19.962  0.00  0.00    +0.000 A 
ATOM     22  C   UNL     1      -1.731  12.062  21.101  0.00  0.00    +0.000 A 
ATOM     23  C   UNL     1      -1.425  11.555  22.362  0.00  0.00    +0.000 A 
ATOM     24  C   UNL     1      -0.384  10.646  22.508  0.00  0.00    +0.000 A 
ATOM     25  C   UNL     1       0.354  10.248  21.391  0.00  0.00    +0.000 A 
ATOM     26  C   UNL     1       0.065  10.765  20.114  0.00  0.00    +0.000 A 
BRANCH  21  27
ATOM     27  C   UNL     1      -1.343  12.293  18.668  0.00  0.00    +0.000 C 
ATOM     28  O   UNL     1      -0.636  13.144  18.145  0.00  0.00    +0.000 OA
BRANCH  27  30
ATOM     29  C   UNL     1      -2.586  11.414  16.875  0.00  0.00    +0.000 C 
ATOM     30  O   UNL     1      -2.549  11.860  18.234  0.00  0.00    +0.000 OA
ENDBRANCH  27  30
ENDBRANCH  21  27
ENDBRANCH  18  26
ENDBRANCH   1  18
TORSDOF 7
ENDMDL
MODEL 3
REMARK VINA RESULT:      -7.9      3.032      8.510
REMARK  Name = 
REMARK  8 active torsions:
REMARK  status: ('A' for Active; 'I' for Inactive)
REMARK    1  A    between atoms: C_1  and  O_2
REMARK    2  A    between atoms: O_2  and  C_3
REMARK    3  A    between atoms: C_3  and  C_5
REMARK    4  A    between atoms: C_10  and  S_11
REMARK    5  A    between atoms: S_11  and  N_14
REMARK    6  A    between atoms: N_14  and  N_15
REMARK    7  A    between atoms: C_16  and  C_18
REMARK    8  A    between atoms: C_23  and  N_24
REMARK                            x       y       z     vdW  Elec       q    Type
REMARK                         _______ _______ _______ _____ _____    ______ ____
ROOT
ATOM      1  N   UNL     1       2.578   7.527  18.590  0.00  0.00    +0.000 NA
ATOM      2  H   UNL     1       3.190   8.139  18.027  0.00  0.00    +0.000 HD
ENDROOT
BRANCH   1   3
ATOM      3  N   UNL     1       1.847   8.139  19.701  0.00  0.00    +0.000 N 
ATOM      4  C   UNL     1       0.992   9.204  19.463  0.00  0.00    +0.000 C 
ATOM      5  O   UNL     1       0.835   9.690  18.347  0.00  0.00    +0.000 OA
ATOM      6  H   UNL     1       2.003   7.735  20.620  0.00  0.00    +0.000 HD
BRANCH   4   7
ATOM      7  C   UNL     1       0.272   9.748  20.665  0.00  0.00    +0.000 A 
ATOM      8  C   UNL     1      -0.047   8.845  21.701  0.00  0.00    +0.000 A 
ATOM      9  C   UNL     1      -0.600   9.284  22.908  0.00  0.00    +0.000 A 
ATOM     10  C   UNL     1      -0.802  10.640  23.124  0.00  0.00    +0.000 A 
ATOM     11  C   UNL     1      -0.484  11.555  22.123  0.00  0.00    +0.000 A 
ATOM     12  C   UNL     1       0.033  11.127  20.880  0.00  0.00    +0.000 A 
BRANCH  12  13
ATOM     13  N   UNL     1       0.199  12.127  19.876  0.00  0.00    +0.000 N 
ATOM     14  C   UNL     1       1.346  12.873  19.660  0.00  0.00    +0.000 A 
ATOM     15  C   UNL     1       1.107  13.811  18.682  0.00  0.00    +0.000 A 
ATOM     16  C   UNL     1      -0.240  13.666  18.294  0.00  0.00    +0.000 A 
ATOM     17  C   UNL     1      -0.775  12.641  19.045  0.00  0.00    +0.000 A 
ENDBRANCH  12  13
ENDBRANCH   4   7
ENDBRANCH   1   3
BRANCH   1  18
ATOM     18  S   UNL     1       2.946   5.885  18.722  0.00  0.00    +0.000 S 
ATOM     19  O   UNL     1       1.719   5.188  18.378  0.00  0.00    +0.000 OA
ATOM     20  O   UNL     1       3.561   5.639  20.008  0.00  0.00    +0.000 OA
BRANCH  18  26
ATOM     21  C   UNL     1       4.527   4.196  17.150  0.00  0.00    +0.000 A 
ATOM     22  C   UNL     1       5.368   3.974  16.041  0.00  0.00    +0.000 A 
ATOM     23  C   UNL     1       5.802   5.035  15.247  0.00  0.00    +0.000 A 
ATOM     24  C   UNL     1       5.406   6.332  15.550  0.00  0.00    +0.000 A 
ATOM     25  C   UNL     1       4.580   6.569  16.650  0.00  0.00    +0.000 A 
ATOM     26  C   UNL     1       4.148   5.508  17.470  0.00  0.00    +0.000 A 
BRANCH  21  27
ATOM     27  C   UNL     1       4.160   3.030  17.983  0.00  0.00    +0.000 C 
ATOM     28  O   UNL     1       3.230   2.287  17.700  0.00  0.00    +0.000 OA
BRANCH  27  30
ATOM     29  C   UNL     1       4.376   2.240  20.188  0.00  0.00    +0.000 C 
ATOM     30  O   UNL     1       4.927   2.984  19.096  0.00  0.00    +0.000 OA
ENDBRANCH  27  30
ENDBRANCH  21  27
ENDBRANCH  18  26
ENDBRANCH   1  18
TORSDOF 7
ENDMDL
MODEL 4
REMARK VINA RESULT:      -7.9      2.517      4.033
REMARK  Name = 
REMARK  8 active torsions:
REMARK  status: ('A' for Active; 'I' for Inactive)
REMARK    1  A    between atoms: C_1  and  O_2
REMARK    2  A    between atoms: O_2  and  C_3
REMARK    3  A    between atoms: C_3  and  C_5
REMARK    4  A    between atoms: C_10  and  S_11
REMARK    5  A    between atoms: S_11  and  N_14
REMARK    6  A    between atoms: N_14  and  N_15
REMARK    7  A    between atoms: C_16  and  C_18
REMARK    8  A    between atoms: C_23  and  N_24
REMARK                            x       y       z     vdW  Elec       q    Type
REMARK                         _______ _______ _______ _____ _____    ______ ____
ROOT
ATOM      1  N   UNL     1       1.737   8.476  19.227  0.00  0.00    +0.000 NA
ATOM      2  H   UNL     1       2.029   8.380  20.213  0.00  0.00    +0.000 HD
ENDROOT
BRANCH   1   3
ATOM      3  N   UNL     1       2.463   7.689  18.228  0.00  0.00    +0.000 N 
ATOM      4  C   UNL     1       3.149   6.548  18.613  0.00  0.00    +0.000 C 
ATOM      5  O   UNL     1       3.206   6.171  19.780  0.00  0.00    +0.000 OA
ATOM      6  H   UNL     1       2.420   8.025  17.271  0.00  0.00    +0.000 HD
BRANCH   4   7
ATOM      7  C   UNL     1       3.845   5.797  17.511  0.00  0.00    +0.000 A 
ATOM      8  C   UNL     1       4.719   6.523  16.676  0.00  0.00    +0.000 A 
ATOM      9  C   UNL     1       5.503   5.886  15.710  0.00  0.00    +0.000 A 
ATOM     10  C   UNL     1       5.466   4.504  15.590  0.00  0.00    +0.000 A 
ATOM     11  C   UNL     1       4.621   3.761  16.410  0.00  0.00    +0.000 A 
ATOM     12  C   UNL     1       3.787   4.391  17.361  0.00  0.00    +0.000 A 
BRANCH  12  13
ATOM     13  N   UNL     1       2.863   3.556  18.057  0.00  0.00    +0.000 N 
ATOM     14  C   UNL     1       1.484   3.593  17.928  0.00  0.00    +0.000 A 
ATOM     15  C   UNL     1       0.914   2.722  18.828  0.00  0.00    +0.000 A 
ATOM     16  C   UNL     1       1.969   2.142  19.563  0.00  0.00    +0.000 A 
ATOM     17  C   UNL     1       3.146   2.676  19.082  0.00  0.00    +0.000 A 
ENDBRANCH  12  13
ENDBRANCH   4   7
ENDBRANCH   1   3
BRANCH   1  18
ATOM     18  S   UNL     1       1.035   9.920  18.707  0.00  0.00    +0.000 S 
ATOM     19  O   UNL     1      -0.004   9.527  17.772  0.00  0.00    +0.000 OA
ATOM     20  O   UNL     1       2.077  10.822  18.267  0.00  0.00    +0.000 OA
BRANCH  18  26
ATOM     21  C   UNL     1      -0.639  11.747  20.004  0.00  0.00    +0.000 A 
ATOM     22  C   UNL     1      -1.347  12.175  21.146  0.00  0.00    +0.000 A 
ATOM     23  C   UNL     1      -1.203  11.518  22.367  0.00  0.00    +0.000 A 
ATOM     24  C   UNL     1      -0.349  10.426  22.468  0.00  0.00    +0.000 A 
ATOM     25  C   UNL     1       0.365   9.995  21.348  0.00  0.00    +0.000 A 
ATOM     26  C   UNL     1       0.242  10.660  20.114  0.00  0.00    +0.000 A 
BRANCH  21  27
ATOM     27  C   UNL     1      -0.793  12.533  18.762  0.00  0.00    +0.000 C 
ATOM     28  O   UNL     1      -1.665  12.294  17.937  0.00  0.00    +0.000 OA
BRANCH  27  30
ATOM     29  C   UNL     1      -0.198  14.807  18.874  0.00  0.00    +0.000 C 
ATOM     30  O   UNL     1       0.198  13.448  18.655  0.00  0.00    +0.000 OA
ENDBRANCH  27  30
ENDBRANCH  21  27
ENDBRANCH  18  26
ENDBRANCH   1  18
TORSDOF 7
ENDMDL
MODEL 5
REMARK VINA RESULT:      -7.8      2.910      8.465
REMARK  Name = 
REMARK  8 active torsions:
REMARK  status: ('A' for Active; 'I' for Inactive)
REMARK    1  A    between atoms: C_1  and  O_2
REMARK    2  A    between atoms: O_2  and  C_3
REMARK    3  A    between atoms: C_3  and  C_5
REMARK    4  A    between atoms: C_10  and  S_11
REMARK    5  A    between atoms: S_11  and  N_14
REMARK    6  A    between atoms: N_14  and  N_15
REMARK    7  A    between atoms: C_16  and  C_18
REMARK    8  A    between atoms: C_23  and  N_24
REMARK                            x       y       z     vdW  Elec       q    Type
REMARK                         _______ _______ _______ _____ _____    ______ ____
ROOT
ATOM      1  N   UNL     1       2.569   7.614  18.553  0.00  0.00    +0.000 NA
ATOM      2  H   UNL     1       3.206   8.215  18.007  0.00  0.00    +0.000 HD
ENDROOT
BRANCH   1   3
ATOM      3  N   UNL     1       1.863   8.226  19.680  0.00  0.00    +0.000 N 
ATOM      4  C   UNL     1       0.883   9.179  19.447  0.00  0.00    +0.000 C 
ATOM      5  O   UNL     1       0.592   9.566  18.319  0.00  0.00    +0.000 OA
ATOM      6  H   UNL     1       2.130   7.906  20.607  0.00  0.00    +0.000 HD
BRANCH   4   7
ATOM      7  C   UNL     1       0.202   9.731  20.668  0.00  0.00    +0.000 A 
ATOM      8  C   UNL     1      -0.145   8.824  21.691  0.00  0.00    +0.000 A 
ATOM      9  C   UNL     1      -0.664   9.264  22.912  0.00  0.00    +0.000 A 
ATOM     10  C   UNL     1      -0.803  10.622  23.156  0.00  0.00    +0.000 A 
ATOM     11  C   UNL     1      -0.456  11.542  22.168  0.00  0.00    +0.000 A 
ATOM     12  C   UNL     1       0.027  11.115  20.911  0.00  0.00    +0.000 A 
BRANCH  12  13
ATOM     13  N   UNL     1       0.226  12.126  19.924  0.00  0.00    +0.000 N 
ATOM     14  C   UNL     1      -0.751  12.643  19.089  0.00  0.00    +0.000 A 
ATOM     15  C   UNL     1      -0.176  13.518  18.196  0.00  0.00    +0.000 A 
ATOM     16  C   UNL     1       1.209  13.527  18.463  0.00  0.00    +0.000 A 
ATOM     17  C   UNL     1       1.430  12.661  19.513  0.00  0.00    +0.000 A 
ENDBRANCH  12  13
ENDBRANCH   4   7
ENDBRANCH   1   3
BRANCH   1  18
ATOM     18  S   UNL     1       2.868   5.955  18.642  0.00  0.00    +0.000 S 
ATOM     19  O   UNL     1       1.663   5.320  18.134  0.00  0.00    +0.000 OA
ATOM     20  O   UNL     1       3.331   5.627  19.972  0.00  0.00    +0.000 OA
BRANCH  18  26
ATOM     21  C   UNL     1       4.732   4.308  17.363  0.00  0.00    +0.000 A 
ATOM     22  C   UNL     1       5.665   4.071  16.333  0.00  0.00    +0.000 A 
ATOM     23  C   UNL     1       6.028   5.083  15.447  0.00  0.00    +0.000 A 
ATOM     24  C   UNL     1       5.468   6.348  15.576  0.00  0.00    +0.000 A 
ATOM     25  C   UNL     1       4.548   6.602  16.596  0.00  0.00    +0.000 A 
ATOM     26  C   UNL     1       4.186   5.592  17.508  0.00  0.00    +0.000 A 
BRANCH  21  27
ATOM     27  C   UNL     1       4.446   3.204  18.304  0.00  0.00    +0.000 C 
ATOM     28  O   UNL     1       5.076   3.046  19.342  0.00  0.00    +0.000 OA
BRANCH  27  30
ATOM     29  C   UNL     1       2.442   2.043  18.716  0.00  0.00    +0.000 C 
ATOM     30  O   UNL     1       3.488   2.391  17.803  0.00  0.00    +0.000 OA
ENDBRANCH  27  30
ENDBRANCH  21  27
ENDBRANCH  18  26
ENDBRANCH   1  18
TORSDOF 7
ENDMDL
MODEL 6
REMARK VINA RESULT:      -7.7      1.207      2.558
REMARK  Name = 
REMARK  8 active torsions:
REMARK  status: ('A' for Active; 'I' for Inactive)
REMARK    1  A    between atoms: C_1  and  O_2
REMARK    2  A    between atoms: O_2  and  C_3
REMARK    3  A    between atoms: C_3  and  C_5
REMARK    4  A    between atoms: C_10  and  S_11
REMARK    5  A    between atoms: S_11  and  N_14
REMARK    6  A    between atoms: N_14  and  N_15
REMARK    7  A    between atoms: C_16  and  C_18
REMARK    8  A    between atoms: C_23  and  N_24
REMARK                            x       y       z     vdW  Elec       q    Type
REMARK                         _______ _______ _______ _____ _____    ______ ____
ROOT
ATOM      1  N   UNL     1       1.710   8.749  21.088  0.00  0.00    +0.000 NA
ATOM      2  H   UNL     1       2.217   9.298  20.376  0.00  0.00    +0.000 HD
ENDROOT
BRANCH   1   3
ATOM      3  N   UNL     1       1.762   7.290  20.979  0.00  0.00    +0.000 N 
ATOM      4  C   UNL     1       2.226   6.700  19.813  0.00  0.00    +0.000 C 
ATOM      5  O   UNL     1       2.575   7.353  18.834  0.00  0.00    +0.000 OA
ATOM      6  H   UNL     1       1.452   6.765  21.791  0.00  0.00    +0.000 HD
BRANCH   4   7
ATOM      7  C   UNL     1       2.260   5.197  19.807  0.00  0.00    +0.000 A 
ATOM      8  C   UNL     1       1.206   4.516  20.450  0.00  0.00    +0.000 A 
ATOM      9  C   UNL     1       1.088   3.124  20.385  0.00  0.00    +0.000 A 
ATOM     10  C   UNL     1       1.994   2.387  19.635  0.00  0.00    +0.000 A 
ATOM     11  C   UNL     1       3.038   3.036  18.979  0.00  0.00    +0.000 A 
ATOM     12  C   UNL     1       3.200   4.436  19.071  0.00  0.00    +0.000 A 
BRANCH  12  13
ATOM     13  N   UNL     1       4.374   4.986  18.476  0.00  0.00    +0.000 N 
ATOM     14  C   UNL     1       4.545   5.259  17.128  0.00  0.00    +0.000 A 
ATOM     15  C   UNL     1       5.837   5.680  16.905  0.00  0.00    +0.000 A 
ATOM     16  C   UNL     1       6.502   5.642  18.147  0.00  0.00    +0.000 A 
ATOM     17  C   UNL     1       5.593   5.204  19.087  0.00  0.00    +0.000 A 
ENDBRANCH  12  13
ENDBRANCH   4   7
ENDBRANCH   1   3
BRANCH   1  18
ATOM     18  S   UNL     1       0.355   9.417  21.840  0.00  0.00    +0.000 S 
ATOM     19  O   UNL     1       0.751   9.637  23.220  0.00  0.00    +0.000 OA
ATOM     20  O   UNL     1      -0.798   8.589  21.560  0.00  0.00    +0.000 OA
BRANCH  18  26
ATOM     21  C   UNL     1      -0.329  11.163  19.765  0.00  0.00    +0.000 A 
ATOM     22  C   UNL     1      -0.687  12.445  19.300  0.00  0.00    +0.000 A 
ATOM     23  C   UNL     1      -0.677  13.546  20.155  0.00  0.00    +0.000 A 
ATOM     24  C   UNL     1      -0.308  13.386  21.485  0.00  0.00    +0.000 A 
ATOM     25  C   UNL     1       0.057  12.124  21.958  0.00  0.00    +0.000 A 
ATOM     26  C   UNL     1       0.068  11.007  21.101  0.00  0.00    +0.000 A 
BRANCH  21  27
ATOM     27  C   UNL     1      -0.300  10.056  18.785  0.00  0.00    +0.000 C 
ATOM     28  O   UNL     1       0.742   9.632  18.304  0.00  0.00    +0.000 OA
BRANCH  27  30
ATOM     29  C   UNL     1      -1.967  10.003  17.125  0.00  0.00    +0.000 C 
ATOM     30  O   UNL     1      -1.558   9.680  18.458  0.00  0.00    +0.000 OA
ENDBRANCH  27  30
ENDBRANCH  21  27
ENDBRANCH  18  26
ENDBRANCH   1  18
TORSDOF 7
ENDMDL
MODEL 7
REMARK VINA RESULT:      -7.7      0.742      1.011
REMARK  Name = 
REMARK  8 active torsions:
REMARK  status: ('A' for Active; 'I' for Inactive)
REMARK    1  A    between atoms: C_1  and  O_2
REMARK    2  A    between atoms: O_2  and  C_3
REMARK    3  A    between atoms: C_3  and  C_5
REMARK    4  A    between atoms: C_10  and  S_11
REMARK    5  A    between atoms: S_11  and  N_14
REMARK    6  A    between atoms: N_14  and  N_15
REMARK    7  A    between atoms: C_16  and  C_18
REMARK    8  A    between atoms: C_23  and  N_24
REMARK                            x       y       z     vdW  Elec       q    Type
REMARK                         _______ _______ _______ _____ _____    ______ ____
ROOT
ATOM      1  N   UNL     1       1.569   8.627  20.313  0.00  0.00    +0.000 NA
ATOM      2  H   UNL     1       1.696   8.970  19.348  0.00  0.00    +0.000 HD
ENDROOT
BRANCH   1   3
ATOM      3  N   UNL     1       1.737   7.192  20.548  0.00  0.00    +0.000 N 
ATOM      4  C   UNL     1       2.177   6.370  19.522  0.00  0.00    +0.000 C 
ATOM      5  O   UNL     1       2.409   6.789  18.392  0.00  0.00    +0.000 OA
ATOM      6  H   UNL     1       1.524   6.860  21.485  0.00  0.00    +0.000 HD
BRANCH   4   7
ATOM      7  C   UNL     1       2.339   4.916  19.869  0.00  0.00    +0.000 A 
ATOM      8  C   UNL     1       1.327   4.312  20.645  0.00  0.00    +0.000 A 
ATOM      9  C   UNL     1       1.330   2.939  20.907  0.00  0.00    +0.000 A 
ATOM     10  C   UNL     1       2.316   2.132  20.359  0.00  0.00    +0.000 A 
ATOM     11  C   UNL     1       3.321   2.700  19.578  0.00  0.00    +0.000 A 
ATOM     12  C   UNL     1       3.361   4.092  19.340  0.00  0.00    +0.000 A 
BRANCH  12  13
ATOM     13  N   UNL     1       4.501   4.591  18.643  0.00  0.00    +0.000 N 
ATOM     14  C   UNL     1       5.581   5.240  19.219  0.00  0.00    +0.000 A 
ATOM     15  C   UNL     1       6.437   5.672  18.231  0.00  0.00    +0.000 A 
ATOM     16  C   UNL     1       5.861   5.306  16.998  0.00  0.00    +0.000 A 
ATOM     17  C   UNL     1       4.675   4.659  17.275  0.00  0.00    +0.000 A 
ENDBRANCH  12  13
ENDBRANCH   4   7
ENDBRANCH   1   3
BRANCH   1  18
ATOM     18  S   UNL     1       0.542   9.463  21.361  0.00  0.00    +0.000 S 
ATOM     19  O   UNL     1       1.403  10.374  22.097  0.00  0.00    +0.000 OA
ATOM     20  O   UNL     1      -0.267   8.512  22.090  0.00  0.00    +0.000 OA
BRANCH  18  26
ATOM     21  C   UNL     1      -1.206  11.585  20.848  0.00  0.00    +0.000 A 
ATOM     22  C   UNL     1      -1.930  12.396  19.950  0.00  0.00    +0.000 A 
ATOM     23  C   UNL     1      -1.978  12.095  18.590  0.00  0.00    +0.000 A 
ATOM     24  C   UNL     1      -1.307  10.979  18.105  0.00  0.00    +0.000 A 
ATOM     25  C   UNL     1      -0.593  10.161  18.982  0.00  0.00    +0.000 A 
ATOM     26  C   UNL     1      -0.550  10.445  20.361  0.00  0.00    +0.000 A 
BRANCH  21  27
ATOM     27  C   UNL     1      -1.255  11.931  22.285  0.00  0.00    +0.000 C 
ATOM     28  O   UNL     1      -1.936  11.307  23.087  0.00  0.00    +0.000 OA
BRANCH  27  30
ATOM     29  C   UNL     1      -1.148  13.995  23.409  0.00  0.00    +0.000 C 
ATOM     30  O   UNL     1      -0.533  13.049  22.527  0.00  0.00    +0.000 OA
ENDBRANCH  27  30
ENDBRANCH  21  27
ENDBRANCH  18  26
ENDBRANCH   1  18
TORSDOF 7
ENDMDL
MODEL 8
REMARK VINA RESULT:      -7.7      1.183      2.385
REMARK  Name = 
REMARK  8 active torsions:
REMARK  status: ('A' for Active; 'I' for Inactive)
REMARK    1  A    between atoms: C_1  and  O_2
REMARK    2  A    between atoms: O_2  and  C_3
REMARK    3  A    between atoms: C_3  and  C_5
REMARK    4  A    between atoms: C_10  and  S_11
REMARK    5  A    between atoms: S_11  and  N_14
REMARK    6  A    between atoms: N_14  and  N_15
REMARK    7  A    between atoms: C_16  and  C_18
REMARK    8  A    between atoms: C_23  and  N_24
REMARK                            x       y       z     vdW  Elec       q    Type
REMARK                         _______ _______ _______ _____ _____    ______ ____
ROOT
ATOM      1  N   UNL     1       1.396   8.821  21.303  0.00  0.00    +0.000 NA
ATOM      2  H   UNL     1       1.690   9.430  20.523  0.00  0.00    +0.000 HD
ENDROOT
BRANCH   1   3
ATOM      3  N   UNL     1       1.537   7.375  21.121  0.00  0.00    +0.000 N 
ATOM      4  C   UNL     1       2.110   6.877  19.962  0.00  0.00    +0.000 C 
ATOM      5  O   UNL     1       2.488   7.601  19.046  0.00  0.00    +0.000 OA
ATOM      6  H   UNL     1       1.203   6.790  21.882  0.00  0.00    +0.000 HD
BRANCH   4   7
ATOM      7  C   UNL     1       2.230   5.380  19.880  0.00  0.00    +0.000 A 
ATOM      8  C   UNL     1       1.256   4.608  20.546  0.00  0.00    +0.000 A 
ATOM      9  C   UNL     1       1.213   3.217  20.419  0.00  0.00    +0.000 A 
ATOM     10  C   UNL     1       2.114   2.570  19.585  0.00  0.00    +0.000 A 
ATOM     11  C   UNL     1       3.080   3.309  18.904  0.00  0.00    +0.000 A 
ATOM     12  C   UNL     1       3.167   4.711  19.056  0.00  0.00    +0.000 A 
BRANCH  12  13
ATOM     13  N   UNL     1       4.271   5.357  18.424  0.00  0.00    +0.000 N 
ATOM     14  C   UNL     1       4.325   5.751  17.097  0.00  0.00    +0.000 A 
ATOM     15  C   UNL     1       5.580   6.242  16.813  0.00  0.00    +0.000 A 
ATOM     16  C   UNL     1       6.343   6.124  17.993  0.00  0.00    +0.000 A 
ATOM     17  C   UNL     1       5.526   5.571  18.957  0.00  0.00    +0.000 A 
ENDBRANCH  12  13
ENDBRANCH   4   7
ENDBRANCH   1   3
BRANCH   1  18
ATOM     18  S   UNL     1       0.188   9.350  22.357  0.00  0.00    +0.000 S 
ATOM     19  O   UNL     1       0.848   9.523  23.640  0.00  0.00    +0.000 OA
ATOM     20  O   UNL     1      -0.948   8.459  22.262  0.00  0.00    +0.000 OA
BRANCH  18  26
ATOM     21  C   UNL     1      -0.327  11.328  20.449  0.00  0.00    +0.000 A 
ATOM     22  C   UNL     1      -0.905  12.559  20.074  0.00  0.00    +0.000 A 
ATOM     23  C   UNL     1      -1.504  13.387  21.021  0.00  0.00    +0.000 A 
ATOM     24  C   UNL     1      -1.535  13.003  22.356  0.00  0.00    +0.000 A 
ATOM     25  C   UNL     1      -0.960  11.791  22.745  0.00  0.00    +0.000 A 
ATOM     26  C   UNL     1      -0.336  10.953  21.801  0.00  0.00    +0.000 A 
BRANCH  21  27
ATOM     27  C   UNL     1       0.348  10.534  19.400  0.00  0.00    +0.000 C 
ATOM     28  O   UNL     1      -0.236   9.683  18.744  0.00  0.00    +0.000 OA
BRANCH  27  30
ATOM     29  C   UNL     1       2.136  11.369  18.119  0.00  0.00    +0.000 C 
ATOM     30  O   UNL     1       1.668  10.829  19.360  0.00  0.00    +0.000 OA
ENDBRANCH  27  30
ENDBRANCH  21  27
ENDBRANCH  18  26
ENDBRANCH   1  18
TORSDOF 7
ENDMDL
MODEL 9
REMARK VINA RESULT:      -7.6      2.964      8.481
REMARK  Name = 
REMARK  8 active torsions:
REMARK  status: ('A' for Active; 'I' for Inactive)
REMARK    1  A    between atoms: C_1  and  O_2
REMARK    2  A    between atoms: O_2  and  C_3
REMARK    3  A    between atoms: C_3  and  C_5
REMARK    4  A    between atoms: C_10  and  S_11
REMARK    5  A    between atoms: S_11  and  N_14
REMARK    6  A    between atoms: N_14  and  N_15
REMARK    7  A    between atoms: C_16  and  C_18
REMARK    8  A    between atoms: C_23  and  N_24
REMARK                            x       y       z     vdW  Elec       q    Type
REMARK                         _______ _______ _______ _____ _____    ______ ____
ROOT
ATOM      1  N   UNL     1       3.206   8.074  18.076  0.00  0.00    +0.000 NA
ATOM      2  H   UNL     1       3.968   8.551  18.582  0.00  0.00    +0.000 HD
ENDROOT
BRANCH   1   3
ATOM      3  N   UNL     1       2.024   8.867  17.731  0.00  0.00    +0.000 N 
ATOM      4  C   UNL     1       1.215   9.374  18.736  0.00  0.00    +0.000 C 
ATOM      5  O   UNL     1       1.427   9.163  19.927  0.00  0.00    +0.000 OA
ATOM      6  H   UNL     1       1.854   9.016  16.741  0.00  0.00    +0.000 HD
BRANCH   4   7
ATOM      7  C   UNL     1       0.039  10.193  18.281  0.00  0.00    +0.000 A 
ATOM      8  C   UNL     1      -1.013   9.519  17.625  0.00  0.00    +0.000 A 
ATOM      9  C   UNL     1      -2.199  10.174  17.282  0.00  0.00    +0.000 A 
ATOM     10  C   UNL     1      -2.379  11.505  17.630  0.00  0.00    +0.000 A 
ATOM     11  C   UNL     1      -1.362  12.192  18.289  0.00  0.00    +0.000 A 
ATOM     12  C   UNL     1      -0.139  11.560  18.604  0.00  0.00    +0.000 A 
BRANCH  12  13
ATOM     13  N   UNL     1       0.885  12.384  19.158  0.00  0.00    +0.000 N 
ATOM     14  C   UNL     1       1.926  12.964  18.451  0.00  0.00    +0.000 A 
ATOM     15  C   UNL     1       2.778  13.599  19.326  0.00  0.00    +0.000 A 
ATOM     16  C   UNL     1       2.269  13.385  20.623  0.00  0.00    +0.000 A 
ATOM     17  C   UNL     1       1.122  12.631  20.495  0.00  0.00    +0.000 A 
ENDBRANCH  12  13
ENDBRANCH   4   7
ENDBRANCH   1   3
BRANCH   1  18
ATOM     18  S   UNL     1       2.985   6.414  18.285  0.00  0.00    +0.000 S 
ATOM     19  O   UNL     1       1.661   6.133  17.757  0.00  0.00    +0.000 OA
ATOM     20  O   UNL     1       3.287   6.065  19.656  0.00  0.00    +0.000 OA
BRANCH  18  26
ATOM     21  C   UNL     1       4.246   4.189  17.152  0.00  0.00    +0.000 A 
ATOM     22  C   UNL     1       5.102   3.615  16.190  0.00  0.00    +0.000 A 
ATOM     23  C   UNL     1       5.841   4.413  15.320  0.00  0.00    +0.000 A 
ATOM     24  C   UNL     1       5.741   5.797  15.398  0.00  0.00    +0.000 A 
ATOM     25  C   UNL     1       4.905   6.382  16.350  0.00  0.00    +0.000 A 
ATOM     26  C   UNL     1       4.165   5.587  17.247  0.00  0.00    +0.000 A 
BRANCH  21  27
ATOM     27  C   UNL     1       3.544   3.280  18.083  0.00  0.00    +0.000 C 
ATOM     28  O   UNL     1       4.053   2.884  19.123  0.00  0.00    +0.000 OA
BRANCH  27  30
ATOM     29  C   UNL     1       1.305   2.713  18.529  0.00  0.00    +0.000 C 
ATOM     30  O   UNL     1       2.349   2.908  17.570  0.00  0.00    +0.000 OA
ENDBRANCH  27  30
ENDBRANCH  21  27
ENDBRANCH  18  26
ENDBRANCH   1  18
TORSDOF 7
ENDMDL
