MODEL 1
REMARK VINA RESULT:      -7.8      0.000      0.000
REMARK  Name = 
REMARK  8 active torsions:
REMARK  status: ('A' for Active; 'I' for Inactive)
REMARK    1  A    between atoms: C_1  and  O_2
REMARK    2  A    between atoms: O_2  and  C_3
REMARK    3  A    between atoms: C_5  and  C_6
REMARK    4  A    between atoms: C_7  and  C_8
REMARK    5  A    between atoms: C_13  and  C_14
REMARK    6  A    between atoms: C_14  and  O_15
REMARK    7  A    between atoms: C_14  and  C_16
REMARK    8  A    between atoms: C_16  and  C_17
REMARK                            x       y       z     vdW  Elec       q    Type
REMARK                         _______ _______ _______ _____ _____    ______ ____
ROOT
ATOM      1  C   UNL     1       6.034   4.295  18.162  0.00  0.00    +0.000 C 
ATOM      2  O   UNL     1       6.859   4.346  19.082  0.00  0.00    +0.000 OA
ATOM      3  N   UNL     1       4.764   3.748  18.425  0.00  0.00    +0.000 N 
ATOM      4  C   UNL     1       4.360   3.625  19.832  0.00  0.00    +0.000 C 
ATOM      5  C   UNL     1       3.439   2.431  20.083  0.00  0.00    +0.000 C 
ATOM      6  C   UNL     1       2.240   2.350  19.115  0.00  0.00    +0.000 C 
ATOM      7  C   UNL     1       2.799   2.382  17.693  0.00  0.00    +0.000 C 
ATOM      8  C   UNL     1       3.712   3.577  17.435  0.00  0.00    +0.000 C 
ENDROOT
BRANCH   1  13
ATOM      9  C   UNL     1       6.878   4.790  14.447  0.00  0.00    +0.000 A 
ATOM     10  N   UNL     1       7.206   5.942  14.971  0.00  0.00    +0.000 NA
ATOM     11  C   UNL     1       6.991   5.934  16.339  0.00  0.00    +0.000 A 
ATOM     12  C   UNL     1       7.507   7.140  17.039  0.00  0.00    +0.000 C 
ATOM     13  C   UNL     1       6.383   4.783  16.833  0.00  0.00    +0.000 A 
ATOM     14  S   UNL     1       6.137   3.686  15.507  0.00  0.00    +0.000 S 
BRANCH   9  16
ATOM     15  C   UNL     1       6.225   3.535  12.624  0.00  0.00    +0.000 C 
ATOM     16  O   UNL     1       7.131   4.487  13.175  0.00  0.00    +0.000 OA
ENDBRANCH   9  16
ENDBRANCH   1  13
BRANCH   6  17
ATOM     17  C   UNL     1       1.157   3.416  19.430  0.00  0.00    +0.000 C 
BRANCH  17  18
ATOM     18  O   UNL     1      -0.078   2.787  19.763  0.00  0.00    +0.000 OA
ATOM     19  H   UNL     1      -0.135   2.677  20.728  0.00  0.00    +0.000 HD
ENDBRANCH  17  18
BRANCH  17  20
ATOM     20  C   UNL     1       1.569   4.413  20.541  0.00  0.00    +0.000 C 
BRANCH  20  21
ATOM     21  C   UNL     1       1.704   5.859  20.095  0.00  0.00    +0.000 A 
ATOM     22  C   UNL     1       1.331   6.884  20.979  0.00  0.00    +0.000 A 
ATOM     23  C   UNL     1       1.411   8.225  20.595  0.00  0.00    +0.000 A 
ATOM     24  C   UNL     1       1.875   8.562  19.327  0.00  0.00    +0.000 A 
ATOM     25  C   UNL     1       2.273   7.559  18.447  0.00  0.00    +0.000 A 
ATOM     26  C   UNL     1       2.197   6.219  18.833  0.00  0.00    +0.000 A 
ENDBRANCH  20  21
ENDBRANCH  17  20
ENDBRANCH   6  17
TORSDOF 6
ENDMDL
MODEL 2
REMARK VINA RESULT:      -7.3      3.948      6.483
REMARK  Name = 
REMARK  8 active torsions:
REMARK  status: ('A' for Active; 'I' for Inactive)
REMARK    1  A    between atoms: C_1  and  O_2
REMARK    2  A    between atoms: O_2  and  C_3
REMARK    3  A    between atoms: C_5  and  C_6
REMARK    4  A    between atoms: C_7  and  C_8
REMARK    5  A    between atoms: C_13  and  C_14
REMARK    6  A    between atoms: C_14  and  O_15
REMARK    7  A    between atoms: C_14  and  C_16
REMARK    8  A    between atoms: C_16  and  C_17
REMARK                            x       y       z     vdW  Elec       q    Type
REMARK                         _______ _______ _______ _____ _____    ______ ____
ROOT
ATOM      1  C   UNL     1       3.253   6.827  18.001  0.00  0.00    +0.000 C 
ATOM      2  O   UNL     1       3.730   7.109  16.894  0.00  0.00    +0.000 OA
ATOM      3  N   UNL     1       2.462   7.788  18.658  0.00  0.00    +0.000 N 
ATOM      4  C   UNL     1       1.936   8.896  17.850  0.00  0.00    +0.000 C 
ATOM      5  C   UNL     1       1.783  10.192  18.647  0.00  0.00    +0.000 C 
ATOM      6  C   UNL     1       1.025  10.022  19.981  0.00  0.00    +0.000 C 
ATOM      7  C   UNL     1       1.731   8.917  20.768  0.00  0.00    +0.000 C 
ATOM      8  C   UNL     1       1.878   7.619  19.980  0.00  0.00    +0.000 C 
ENDROOT
BRANCH   1  13
ATOM      9  C   UNL     1       3.149   3.391  19.715  0.00  0.00    +0.000 A 
ATOM     10  N   UNL     1       4.427   3.664  19.698  0.00  0.00    +0.000 NA
ATOM     11  C   UNL     1       4.653   4.906  19.130  0.00  0.00    +0.000 A 
ATOM     12  C   UNL     1       6.061   5.372  19.236  0.00  0.00    +0.000 C 
ATOM     13  C   UNL     1       3.523   5.529  18.609  0.00  0.00    +0.000 A 
ATOM     14  S   UNL     1       2.150   4.506  18.909  0.00  0.00    +0.000 S 
BRANCH   9  16
ATOM     15  C   UNL     1       1.839   2.656  21.467  0.00  0.00    +0.000 C 
ATOM     16  O   UNL     1       2.655   2.327  20.346  0.00  0.00    +0.000 OA
ENDBRANCH   9  16
ENDBRANCH   1  13
BRANCH   6  17
ATOM     17  C   UNL     1      -0.499   9.820  19.770  0.00  0.00    +0.000 C 
BRANCH  17  18
ATOM     18  O   UNL     1      -1.098   9.291  20.950  0.00  0.00    +0.000 OA
ATOM     19  H   UNL     1      -1.511   8.434  20.747  0.00  0.00    +0.000 HD
ENDBRANCH  17  18
BRANCH  17  20
ATOM     20  C   UNL     1      -1.241  11.101  19.320  0.00  0.00    +0.000 C 
BRANCH  20  21
ATOM     21  C   UNL     1      -2.182  10.924  18.140  0.00  0.00    +0.000 A 
ATOM     22  C   UNL     1      -1.812  10.064  17.094  0.00  0.00    +0.000 A 
ATOM     23  C   UNL     1      -2.635   9.899  15.978  0.00  0.00    +0.000 A 
ATOM     24  C   UNL     1      -3.845  10.583  15.895  0.00  0.00    +0.000 A 
ATOM     25  C   UNL     1      -4.238  11.421  16.935  0.00  0.00    +0.000 A 
ATOM     26  C   UNL     1      -3.417  11.582  18.053  0.00  0.00    +0.000 A 
ENDBRANCH  20  21
ENDBRANCH  17  20
ENDBRANCH   6  17
TORSDOF 6
ENDMDL
MODEL 3
REMARK VINA RESULT:      -7.3      1.824      2.555
REMARK  Name = 
REMARK  8 active torsions:
REMARK  status: ('A' for Active; 'I' for Inactive)
REMARK    1  A    between atoms: C_1  and  O_2
REMARK    2  A    between atoms: O_2  and  C_3
REMARK    3  A    between atoms: C_5  and  C_6
REMARK    4  A    between atoms: C_7  and  C_8
REMARK    5  A    between atoms: C_13  and  C_14
REMARK    6  A    between atoms: C_14  and  O_15
REMARK    7  A    between atoms: C_14  and  C_16
REMARK    8  A    between atoms: C_16  and  C_17
REMARK                            x       y       z     vdW  Elec       q    Type
REMARK                         _______ _______ _______ _____ _____    ______ ____
ROOT
ATOM      1  C   UNL     1       6.703   5.439  15.750  0.00  0.00    +0.000 C 
ATOM      2  O   UNL     1       7.606   6.217  16.081  0.00  0.00    +0.000 OA
ATOM      3  N   UNL     1       5.742   5.073  16.712  0.00  0.00    +0.000 N 
ATOM      4  C   UNL     1       5.638   5.911  17.914  0.00  0.00    +0.000 C 
ATOM      5  C   UNL     1       5.211   5.123  19.152  0.00  0.00    +0.000 C 
ATOM      6  C   UNL     1       3.961   4.243  18.935  0.00  0.00    +0.000 C 
ATOM      7  C   UNL     1       4.238   3.350  17.725  0.00  0.00    +0.000 C 
ATOM      8  C   UNL     1       4.656   4.134  16.485  0.00  0.00    +0.000 C 
ENDROOT
BRANCH   1  13
ATOM      9  C   UNL     1       6.044   3.494  12.504  0.00  0.00    +0.000 A 
ATOM     10  N   UNL     1       7.061   4.250  12.183  0.00  0.00    +0.000 NA
ATOM     11  C   UNL     1       7.460   5.015  13.266  0.00  0.00    +0.000 A 
ATOM     12  C   UNL     1       8.722   5.768  13.042  0.00  0.00    +0.000 C 
ATOM     13  C   UNL     1       6.651   4.907  14.393  0.00  0.00    +0.000 A 
ATOM     14  S   UNL     1       5.389   3.762  14.049  0.00  0.00    +0.000 S 
BRANCH   9  16
ATOM     15  C   UNL     1       4.273   2.853  11.171  0.00  0.00    +0.000 C 
ATOM     16  O   UNL     1       5.568   2.556  11.687  0.00  0.00    +0.000 OA
ENDBRANCH   9  16
ENDBRANCH   1  13
BRANCH   6  17
ATOM     17  C   UNL     1       2.657   5.082  18.860  0.00  0.00    +0.000 C 
BRANCH  17  18
ATOM     18  O   UNL     1       1.517   4.227  18.857  0.00  0.00    +0.000 OA
ATOM     19  H   UNL     1       1.751   3.373  19.260  0.00  0.00    +0.000 HD
ENDBRANCH  17  18
BRANCH  17  20
ATOM     20  C   UNL     1       2.532   6.140  19.982  0.00  0.00    +0.000 C 
BRANCH  20  21
ATOM     21  C   UNL     1       2.088   7.520  19.525  0.00  0.00    +0.000 A 
ATOM     22  C   UNL     1       1.402   8.350  20.426  0.00  0.00    +0.000 A 
ATOM     23  C   UNL     1       0.949   9.612  20.034  0.00  0.00    +0.000 A 
ATOM     24  C   UNL     1       1.185  10.067  18.740  0.00  0.00    +0.000 A 
ATOM     25  C   UNL     1       1.886   9.267  17.842  0.00  0.00    +0.000 A 
ATOM     26  C   UNL     1       2.343   8.007  18.236  0.00  0.00    +0.000 A 
ENDBRANCH  20  21
ENDBRANCH  17  20
ENDBRANCH   6  17
TORSDOF 6
ENDMDL
MODEL 4
REMARK VINA RESULT:      -7.2      3.986      6.517
REMARK  Name = 
REMARK  8 active torsions:
REMARK  status: ('A' for Active; 'I' for Inactive)
REMARK    1  A    between atoms: C_1  and  O_2
REMARK    2  A    between atoms: O_2  and  C_3
REMARK    3  A    between atoms: C_5  and  C_6
REMARK    4  A    between atoms: C_7  and  C_8
REMARK    5  A    between atoms: C_13  and  C_14
REMARK    6  A    between atoms: C_14  and  O_15
REMARK    7  A    between atoms: C_14  and  C_16
REMARK    8  A    between atoms: C_16  and  C_17
REMARK                            x       y       z     vdW  Elec       q    Type
REMARK                         _______ _______ _______ _____ _____    ______ ____
ROOT
ATOM      1  C   UNL     1       3.157   7.115  17.922  0.00  0.00    +0.000 C 
ATOM      2  O   UNL     1       3.700   7.480  16.871  0.00  0.00    +0.000 OA
ATOM      3  N   UNL     1       2.370   8.043  18.630  0.00  0.00    +0.000 N 
ATOM      4  C   UNL     1       1.928   9.243  17.909  0.00  0.00    +0.000 C 
ATOM      5  C   UNL     1       1.783  10.464  18.819  0.00  0.00    +0.000 C 
ATOM      6  C   UNL     1       0.953  10.200  20.092  0.00  0.00    +0.000 C 
ATOM      7  C   UNL     1       1.575   8.998  20.802  0.00  0.00    +0.000 C 
ATOM      8  C   UNL     1       1.713   7.775  19.900  0.00  0.00    +0.000 C 
ENDROOT
BRANCH   1  13
ATOM      9  C   UNL     1       4.436   3.769  19.306  0.00  0.00    +0.000 A 
ATOM     10  N   UNL     1       3.238   3.463  18.882  0.00  0.00    +0.000 NA
ATOM     11  C   UNL     1       2.627   4.567  18.313  0.00  0.00    +0.000 A 
ATOM     12  C   UNL     1       1.336   4.264  17.642  0.00  0.00    +0.000 C 
ATOM     13  C   UNL     1       3.345   5.756  18.414  0.00  0.00    +0.000 A 
ATOM     14  S   UNL     1       4.850   5.415  19.215  0.00  0.00    +0.000 S 
BRANCH   9  16
ATOM     15  C   UNL     1       4.665   1.810  20.505  0.00  0.00    +0.000 C 
ATOM     16  O   UNL     1       5.289   2.850  19.756  0.00  0.00    +0.000 OA
ENDBRANCH   9  16
ENDBRANCH   1  13
BRANCH   6  17
ATOM     17  C   UNL     1      -0.565  10.084  19.791  0.00  0.00    +0.000 C 
BRANCH  17  18
ATOM     18  O   UNL     1      -1.287   9.785  20.983  0.00  0.00    +0.000 OA
ATOM     19  H   UNL     1      -2.133  10.264  20.978  0.00  0.00    +0.000 HD
ENDBRANCH  17  18
BRANCH  17  20
ATOM     20  C   UNL     1      -1.161  11.336  19.103  0.00  0.00    +0.000 C 
BRANCH  20  21
ATOM     21  C   UNL     1      -2.158  11.052  17.992  0.00  0.00    +0.000 A 
ATOM     22  C   UNL     1      -1.845  10.085  17.024  0.00  0.00    +0.000 A 
ATOM     23  C   UNL     1      -2.721   9.817  15.969  0.00  0.00    +0.000 A 
ATOM     24  C   UNL     1      -3.928  10.504  15.873  0.00  0.00    +0.000 A 
ATOM     25  C   UNL     1      -4.265  11.448  16.839  0.00  0.00    +0.000 A 
ATOM     26  C   UNL     1      -3.391  11.712  17.896  0.00  0.00    +0.000 A 
ENDBRANCH  20  21
ENDBRANCH  17  20
ENDBRANCH   6  17
TORSDOF 6
ENDMDL
MODEL 5
REMARK VINA RESULT:      -7.2      0.928      1.399
REMARK  Name = 
REMARK  8 active torsions:
REMARK  status: ('A' for Active; 'I' for Inactive)
REMARK    1  A    between atoms: C_1  and  O_2
REMARK    2  A    between atoms: O_2  and  C_3
REMARK    3  A    between atoms: C_5  and  C_6
REMARK    4  A    between atoms: C_7  and  C_8
REMARK    5  A    between atoms: C_13  and  C_14
REMARK    6  A    between atoms: C_14  and  O_15
REMARK    7  A    between atoms: C_14  and  C_16
REMARK    8  A    between atoms: C_16  and  C_17
REMARK                            x       y       z     vdW  Elec       q    Type
REMARK                         _______ _______ _______ _____ _____    ______ ____
ROOT
ATOM      1  C   UNL     1       5.950   4.267  17.740  0.00  0.00    +0.000 C 
ATOM      2  O   UNL     1       6.958   4.302  18.457  0.00  0.00    +0.000 OA
ATOM      3  N   UNL     1       4.754   3.763  18.284  0.00  0.00    +0.000 N 
ATOM      4  C   UNL     1       4.664   3.669  19.747  0.00  0.00    +0.000 C 
ATOM      5  C   UNL     1       3.787   2.508  20.216  0.00  0.00    +0.000 C 
ATOM      6  C   UNL     1       2.403   2.454  19.535  0.00  0.00    +0.000 C 
ATOM      7  C   UNL     1       2.638   2.452  18.024  0.00  0.00    +0.000 C 
ATOM      8  C   UNL     1       3.506   3.614  17.551  0.00  0.00    +0.000 C 
ENDROOT
BRANCH   1  13
ATOM      9  C   UNL     1       6.682   4.886  14.021  0.00  0.00    +0.000 A 
ATOM     10  N   UNL     1       5.973   5.934  14.351  0.00  0.00    +0.000 NA
ATOM     11  C   UNL     1       5.639   5.892  15.694  0.00  0.00    +0.000 A 
ATOM     12  C   UNL     1       4.989   7.132  16.194  0.00  0.00    +0.000 C 
ATOM     13  C   UNL     1       6.014   4.728  16.358  0.00  0.00    +0.000 A 
ATOM     14  S   UNL     1       6.853   3.704  15.230  0.00  0.00    +0.000 S 
BRANCH   9  16
ATOM     15  C   UNL     1       8.252   5.750  12.567  0.00  0.00    +0.000 C 
ATOM     16  O   UNL     1       7.257   4.763  12.826  0.00  0.00    +0.000 OA
ENDBRANCH   9  16
ENDBRANCH   1  13
BRANCH   6  17
ATOM     17  C   UNL     1       1.446   3.558  20.058  0.00  0.00    +0.000 C 
BRANCH  17  18
ATOM     18  O   UNL     1       0.414   2.983  20.857  0.00  0.00    +0.000 OA
ATOM     19  H   UNL     1       0.444   3.367  21.750  0.00  0.00    +0.000 HD
ENDBRANCH  17  18
BRANCH  17  20
ATOM     20  C   UNL     1       2.164   4.685  20.839  0.00  0.00    +0.000 C 
BRANCH  20  21
ATOM     21  C   UNL     1       1.975   6.085  20.278  0.00  0.00    +0.000 A 
ATOM     22  C   UNL     1       2.345   6.343  18.949  0.00  0.00    +0.000 A 
ATOM     23  C   UNL     1       2.215   7.624  18.406  0.00  0.00    +0.000 A 
ATOM     24  C   UNL     1       1.705   8.662  19.180  0.00  0.00    +0.000 A 
ATOM     25  C   UNL     1       1.309   8.417  20.492  0.00  0.00    +0.000 A 
ATOM     26  C   UNL     1       1.434   7.135  21.033  0.00  0.00    +0.000 A 
ENDBRANCH  20  21
ENDBRANCH  17  20
ENDBRANCH   6  17
TORSDOF 6
ENDMDL
MODEL 6
REMARK VINA RESULT:      -7.1      3.794      7.289
REMARK  Name = 
REMARK  8 active torsions:
REMARK  status: ('A' for Active; 'I' for Inactive)
REMARK    1  A    between atoms: C_1  and  O_2
REMARK    2  A    between atoms: O_2  and  C_3
REMARK    3  A    between atoms: C_5  and  C_6
REMARK    4  A    between atoms: C_7  and  C_8
REMARK    5  A    between atoms: C_13  and  C_14
REMARK    6  A    between atoms: C_14  and  O_15
REMARK    7  A    between atoms: C_14  and  C_16
REMARK    8  A    between atoms: C_16  and  C_17
REMARK                            x       y       z     vdW  Elec       q    Type
REMARK                         _______ _______ _______ _____ _____    ______ ____
ROOT
ATOM      1  C   UNL     1       1.620   8.332  18.686  0.00  0.00    +0.000 C 
ATOM      2  O   UNL     1       1.370   8.704  17.532  0.00  0.00    +0.000 OA
ATOM      3  N   UNL     1       2.143   7.040  18.879  0.00  0.00    +0.000 N 
ATOM      4  C   UNL     1       2.715   6.361  17.709  0.00  0.00    +0.000 C 
ATOM      5  C   UNL     1       2.553   4.842  17.765  0.00  0.00    +0.000 C 
ATOM      6  C   UNL     1       3.014   4.212  19.097  0.00  0.00    +0.000 C 
ATOM      7  C   UNL     1       2.272   4.933  20.223  0.00  0.00    +0.000 C 
ATOM      8  C   UNL     1       2.438   6.449  20.175  0.00  0.00    +0.000 C 
ENDROOT
BRANCH   1  13
ATOM      9  C   UNL     1       0.592   9.996  21.992  0.00  0.00    +0.000 A 
ATOM     10  N   UNL     1       0.943  11.017  21.255  0.00  0.00    +0.000 NA
ATOM     11  C   UNL     1       1.322  10.598  19.991  0.00  0.00    +0.000 A 
ATOM     12  C   UNL     1       1.562  11.708  19.033  0.00  0.00    +0.000 C 
ATOM     13  C   UNL     1       1.362   9.217  19.816  0.00  0.00    +0.000 A 
ATOM     14  S   UNL     1       0.850   8.466  21.298  0.00  0.00    +0.000 S 
BRANCH   9  16
ATOM     15  C   UNL     1      -1.186  10.864  23.179  0.00  0.00    +0.000 C 
ATOM     16  O   UNL     1       0.042  10.141  23.197  0.00  0.00    +0.000 OA
ENDBRANCH   9  16
ENDBRANCH   1  13
BRANCH   6  17
ATOM     17  C   UNL     1       4.560   4.182  19.229  0.00  0.00    +0.000 C 
BRANCH  17  18
ATOM     18  O   UNL     1       4.989   2.927  19.751  0.00  0.00    +0.000 OA
ATOM     19  H   UNL     1       4.763   2.220  19.121  0.00  0.00    +0.000 HD
ENDBRANCH  17  18
BRANCH  17  20
ATOM     20  C   UNL     1       5.304   4.498  17.909  0.00  0.00    +0.000 C 
BRANCH  20  21
ATOM     21  C   UNL     1       6.313   5.631  17.990  0.00  0.00    +0.000 A 
ATOM     22  C   UNL     1       7.325   5.577  18.962  0.00  0.00    +0.000 A 
ATOM     23  C   UNL     1       8.252   6.614  19.089  0.00  0.00    +0.000 A 
ATOM     24  C   UNL     1       8.189   7.715  18.239  0.00  0.00    +0.000 A 
ATOM     25  C   UNL     1       7.207   7.772  17.253  0.00  0.00    +0.000 A 
ATOM     26  C   UNL     1       6.283   6.733  17.124  0.00  0.00    +0.000 A 
ENDBRANCH  20  21
ENDBRANCH  17  20
ENDBRANCH   6  17
TORSDOF 6
ENDMDL
MODEL 7
REMARK VINA RESULT:      -7.1      4.310      6.633
REMARK  Name = 
REMARK  8 active torsions:
REMARK  status: ('A' for Active; 'I' for Inactive)
REMARK    1  A    between atoms: C_1  and  O_2
REMARK    2  A    between atoms: O_2  and  C_3
REMARK    3  A    between atoms: C_5  and  C_6
REMARK    4  A    between atoms: C_7  and  C_8
REMARK    5  A    between atoms: C_13  and  C_14
REMARK    6  A    between atoms: C_14  and  O_15
REMARK    7  A    between atoms: C_14  and  C_16
REMARK    8  A    between atoms: C_16  and  C_17
REMARK                            x       y       z     vdW  Elec       q    Type
REMARK                         _______ _______ _______ _____ _____    ______ ____
ROOT
ATOM      1  C   UNL     1       2.354   6.365  19.829  0.00  0.00    +0.000 C 
ATOM      2  O   UNL     1       2.017   5.994  20.961  0.00  0.00    +0.000 OA
ATOM      3  N   UNL     1       1.987   7.656  19.406  0.00  0.00    +0.000 N 
ATOM      4  C   UNL     1       1.573   8.612  20.441  0.00  0.00    +0.000 C 
ATOM      5  C   UNL     1       0.534   9.617  19.939  0.00  0.00    +0.000 C 
ATOM      6  C   UNL     1       0.920  10.309  18.615  0.00  0.00    +0.000 C 
ATOM      7  C   UNL     1       1.225   9.209  17.598  0.00  0.00    +0.000 C 
ATOM      8  C   UNL     1       2.268   8.210  18.091  0.00  0.00    +0.000 C 
ENDROOT
BRANCH   1  13
ATOM      9  C   UNL     1       4.952   4.522  17.682  0.00  0.00    +0.000 A 
ATOM     10  N   UNL     1       3.831   3.948  17.330  0.00  0.00    +0.000 NA
ATOM     11  C   UNL     1       2.761   4.520  17.997  0.00  0.00    +0.000 A 
ATOM     12  C   UNL     1       1.433   4.051  17.522  0.00  0.00    +0.000 C 
ATOM     13  C   UNL     1       3.104   5.470  18.955  0.00  0.00    +0.000 A 
ATOM     14  S   UNL     1       4.833   5.652  18.946  0.00  0.00    +0.000 S 
BRANCH   9  16
ATOM     15  C   UNL     1       7.246   4.753  17.778  0.00  0.00    +0.000 C 
ATOM     16  O   UNL     1       6.108   4.261  17.075  0.00  0.00    +0.000 OA
ENDBRANCH   9  16
ENDBRANCH   1  13
BRANCH   6  17
ATOM     17  C   UNL     1       2.039  11.367  18.809  0.00  0.00    +0.000 C 
BRANCH  17  18
ATOM     18  O   UNL     1       2.282  12.062  17.588  0.00  0.00    +0.000 OA
ATOM     19  H   UNL     1       3.194  12.401  17.585  0.00  0.00    +0.000 HD
ENDBRANCH  17  18
BRANCH  17  20
ATOM     20  C   UNL     1       1.755  12.372  19.951  0.00  0.00    +0.000 C 
BRANCH  20  21
ATOM     21  C   UNL     1       1.400  13.780  19.502  0.00  0.00    +0.000 A 
ATOM     22  C   UNL     1       0.070  14.074  19.163  0.00  0.00    +0.000 A 
ATOM     23  C   UNL     1      -0.290  15.347  18.716  0.00  0.00    +0.000 A 
ATOM     24  C   UNL     1       0.672  16.348  18.611  0.00  0.00    +0.000 A 
ATOM     25  C   UNL     1       1.991  16.080  18.967  0.00  0.00    +0.000 A 
ATOM     26  C   UNL     1       2.349  14.808  19.419  0.00  0.00    +0.000 A 
ENDBRANCH  20  21
ENDBRANCH  17  20
ENDBRANCH   6  17
TORSDOF 6
ENDMDL
MODEL 8
REMARK VINA RESULT:      -7.0      2.415      3.379
REMARK  Name = 
REMARK  8 active torsions:
REMARK  status: ('A' for Active; 'I' for Inactive)
REMARK    1  A    between atoms: C_1  and  O_2
REMARK    2  A    between atoms: O_2  and  C_3
REMARK    3  A    between atoms: C_5  and  C_6
REMARK    4  A    between atoms: C_7  and  C_8
REMARK    5  A    between atoms: C_13  and  C_14
REMARK    6  A    between atoms: C_14  and  O_15
REMARK    7  A    between atoms: C_14  and  C_16
REMARK    8  A    between atoms: C_16  and  C_17
REMARK                            x       y       z     vdW  Elec       q    Type
REMARK                         _______ _______ _______ _____ _____    ______ ____
ROOT
ATOM      1  C   UNL     1       4.834   4.233  19.059  0.00  0.00    +0.000 C 
ATOM      2  O   UNL     1       5.007   3.126  19.584  0.00  0.00    +0.000 OA
ATOM      3  N   UNL     1       3.684   4.969  19.402  0.00  0.00    +0.000 N 
ATOM      4  C   UNL     1       2.968   4.573  20.622  0.00  0.00    +0.000 C 
ATOM      5  C   UNL     1       1.463   4.830  20.537  0.00  0.00    +0.000 C 
ATOM      6  C   UNL     1       1.096   6.256  20.073  0.00  0.00    +0.000 C 
ATOM      7  C   UNL     1       1.819   6.505  18.749  0.00  0.00    +0.000 C 
ATOM      8  C   UNL     1       3.323   6.258  18.832  0.00  0.00    +0.000 C 
ENDROOT
BRANCH   1  13
ATOM      9  C   UNL     1       6.977   5.105  15.993  0.00  0.00    +0.000 A 
ATOM     10  N   UNL     1       7.661   5.626  16.978  0.00  0.00    +0.000 NA
ATOM     11  C   UNL     1       7.038   5.377  18.189  0.00  0.00    +0.000 A 
ATOM     12  C   UNL     1       7.841   5.776  19.375  0.00  0.00    +0.000 C 
ATOM     13  C   UNL     1       5.799   4.749  18.096  0.00  0.00    +0.000 A 
ATOM     14  S   UNL     1       5.472   4.439  16.417  0.00  0.00    +0.000 S 
BRANCH   9  16
ATOM     15  C   UNL     1       6.622   4.315  13.855  0.00  0.00    +0.000 C 
ATOM     16  O   UNL     1       7.438   5.073  14.744  0.00  0.00    +0.000 OA
ENDBRANCH   9  16
ENDBRANCH   1  13
BRANCH   6  17
ATOM     17  C   UNL     1       1.346   7.316  21.178  0.00  0.00    +0.000 C 
BRANCH  17  18
ATOM     18  O   UNL     1       2.216   8.338  20.699  0.00  0.00    +0.000 OA
ATOM     19  H   UNL     1       2.588   8.826  21.453  0.00  0.00    +0.000 HD
ENDBRANCH  17  18
BRANCH  17  20
ATOM     20  C   UNL     1       0.048   7.940  21.748  0.00  0.00    +0.000 C 
BRANCH  20  21
ATOM     21  C   UNL     1      -0.203   9.385  21.353  0.00  0.00    +0.000 A 
ATOM     22  C   UNL     1      -0.181  10.378  22.345  0.00  0.00    +0.000 A 
ATOM     23  C   UNL     1      -0.439  11.714  22.027  0.00  0.00    +0.000 A 
ATOM     24  C   UNL     1      -0.710  12.078  20.711  0.00  0.00    +0.000 A 
ATOM     25  C   UNL     1      -0.711  11.110  19.711  0.00  0.00    +0.000 A 
ATOM     26  C   UNL     1      -0.448   9.775  20.029  0.00  0.00    +0.000 A 
ENDBRANCH  20  21
ENDBRANCH  17  20
ENDBRANCH   6  17
TORSDOF 6
ENDMDL
MODEL 9
REMARK VINA RESULT:      -7.0      3.838      6.009
REMARK  Name = 
REMARK  8 active torsions:
REMARK  status: ('A' for Active; 'I' for Inactive)
REMARK    1  A    between atoms: C_1  and  O_2
REMARK    2  A    between atoms: O_2  and  C_3
REMARK    3  A    between atoms: C_5  and  C_6
REMARK    4  A    between atoms: C_7  and  C_8
REMARK    5  A    between atoms: C_13  and  C_14
REMARK    6  A    between atoms: C_14  and  O_15
REMARK    7  A    between atoms: C_14  and  C_16
REMARK    8  A    between atoms: C_16  and  C_17
REMARK                            x       y       z     vdW  Elec       q    Type
REMARK                         _______ _______ _______ _____ _____    ______ ____
ROOT
ATOM      1  C   UNL     1       2.792   6.462  19.277  0.00  0.00    +0.000 C 
ATOM      2  O   UNL     1       2.715   5.890  20.372  0.00  0.00    +0.000 OA
ATOM      3  N   UNL     1       2.115   7.685  19.108  0.00  0.00    +0.000 N 
ATOM      4  C   UNL     1       1.686   8.393  20.321  0.00  0.00    +0.000 C 
ATOM      5  C   UNL     1       0.404   9.201  20.115  0.00  0.00    +0.000 C 
ATOM      6  C   UNL     1       0.434  10.119  18.875  0.00  0.00    +0.000 C 
ATOM      7  C   UNL     1       0.789   9.246  17.670  0.00  0.00    +0.000 C 
ATOM      8  C   UNL     1       2.072   8.445  17.868  0.00  0.00    +0.000 C 
ENDROOT
BRANCH   1  13
ATOM      9  C   UNL     1       5.121   5.653  16.332  0.00  0.00    +0.000 A 
ATOM     10  N   UNL     1       4.372   4.585  16.406  0.00  0.00    +0.000 NA
ATOM     11  C   UNL     1       3.434   4.717  17.416  0.00  0.00    +0.000 A 
ATOM     12  C   UNL     1       2.425   3.625  17.450  0.00  0.00    +0.000 C 
ATOM     13  C   UNL     1       3.558   5.868  18.189  0.00  0.00    +0.000 A 
ATOM     14  S   UNL     1       4.879   6.806  17.558  0.00  0.00    +0.000 S 
BRANCH   9  16
ATOM     15  C   UNL     1       6.956   4.794  15.228  0.00  0.00    +0.000 C 
ATOM     16  O   UNL     1       5.998   5.843  15.348  0.00  0.00    +0.000 OA
ENDBRANCH   9  16
ENDBRANCH   1  13
BRANCH   6  17
ATOM     17  C   UNL     1       1.338  11.362  19.086  0.00  0.00    +0.000 C 
BRANCH  17  18
ATOM     18  O   UNL     1       2.201  11.545  17.966  0.00  0.00    +0.000 OA
ATOM     19  H   UNL     1       1.666  11.669  17.162  0.00  0.00    +0.000 HD
ENDBRANCH  17  18
BRANCH  17  20
ATOM     20  C   UNL     1       0.550  12.663  19.374  0.00  0.00    +0.000 C 
BRANCH  20  21
ATOM     21  C   UNL     1      -0.502  12.555  20.466  0.00  0.00    +0.000 A 
ATOM     22  C   UNL     1      -1.857  12.685  20.125  0.00  0.00    +0.000 A 
ATOM     23  C   UNL     1      -2.851  12.623  21.104  0.00  0.00    +0.000 A 
ATOM     24  C   UNL     1      -2.507  12.419  22.437  0.00  0.00    +0.000 A 
ATOM     25  C   UNL     1      -1.169  12.263  22.789  0.00  0.00    +0.000 A 
ATOM     26  C   UNL     1      -0.175  12.320  21.809  0.00  0.00    +0.000 A 
ENDBRANCH  20  21
ENDBRANCH  17  20
ENDBRANCH   6  17
TORSDOF 6
ENDMDL
