MODEL 1
REMARK VINA RESULT:      -8.7      0.000      0.000
REMARK  Name = 
REMARK  18 active torsions:
REMARK  status: ('A' for Active; 'I' for Inactive)
REMARK    1  A    between atoms: C_1  and  C_2
REMARK    2  A    between atoms: C_2  and  C_3
REMARK    3  A    between atoms: C_3  and  C_4
REMARK    4  A    between atoms: C_5  and  O_6
REMARK    5  A    between atoms: O_6  and  C_7
REMARK    6  A    between atoms: C_7  and  C_8
REMARK    7  A    between atoms: C_8  and  C_9
REMARK    8  A    between atoms: C_9  and  O_10
REMARK    9  A    between atoms: O_10  and  C_11
REMARK   10  A    between atoms: C_12  and  C_13
REMARK   11  A    between atoms: C_14  and  C_15
REMARK   12  A    between atoms: C_18  and  C_19
REMARK   13  A    between atoms: C_22  and  C_23
REMARK   14  A    between atoms: C_22  and  C_24
REMARK   15  A    between atoms: C_24  and  O_26
REMARK   16  A    between atoms: C_30  and  C_31
REMARK   17  A    between atoms: C_31  and  C_32
REMARK   18  A    between atoms: C_34  and  O_35
REMARK                            x       y       z     vdW  Elec       q    Type
REMARK                         _______ _______ _______ _____ _____    ______ ____
ROOT
ATOM      1  O   UNL     1       1.208   6.709  20.640  0.00  0.00    +0.000 OA
ENDROOT
BRANCH   1   2
ATOM      2  C   UNL     1       1.885   6.033  19.654  0.00  0.00    +0.000 A 
ATOM      3  C   UNL     1       2.092   4.639  19.852  0.00  0.00    +0.000 A 
ATOM      4  C   UNL     1       1.184   3.970  20.885  0.00  0.00    +0.000 C 
ATOM      5  C   UNL     1       3.063   3.867  19.034  0.00  0.00    +0.000 A 
ATOM      6  C   UNL     1       3.053   2.359  19.193  0.00  0.00    +0.000 C 
ATOM      7  C   UNL     1       3.924   4.555  18.113  0.00  0.00    +0.000 A 
ATOM      8  C   UNL     1       3.590   5.885  17.948  0.00  0.00    +0.000 A 
ATOM      9  C   UNL     1       2.491   6.592  18.551  0.00  0.00    +0.000 A 
ATOM     10  C   UNL     1       2.202   7.968  17.991  0.00  0.00    +0.000 C 
ATOM     11  C   UNL     1       4.550   6.806  17.324  0.00  0.00    +0.000 C 
ATOM     12  C   UNL     1       5.677   6.400  16.500  0.00  0.00    +0.000 C 
ATOM     13  C   UNL     1       5.776   4.893  16.367  0.00  0.00    +0.000 C 
ATOM     14  C   UNL     1       5.195   4.520  14.979  0.00  0.00    +0.000 C 
ATOM     15  O   UNL     1       5.070   4.084  17.433  0.00  0.00    +0.000 OA
BRANCH  13  16
ATOM     16  C   UNL     1       7.333   4.879  16.120  0.00  0.00    +0.000 C 
ATOM     17  O   UNL     1       8.160   4.260  16.798  0.00  0.00    +0.000 OA
BRANCH  16  18
ATOM     18  O   UNL     1       7.745   5.352  14.933  0.00  0.00    +0.000 OA
ATOM     19  H   UNL     1       8.722   5.230  14.976  0.00  0.00    +0.000 HD
ENDBRANCH  16  18
ENDBRANCH  13  16
ENDBRANCH   1   2
BRANCH   1  20
ATOM     20  C   UNL     1       1.548   8.022  21.104  0.00  0.00    +0.000 C 
BRANCH  20  21
ATOM     21  C   UNL     1       0.415   9.065  21.024  0.00  0.00    +0.000 C 
BRANCH  21  22
ATOM     22  C   UNL     1       0.787  10.249  20.114  0.00  0.00    +0.000 C 
BRANCH  22  23
ATOM     23  O   UNL     1      -0.084  11.369  20.323  0.00  0.00    +0.000 OA
BRANCH  23  25
ATOM     24  C   UNL     1      -2.283  12.269  20.137  0.00  0.00    +0.000 A 
ATOM     25  C   UNL     1      -1.293  11.371  19.685  0.00  0.00    +0.000 A 
ATOM     26  C   UNL     1      -1.571  10.554  18.580  0.00  0.00    +0.000 A 
ATOM     27  C   UNL     1      -2.824  10.614  17.903  0.00  0.00    +0.000 A 
ATOM     28  C   UNL     1      -3.803  11.513  18.342  0.00  0.00    +0.000 A 
ATOM     29  C   UNL     1      -3.522  12.335  19.458  0.00  0.00    +0.000 A 
BRANCH  28  30
ATOM     30  C   UNL     1      -5.129  11.649  17.669  0.00  0.00    +0.000 C 
ATOM     31  C   UNL     1      -6.366  11.003  18.238  0.00  0.00    +0.000 C 
ATOM     32  O   UNL     1      -5.203  12.265  16.609  0.00  0.00    +0.000 OA
ENDBRANCH  28  30
BRANCH  29  33
ATOM     33  O   UNL     1      -4.428  13.261  19.921  0.00  0.00    +0.000 OA
ATOM     34  H   UNL     1      -4.040  13.717  20.699  0.00  0.00    +0.000 HD
ENDBRANCH  29  33
BRANCH  24  35
ATOM     35  C   UNL     1      -2.065  13.169  21.345  0.00  0.00    +0.000 C 
BRANCH  35  37
ATOM     36  C   UNL     1      -1.744  11.427  23.159  0.00  0.00    +0.000 C 
ATOM     37  C   UNL     1      -2.635  12.532  22.615  0.00  0.00    +0.000 C 
ENDBRANCH  35  37
ENDBRANCH  24  35
ENDBRANCH  23  25
ENDBRANCH  22  23
ENDBRANCH  21  22
ENDBRANCH  20  21
ENDBRANCH   1  20
TORSDOF 12
ENDMDL
MODEL 2
REMARK VINA RESULT:      -8.7      1.545      2.394
REMARK  Name = 
REMARK  18 active torsions:
REMARK  status: ('A' for Active; 'I' for Inactive)
REMARK    1  A    between atoms: C_1  and  C_2
REMARK    2  A    between atoms: C_2  and  C_3
REMARK    3  A    between atoms: C_3  and  C_4
REMARK    4  A    between atoms: C_5  and  O_6
REMARK    5  A    between atoms: O_6  and  C_7
REMARK    6  A    between atoms: C_7  and  C_8
REMARK    7  A    between atoms: C_8  and  C_9
REMARK    8  A    between atoms: C_9  and  O_10
REMARK    9  A    between atoms: O_10  and  C_11
REMARK   10  A    between atoms: C_12  and  C_13
REMARK   11  A    between atoms: C_14  and  C_15
REMARK   12  A    between atoms: C_18  and  C_19
REMARK   13  A    between atoms: C_22  and  C_23
REMARK   14  A    between atoms: C_22  and  C_24
REMARK   15  A    between atoms: C_24  and  O_26
REMARK   16  A    between atoms: C_30  and  C_31
REMARK   17  A    between atoms: C_31  and  C_32
REMARK   18  A    between atoms: C_34  and  O_35
REMARK                            x       y       z     vdW  Elec       q    Type
REMARK                         _______ _______ _______ _____ _____    ______ ____
ROOT
ATOM      1  O   UNL     1       1.518   6.673  20.831  0.00  0.00    +0.000 OA
ENDROOT
BRANCH   1   2
ATOM      2  C   UNL     1       2.085   6.015  19.766  0.00  0.00    +0.000 A 
ATOM      3  C   UNL     1       2.203   4.600  19.869  0.00  0.00    +0.000 A 
ATOM      4  C   UNL     1       1.312   3.931  20.917  0.00  0.00    +0.000 C 
ATOM      5  C   UNL     1       3.067   3.817  18.947  0.00  0.00    +0.000 A 
ATOM      6  C   UNL     1       2.958   2.306  19.019  0.00  0.00    +0.000 C 
ATOM      7  C   UNL     1       3.919   4.501  18.015  0.00  0.00    +0.000 A 
ATOM      8  C   UNL     1       3.672   5.858  17.949  0.00  0.00    +0.000 A 
ATOM      9  C   UNL     1       2.664   6.599  18.661  0.00  0.00    +0.000 A 
ATOM     10  C   UNL     1       2.442   8.024  18.202  0.00  0.00    +0.000 C 
ATOM     11  C   UNL     1       4.657   6.749  17.321  0.00  0.00    +0.000 C 
ATOM     12  C   UNL     1       5.701   6.319  16.405  0.00  0.00    +0.000 C 
ATOM     13  C   UNL     1       5.684   4.820  16.178  0.00  0.00    +0.000 C 
ATOM     14  C   UNL     1       4.997   4.575  14.811  0.00  0.00    +0.000 C 
ATOM     15  O   UNL     1       4.986   3.996  17.238  0.00  0.00    +0.000 OA
BRANCH  13  16
ATOM     16  C   UNL     1       7.219   4.716  15.833  0.00  0.00    +0.000 C 
ATOM     17  O   UNL     1       7.792   5.334  14.930  0.00  0.00    +0.000 OA
BRANCH  16  18
ATOM     18  O   UNL     1       7.991   4.125  16.758  0.00  0.00    +0.000 OA
ATOM     19  H   UNL     1       7.401   4.091  17.546  0.00  0.00    +0.000 HD
ENDBRANCH  16  18
ENDBRANCH  13  16
ENDBRANCH   1   2
BRANCH   1  20
ATOM     20  C   UNL     1       1.314   8.090  20.894  0.00  0.00    +0.000 C 
BRANCH  20  21
ATOM     21  C   UNL     1      -0.007   8.539  21.549  0.00  0.00    +0.000 C 
BRANCH  21  22
ATOM     22  C   UNL     1       0.236   9.440  22.773  0.00  0.00    +0.000 C 
BRANCH  22  23
ATOM     23  O   UNL     1       0.290  10.825  22.406  0.00  0.00    +0.000 OA
BRANCH  23  25
ATOM     24  C   UNL     1      -1.161  11.929  20.872  0.00  0.00    +0.000 A 
ATOM     25  C   UNL     1      -0.890  11.478  22.180  0.00  0.00    +0.000 A 
ATOM     26  C   UNL     1      -1.853  11.675  23.180  0.00  0.00    +0.000 A 
ATOM     27  C   UNL     1      -3.097  12.313  22.903  0.00  0.00    +0.000 A 
ATOM     28  C   UNL     1      -3.373  12.751  21.602  0.00  0.00    +0.000 A 
ATOM     29  C   UNL     1      -2.400  12.554  20.596  0.00  0.00    +0.000 A 
BRANCH  28  30
ATOM     30  C   UNL     1      -4.662  13.407  21.232  0.00  0.00    +0.000 C 
ATOM     31  C   UNL     1      -5.967  12.652  21.278  0.00  0.00    +0.000 C 
ATOM     32  O   UNL     1      -4.653  14.572  20.844  0.00  0.00    +0.000 OA
ENDBRANCH  28  30
BRANCH  29  33
ATOM     33  O   UNL     1      -2.620  12.932  19.291  0.00  0.00    +0.000 OA
ATOM     34  H   UNL     1      -3.255  13.681  19.285  0.00  0.00    +0.000 HD
ENDBRANCH  29  33
BRANCH  24  35
ATOM     35  C   UNL     1      -0.154  11.776  19.740  0.00  0.00    +0.000 C 
BRANCH  35  37
ATOM     36  C   UNL     1       1.046  13.742  20.797  0.00  0.00    +0.000 C 
ATOM     37  C   UNL     1       0.607  13.081  19.500  0.00  0.00    +0.000 C 
ENDBRANCH  35  37
ENDBRANCH  24  35
ENDBRANCH  23  25
ENDBRANCH  22  23
ENDBRANCH  21  22
ENDBRANCH  20  21
ENDBRANCH   1  20
TORSDOF 12
ENDMDL
MODEL 3
REMARK VINA RESULT:      -8.6      1.847      3.245
REMARK  Name = 
REMARK  18 active torsions:
REMARK  status: ('A' for Active; 'I' for Inactive)
REMARK    1  A    between atoms: C_1  and  C_2
REMARK    2  A    between atoms: C_2  and  C_3
REMARK    3  A    between atoms: C_3  and  C_4
REMARK    4  A    between atoms: C_5  and  O_6
REMARK    5  A    between atoms: O_6  and  C_7
REMARK    6  A    between atoms: C_7  and  C_8
REMARK    7  A    between atoms: C_8  and  C_9
REMARK    8  A    between atoms: C_9  and  O_10
REMARK    9  A    between atoms: O_10  and  C_11
REMARK   10  A    between atoms: C_12  and  C_13
REMARK   11  A    between atoms: C_14  and  C_15
REMARK   12  A    between atoms: C_18  and  C_19
REMARK   13  A    between atoms: C_22  and  C_23
REMARK   14  A    between atoms: C_22  and  C_24
REMARK   15  A    between atoms: C_24  and  O_26
REMARK   16  A    between atoms: C_30  and  C_31
REMARK   17  A    between atoms: C_31  and  C_32
REMARK   18  A    between atoms: C_34  and  O_35
REMARK                            x       y       z     vdW  Elec       q    Type
REMARK                         _______ _______ _______ _____ _____    ______ ____
ROOT
ATOM      1  O   UNL     1       1.316   6.457  20.768  0.00  0.00    +0.000 OA
ENDROOT
BRANCH   1   2
ATOM      2  C   UNL     1       1.952   5.841  19.718  0.00  0.00    +0.000 A 
ATOM      3  C   UNL     1       2.125   4.431  19.805  0.00  0.00    +0.000 A 
ATOM      4  C   UNL     1       1.220   3.708  20.804  0.00  0.00    +0.000 C 
ATOM      5  C   UNL     1       3.057   3.698  18.908  0.00  0.00    +0.000 A 
ATOM      6  C   UNL     1       3.007   2.183  18.952  0.00  0.00    +0.000 C 
ATOM      7  C   UNL     1       3.917   4.432  18.022  0.00  0.00    +0.000 A 
ATOM      8  C   UNL     1       3.617   5.779  17.966  0.00  0.00    +0.000 A 
ATOM      9  C   UNL     1       2.551   6.466  18.647  0.00  0.00    +0.000 A 
ATOM     10  C   UNL     1       2.289   7.889  18.200  0.00  0.00    +0.000 C 
ATOM     11  C   UNL     1       4.589   6.719  17.393  0.00  0.00    +0.000 C 
ATOM     12  C   UNL     1       5.687   6.347  16.514  0.00  0.00    +0.000 C 
ATOM     13  C   UNL     1       5.741   4.853  16.265  0.00  0.00    +0.000 C 
ATOM     14  C   UNL     1       5.121   4.603  14.866  0.00  0.00    +0.000 C 
ATOM     15  O   UNL     1       5.035   3.984  17.282  0.00  0.00    +0.000 OA
BRANCH  13  16
ATOM     16  C   UNL     1       7.292   4.817  15.981  0.00  0.00    +0.000 C 
ATOM     17  O   UNL     1       8.136   4.262  16.693  0.00  0.00    +0.000 OA
BRANCH  16  18
ATOM     18  O   UNL     1       7.673   5.180  14.747  0.00  0.00    +0.000 OA
ATOM     19  H   UNL     1       8.275   5.941  14.919  0.00  0.00    +0.000 HD
ENDBRANCH  16  18
ENDBRANCH  13  16
ENDBRANCH   1   2
BRANCH   1  20
ATOM     20  C   UNL     1       1.376   7.862  21.041  0.00  0.00    +0.000 C 
BRANCH  20  21
ATOM     21  C   UNL     1       0.085   8.480  21.614  0.00  0.00    +0.000 C 
BRANCH  21  22
ATOM     22  C   UNL     1       0.274   9.961  21.989  0.00  0.00    +0.000 C 
BRANCH  22  23
ATOM     23  O   UNL     1      -0.816  10.767  21.523  0.00  0.00    +0.000 OA
BRANCH  23  25
ATOM     24  C   UNL     1      -0.665  12.049  19.520  0.00  0.00    +0.000 A 
ATOM     25  C   UNL     1      -0.524  11.959  20.921  0.00  0.00    +0.000 A 
ATOM     26  C   UNL     1      -0.136  13.099  21.638  0.00  0.00    +0.000 A 
ATOM     27  C   UNL     1       0.112  14.343  20.988  0.00  0.00    +0.000 A 
ATOM     28  C   UNL     1      -0.039  14.437  19.599  0.00  0.00    +0.000 A 
ATOM     29  C   UNL     1      -0.427  13.286  18.876  0.00  0.00    +0.000 A 
BRANCH  28  30
ATOM     30  C   UNL     1       0.182  15.711  18.853  0.00  0.00    +0.000 C 
ATOM     31  C   UNL     1       1.571  16.231  18.583  0.00  0.00    +0.000 C 
ATOM     32  O   UNL     1      -0.790  16.368  18.487  0.00  0.00    +0.000 OA
ENDBRANCH  28  30
BRANCH  29  33
ATOM     33  O   UNL     1      -0.623  13.318  17.515  0.00  0.00    +0.000 OA
ATOM     34  H   UNL     1      -0.493  14.240  17.201  0.00  0.00    +0.000 HD
ENDBRANCH  29  33
BRANCH  24  35
ATOM     35  C   UNL     1      -1.056  10.848  18.669  0.00  0.00    +0.000 C 
BRANCH  35  37
ATOM     36  C   UNL     1      -2.929  10.053  17.157  0.00  0.00    +0.000 C 
ATOM     37  C   UNL     1      -2.565  10.821  18.417  0.00  0.00    +0.000 C 
ENDBRANCH  35  37
ENDBRANCH  24  35
ENDBRANCH  23  25
ENDBRANCH  22  23
ENDBRANCH  21  22
ENDBRANCH  20  21
ENDBRANCH   1  20
TORSDOF 12
ENDMDL
MODEL 4
REMARK VINA RESULT:      -8.6      1.049      1.364
REMARK  Name = 
REMARK  18 active torsions:
REMARK  status: ('A' for Active; 'I' for Inactive)
REMARK    1  A    between atoms: C_1  and  C_2
REMARK    2  A    between atoms: C_2  and  C_3
REMARK    3  A    between atoms: C_3  and  C_4
REMARK    4  A    between atoms: C_5  and  O_6
REMARK    5  A    between atoms: O_6  and  C_7
REMARK    6  A    between atoms: C_7  and  C_8
REMARK    7  A    between atoms: C_8  and  C_9
REMARK    8  A    between atoms: C_9  and  O_10
REMARK    9  A    between atoms: O_10  and  C_11
REMARK   10  A    between atoms: C_12  and  C_13
REMARK   11  A    between atoms: C_14  and  C_15
REMARK   12  A    between atoms: C_18  and  C_19
REMARK   13  A    between atoms: C_22  and  C_23
REMARK   14  A    between atoms: C_22  and  C_24
REMARK   15  A    between atoms: C_24  and  O_26
REMARK   16  A    between atoms: C_30  and  C_31
REMARK   17  A    between atoms: C_31  and  C_32
REMARK   18  A    between atoms: C_34  and  O_35
REMARK                            x       y       z     vdW  Elec       q    Type
REMARK                         _______ _______ _______ _____ _____    ______ ____
ROOT
ATOM      1  O   UNL     1       1.480   6.750  20.864  0.00  0.00    +0.000 OA
ENDROOT
BRANCH   1   2
ATOM      2  C   UNL     1       2.059   6.109  19.795  0.00  0.00    +0.000 A 
ATOM      3  C   UNL     1       2.173   4.692  19.877  0.00  0.00    +0.000 A 
ATOM      4  C   UNL     1       1.268   4.008  20.903  0.00  0.00    +0.000 C 
ATOM      5  C   UNL     1       3.047   3.922  18.954  0.00  0.00    +0.000 A 
ATOM      6  C   UNL     1       2.934   2.411  19.000  0.00  0.00    +0.000 C 
ATOM      7  C   UNL     1       3.911   4.619  18.043  0.00  0.00    +0.000 A 
ATOM      8  C   UNL     1       3.667   5.978  17.996  0.00  0.00    +0.000 A 
ATOM      9  C   UNL     1       2.652   6.710  18.708  0.00  0.00    +0.000 A 
ATOM     10  C   UNL     1       2.438   8.142  18.269  0.00  0.00    +0.000 C 
ATOM     11  C   UNL     1       4.661   6.877  17.395  0.00  0.00    +0.000 C 
ATOM     12  C   UNL     1       5.716   6.460  16.485  0.00  0.00    +0.000 C 
ATOM     13  C   UNL     1       5.699   4.965  16.233  0.00  0.00    +0.000 C 
ATOM     14  C   UNL     1       5.029   4.743  14.854  0.00  0.00    +0.000 C 
ATOM     15  O   UNL     1       4.987   4.125  17.271  0.00  0.00    +0.000 OA
BRANCH  13  16
ATOM     16  C   UNL     1       7.238   4.864  15.905  0.00  0.00    +0.000 C 
ATOM     17  O   UNL     1       8.060   4.186  16.531  0.00  0.00    +0.000 OA
BRANCH  16  18
ATOM     18  O   UNL     1       7.616   5.331  14.705  0.00  0.00    +0.000 OA
ATOM     19  H   UNL     1       8.502   4.918  14.579  0.00  0.00    +0.000 HD
ENDBRANCH  16  18
ENDBRANCH  13  16
ENDBRANCH   1   2
BRANCH   1  20
ATOM     20  C   UNL     1       0.291   7.546  20.785  0.00  0.00    +0.000 C 
BRANCH  20  21
ATOM     21  C   UNL     1       0.314   8.852  21.605  0.00  0.00    +0.000 C 
BRANCH  21  22
ATOM     22  C   UNL     1       0.964  10.008  20.825  0.00  0.00    +0.000 C 
BRANCH  22  23
ATOM     23  O   UNL     1       0.042  11.086  20.613  0.00  0.00    +0.000 OA
BRANCH  23  25
ATOM     24  C   UNL     1      -2.045  11.708  19.646  0.00  0.00    +0.000 A 
ATOM     25  C   UNL     1      -0.834  10.988  19.569  0.00  0.00    +0.000 A 
ATOM     26  C   UNL     1      -0.561  10.241  18.414  0.00  0.00    +0.000 A 
ATOM     27  C   UNL     1      -1.472  10.198  17.319  0.00  0.00    +0.000 A 
ATOM     28  C   UNL     1      -2.669  10.922  17.388  0.00  0.00    +0.000 A 
ATOM     29  C   UNL     1      -2.944  11.673  18.554  0.00  0.00    +0.000 A 
BRANCH  28  30
ATOM     30  C   UNL     1      -3.659  10.944  16.272  0.00  0.00    +0.000 C 
ATOM     31  C   UNL     1      -3.373  10.265  14.957  0.00  0.00    +0.000 C 
ATOM     32  O   UNL     1      -4.711  11.562  16.415  0.00  0.00    +0.000 OA
ENDBRANCH  28  30
BRANCH  29  33
ATOM     33  O   UNL     1      -4.086  12.431  18.674  0.00  0.00    +0.000 OA
ATOM     34  H   UNL     1      -4.693  12.202  17.937  0.00  0.00    +0.000 HD
ENDBRANCH  29  33
BRANCH  24  35
ATOM     35  C   UNL     1      -2.425  12.520  20.876  0.00  0.00    +0.000 C 
BRANCH  35  37
ATOM     36  C   UNL     1      -2.924  14.981  21.222  0.00  0.00    +0.000 C 
ATOM     37  C   UNL     1      -1.898  13.953  20.774  0.00  0.00    +0.000 C 
ENDBRANCH  35  37
ENDBRANCH  24  35
ENDBRANCH  23  25
ENDBRANCH  22  23
ENDBRANCH  21  22
ENDBRANCH  20  21
ENDBRANCH   1  20
TORSDOF 12
ENDMDL
MODEL 5
REMARK VINA RESULT:      -8.5      1.065      2.555
REMARK  Name = 
REMARK  18 active torsions:
REMARK  status: ('A' for Active; 'I' for Inactive)
REMARK    1  A    between atoms: C_1  and  C_2
REMARK    2  A    between atoms: C_2  and  C_3
REMARK    3  A    between atoms: C_3  and  C_4
REMARK    4  A    between atoms: C_5  and  O_6
REMARK    5  A    between atoms: O_6  and  C_7
REMARK    6  A    between atoms: C_7  and  C_8
REMARK    7  A    between atoms: C_8  and  C_9
REMARK    8  A    between atoms: C_9  and  O_10
REMARK    9  A    between atoms: O_10  and  C_11
REMARK   10  A    between atoms: C_12  and  C_13
REMARK   11  A    between atoms: C_14  and  C_15
REMARK   12  A    between atoms: C_18  and  C_19
REMARK   13  A    between atoms: C_22  and  C_23
REMARK   14  A    between atoms: C_22  and  C_24
REMARK   15  A    between atoms: C_24  and  O_26
REMARK   16  A    between atoms: C_30  and  C_31
REMARK   17  A    between atoms: C_31  and  C_32
REMARK   18  A    between atoms: C_34  and  O_35
REMARK                            x       y       z     vdW  Elec       q    Type
REMARK                         _______ _______ _______ _____ _____    ______ ____
ROOT
ATOM      1  O   UNL     1       1.162   6.575  20.661  0.00  0.00    +0.000 OA
ENDROOT
BRANCH   1   2
ATOM      2  C   UNL     1       1.858   5.927  19.669  0.00  0.00    +0.000 A 
ATOM      3  C   UNL     1       2.099   4.536  19.851  0.00  0.00    +0.000 A 
ATOM      4  C   UNL     1       1.204   3.833  20.872  0.00  0.00    +0.000 C 
ATOM      5  C   UNL     1       3.091   3.798  19.026  0.00  0.00    +0.000 A 
ATOM      6  C   UNL     1       3.117   2.289  19.167  0.00  0.00    +0.000 C 
ATOM      7  C   UNL     1       3.938   4.518  18.117  0.00  0.00    +0.000 A 
ATOM      8  C   UNL     1       3.572   5.842  17.967  0.00  0.00    +0.000 A 
ATOM      9  C   UNL     1       2.454   6.515  18.575  0.00  0.00    +0.000 A 
ATOM     10  C   UNL     1       2.134   7.890  18.031  0.00  0.00    +0.000 C 
ATOM     11  C   UNL     1       4.511   6.793  17.358  0.00  0.00    +0.000 C 
ATOM     12  C   UNL     1       5.650   6.425  16.533  0.00  0.00    +0.000 C 
ATOM     13  C   UNL     1       5.786   4.922  16.381  0.00  0.00    +0.000 C 
ATOM     14  C   UNL     1       5.219   4.553  14.987  0.00  0.00    +0.000 C 
ATOM     15  O   UNL     1       5.097   4.083  17.435  0.00  0.00    +0.000 OA
BRANCH  13  16
ATOM     16  C   UNL     1       7.344   4.950  16.139  0.00  0.00    +0.000 C 
ATOM     17  O   UNL     1       8.172   4.250  16.732  0.00  0.00    +0.000 OA
BRANCH  16  18
ATOM     18  O   UNL     1       7.756   5.577  15.027  0.00  0.00    +0.000 OA
ATOM     19  H   UNL     1       8.377   6.257  15.377  0.00  0.00    +0.000 HD
ENDBRANCH  16  18
ENDBRANCH  13  16
ENDBRANCH   1   2
BRANCH   1  20
ATOM     20  C   UNL     1       1.494   7.872  21.171  0.00  0.00    +0.000 C 
BRANCH  20  21
ATOM     21  C   UNL     1       0.372   8.925  21.080  0.00  0.00    +0.000 C 
BRANCH  21  22
ATOM     22  C   UNL     1       0.799  10.150  20.252  0.00  0.00    +0.000 C 
BRANCH  22  23
ATOM     23  O   UNL     1      -0.170  10.471  19.244  0.00  0.00    +0.000 OA
BRANCH  23  25
ATOM     24  C   UNL     1      -2.416  11.187  18.894  0.00  0.00    +0.000 A 
ATOM     25  C   UNL     1      -1.190  11.318  19.579  0.00  0.00    +0.000 A 
ATOM     26  C   UNL     1      -1.080  12.275  20.598  0.00  0.00    +0.000 A 
ATOM     27  C   UNL     1      -2.176  13.111  20.959  0.00  0.00    +0.000 A 
ATOM     28  C   UNL     1      -3.398  12.974  20.289  0.00  0.00    +0.000 A 
ATOM     29  C   UNL     1      -3.507  12.011  19.260  0.00  0.00    +0.000 A 
BRANCH  28  30
ATOM     30  C   UNL     1      -4.597  13.797  20.628  0.00  0.00    +0.000 C 
ATOM     31  C   UNL     1      -4.469  15.256  20.988  0.00  0.00    +0.000 C 
ATOM     32  O   UNL     1      -5.703  13.263  20.654  0.00  0.00    +0.000 OA
ENDBRANCH  28  30
BRANCH  29  33
ATOM     33  O   UNL     1      -4.687  11.803  18.584  0.00  0.00    +0.000 OA
ATOM     34  H   UNL     1      -4.484  11.678  17.631  0.00  0.00    +0.000 HD
ENDBRANCH  29  33
BRANCH  24  35
ATOM     35  C   UNL     1      -2.604  10.190  17.759  0.00  0.00    +0.000 C 
BRANCH  35  37
ATOM     36  C   UNL     1      -2.970  10.021  15.256  0.00  0.00    +0.000 C 
ATOM     37  C   UNL     1      -2.433  10.869  16.398  0.00  0.00    +0.000 C 
ENDBRANCH  35  37
ENDBRANCH  24  35
ENDBRANCH  23  25
ENDBRANCH  22  23
ENDBRANCH  21  22
ENDBRANCH  20  21
ENDBRANCH   1  20
TORSDOF 12
ENDMDL
MODEL 6
REMARK VINA RESULT:      -8.5      1.380      2.736
REMARK  Name = 
REMARK  18 active torsions:
REMARK  status: ('A' for Active; 'I' for Inactive)
REMARK    1  A    between atoms: C_1  and  C_2
REMARK    2  A    between atoms: C_2  and  C_3
REMARK    3  A    between atoms: C_3  and  C_4
REMARK    4  A    between atoms: C_5  and  O_6
REMARK    5  A    between atoms: O_6  and  C_7
REMARK    6  A    between atoms: C_7  and  C_8
REMARK    7  A    between atoms: C_8  and  C_9
REMARK    8  A    between atoms: C_9  and  O_10
REMARK    9  A    between atoms: O_10  and  C_11
REMARK   10  A    between atoms: C_12  and  C_13
REMARK   11  A    between atoms: C_14  and  C_15
REMARK   12  A    between atoms: C_18  and  C_19
REMARK   13  A    between atoms: C_22  and  C_23
REMARK   14  A    between atoms: C_22  and  C_24
REMARK   15  A    between atoms: C_24  and  O_26
REMARK   16  A    between atoms: C_30  and  C_31
REMARK   17  A    between atoms: C_31  and  C_32
REMARK   18  A    between atoms: C_34  and  O_35
REMARK                            x       y       z     vdW  Elec       q    Type
REMARK                         _______ _______ _______ _____ _____    ______ ____
ROOT
ATOM      1  O   UNL     1       1.473   6.759  20.780  0.00  0.00    +0.000 OA
ENDROOT
BRANCH   1   2
ATOM      2  C   UNL     1       2.049   6.113  19.712  0.00  0.00    +0.000 A 
ATOM      3  C   UNL     1       2.141   4.695  19.788  0.00  0.00    +0.000 A 
ATOM      4  C   UNL     1       1.218   4.020  20.804  0.00  0.00    +0.000 C 
ATOM      5  C   UNL     1       3.008   3.916  18.866  0.00  0.00    +0.000 A 
ATOM      6  C   UNL     1       2.872   2.406  18.904  0.00  0.00    +0.000 C 
ATOM      7  C   UNL     1       3.889   4.604  17.965  0.00  0.00    +0.000 A 
ATOM      8  C   UNL     1       3.667   5.966  17.923  0.00  0.00    +0.000 A 
ATOM      9  C   UNL     1       2.659   6.711  18.632  0.00  0.00    +0.000 A 
ATOM     10  C   UNL     1       2.470   8.148  18.198  0.00  0.00    +0.000 C 
ATOM     11  C   UNL     1       4.679   6.852  17.332  0.00  0.00    +0.000 C 
ATOM     12  C   UNL     1       5.733   6.424  16.427  0.00  0.00    +0.000 C 
ATOM     13  C   UNL     1       5.695   4.930  16.169  0.00  0.00    +0.000 C 
ATOM     14  C   UNL     1       5.030   4.726  14.784  0.00  0.00    +0.000 C 
ATOM     15  O   UNL     1       4.962   4.097  17.198  0.00  0.00    +0.000 OA
BRANCH  13  16
ATOM     16  C   UNL     1       7.234   4.806  15.850  0.00  0.00    +0.000 C 
ATOM     17  O   UNL     1       7.801   5.287  14.863  0.00  0.00    +0.000 OA
BRANCH  16  18
ATOM     18  O   UNL     1       8.012   4.386  16.860  0.00  0.00    +0.000 OA
ATOM     19  H   UNL     1       7.784   5.011  17.586  0.00  0.00    +0.000 HD
ENDBRANCH  16  18
ENDBRANCH  13  16
ENDBRANCH   1   2
BRANCH   1  20
ATOM     20  C   UNL     1       0.317   7.601  20.692  0.00  0.00    +0.000 C 
BRANCH  20  21
ATOM     21  C   UNL     1       0.150   8.617  21.840  0.00  0.00    +0.000 C 
BRANCH  21  22
ATOM     22  C   UNL     1       1.091   9.824  21.679  0.00  0.00    +0.000 C 
BRANCH  22  23
ATOM     23  O   UNL     1       0.486  10.864  20.898  0.00  0.00    +0.000 OA
BRANCH  23  25
ATOM     24  C   UNL     1      -1.598  11.925  20.444  0.00  0.00    +0.000 A 
ATOM     25  C   UNL     1      -0.653  11.448  21.376  0.00  0.00    +0.000 A 
ATOM     26  C   UNL     1      -0.939  11.551  22.745  0.00  0.00    +0.000 A 
ATOM     27  C   UNL     1      -2.159  12.119  23.214  0.00  0.00    +0.000 A 
ATOM     28  C   UNL     1      -3.104  12.582  22.289  0.00  0.00    +0.000 A 
ATOM     29  C   UNL     1      -2.814  12.480  20.910  0.00  0.00    +0.000 A 
BRANCH  28  30
ATOM     30  C   UNL     1      -4.413  13.167  22.705  0.00  0.00    +0.000 C 
ATOM     31  C   UNL     1      -4.484  14.469  23.462  0.00  0.00    +0.000 C 
ATOM     32  O   UNL     1      -5.448  12.554  22.459  0.00  0.00    +0.000 OA
ENDBRANCH  28  30
BRANCH  29  33
ATOM     33  O   UNL     1      -3.711  12.887  19.949  0.00  0.00    +0.000 OA
ATOM     34  H   UNL     1      -4.212  13.658  20.295  0.00  0.00    +0.000 HD
ENDBRANCH  29  33
BRANCH  24  35
ATOM     35  C   UNL     1      -1.349  11.873  18.943  0.00  0.00    +0.000 C 
BRANCH  35  37
ATOM     36  C   UNL     1      -0.809   9.831  17.542  0.00  0.00    +0.000 C 
ATOM     37  C   UNL     1      -1.871  10.565  18.344  0.00  0.00    +0.000 C 
ENDBRANCH  35  37
ENDBRANCH  24  35
ENDBRANCH  23  25
ENDBRANCH  22  23
ENDBRANCH  21  22
ENDBRANCH  20  21
ENDBRANCH   1  20
TORSDOF 12
ENDMDL
MODEL 7
REMARK VINA RESULT:      -8.5      1.989      3.215
REMARK  Name = 
REMARK  18 active torsions:
REMARK  status: ('A' for Active; 'I' for Inactive)
REMARK    1  A    between atoms: C_1  and  C_2
REMARK    2  A    between atoms: C_2  and  C_3
REMARK    3  A    between atoms: C_3  and  C_4
REMARK    4  A    between atoms: C_5  and  O_6
REMARK    5  A    between atoms: O_6  and  C_7
REMARK    6  A    between atoms: C_7  and  C_8
REMARK    7  A    between atoms: C_8  and  C_9
REMARK    8  A    between atoms: C_9  and  O_10
REMARK    9  A    between atoms: O_10  and  C_11
REMARK   10  A    between atoms: C_12  and  C_13
REMARK   11  A    between atoms: C_14  and  C_15
REMARK   12  A    between atoms: C_18  and  C_19
REMARK   13  A    between atoms: C_22  and  C_23
REMARK   14  A    between atoms: C_22  and  C_24
REMARK   15  A    between atoms: C_24  and  O_26
REMARK   16  A    between atoms: C_30  and  C_31
REMARK   17  A    between atoms: C_31  and  C_32
REMARK   18  A    between atoms: C_34  and  O_35
REMARK                            x       y       z     vdW  Elec       q    Type
REMARK                         _______ _______ _______ _____ _____    ______ ____
ROOT
ATOM      1  O   UNL     1       1.163   5.762  20.435  0.00  0.00    +0.000 OA
ENDROOT
BRANCH   1   2
ATOM      2  C   UNL     1       1.841   5.265  19.348  0.00  0.00    +0.000 A 
ATOM      3  C   UNL     1       2.047   3.857  19.304  0.00  0.00    +0.000 A 
ATOM      4  C   UNL     1       1.137   3.021  20.206  0.00  0.00    +0.000 C 
ATOM      5  C   UNL     1       3.019   3.236  18.367  0.00  0.00    +0.000 A 
ATOM      6  C   UNL     1       3.008   1.724  18.265  0.00  0.00    +0.000 C 
ATOM      7  C   UNL     1       3.881   4.071  17.578  0.00  0.00    +0.000 A 
ATOM      8  C   UNL     1       3.548   5.410  17.643  0.00  0.00    +0.000 A 
ATOM      9  C   UNL     1       2.449   6.004  18.358  0.00  0.00    +0.000 A 
ATOM     10  C   UNL     1       2.161   7.456  18.042  0.00  0.00    +0.000 C 
ATOM     11  C   UNL     1       4.509   6.424  17.188  0.00  0.00    +0.000 C 
ATOM     12  C   UNL     1       5.637   6.164  16.307  0.00  0.00    +0.000 C 
ATOM     13  C   UNL     1       5.736   4.702  15.918  0.00  0.00    +0.000 C 
ATOM     14  C   UNL     1       5.156   4.573  14.486  0.00  0.00    +0.000 C 
ATOM     15  O   UNL     1       5.028   3.723  16.829  0.00  0.00    +0.000 OA
BRANCH  13  16
ATOM     16  C   UNL     1       7.293   4.730  15.674  0.00  0.00    +0.000 C 
ATOM     17  O   UNL     1       7.855   5.242  14.700  0.00  0.00    +0.000 OA
BRANCH  16  18
ATOM     18  O   UNL     1       8.060   4.417  16.730  0.00  0.00    +0.000 OA
ATOM     19  H   UNL     1       7.443   3.908  17.305  0.00  0.00    +0.000 HD
ENDBRANCH  16  18
ENDBRANCH  13  16
ENDBRANCH   1   2
BRANCH   1  20
ATOM     20  C   UNL     1       1.624   6.846  21.251  0.00  0.00    +0.000 C 
BRANCH  20  21
ATOM     21  C   UNL     1       0.545   7.869  21.661  0.00  0.00    +0.000 C 
BRANCH  21  22
ATOM     22  C   UNL     1       1.043   9.318  21.516  0.00  0.00    +0.000 C 
BRANCH  22  23
ATOM     23  O   UNL     1       0.921   9.785  20.165  0.00  0.00    +0.000 OA
BRANCH  23  25
ATOM     24  C   UNL     1      -0.053  11.495  18.822  0.00  0.00    +0.000 A 
ATOM     25  C   UNL     1       0.684  11.116  19.964  0.00  0.00    +0.000 A 
ATOM     26  C   UNL     1       1.102  12.108  20.862  0.00  0.00    +0.000 A 
ATOM     27  C   UNL     1       0.795  13.484  20.652  0.00  0.00    +0.000 A 
ATOM     28  C   UNL     1       0.053  13.861  19.526  0.00  0.00    +0.000 A 
ATOM     29  C   UNL     1      -0.365  12.860  18.619  0.00  0.00    +0.000 A 
BRANCH  28  30
ATOM     30  C   UNL     1      -0.326  15.279  19.252  0.00  0.00    +0.000 C 
ATOM     31  C   UNL     1      -1.374  15.983  20.076  0.00  0.00    +0.000 C 
ATOM     32  O   UNL     1       0.198  15.868  18.311  0.00  0.00    +0.000 OA
ENDBRANCH  28  30
BRANCH  29  33
ATOM     33  O   UNL     1      -1.124  13.159  17.510  0.00  0.00    +0.000 OA
ATOM     34  H   UNL     1      -1.089  12.396  16.893  0.00  0.00    +0.000 HD
ENDBRANCH  29  33
BRANCH  24  35
ATOM     35  C   UNL     1      -0.519  10.480  17.788  0.00  0.00    +0.000 C 
BRANCH  35  37
ATOM     36  C   UNL     1      -2.843  10.003  16.895  0.00  0.00    +0.000 C 
ATOM     37  C   UNL     1      -1.927   9.974  18.108  0.00  0.00    +0.000 C 
ENDBRANCH  35  37
ENDBRANCH  24  35
ENDBRANCH  23  25
ENDBRANCH  22  23
ENDBRANCH  21  22
ENDBRANCH  20  21
ENDBRANCH   1  20
TORSDOF 12
ENDMDL
MODEL 8
REMARK VINA RESULT:      -8.3      0.590      1.102
REMARK  Name = 
REMARK  18 active torsions:
REMARK  status: ('A' for Active; 'I' for Inactive)
REMARK    1  A    between atoms: C_1  and  C_2
REMARK    2  A    between atoms: C_2  and  C_3
REMARK    3  A    between atoms: C_3  and  C_4
REMARK    4  A    between atoms: C_5  and  O_6
REMARK    5  A    between atoms: O_6  and  C_7
REMARK    6  A    between atoms: C_7  and  C_8
REMARK    7  A    between atoms: C_8  and  C_9
REMARK    8  A    between atoms: C_9  and  O_10
REMARK    9  A    between atoms: O_10  and  C_11
REMARK   10  A    between atoms: C_12  and  C_13
REMARK   11  A    between atoms: C_14  and  C_15
REMARK   12  A    between atoms: C_18  and  C_19
REMARK   13  A    between atoms: C_22  and  C_23
REMARK   14  A    between atoms: C_22  and  C_24
REMARK   15  A    between atoms: C_24  and  O_26
REMARK   16  A    between atoms: C_30  and  C_31
REMARK   17  A    between atoms: C_31  and  C_32
REMARK   18  A    between atoms: C_34  and  O_35
REMARK                            x       y       z     vdW  Elec       q    Type
REMARK                         _______ _______ _______ _____ _____    ______ ____
ROOT
ATOM      1  O   UNL     1       1.462   6.768  20.684  0.00  0.00    +0.000 OA
ENDROOT
BRANCH   1   2
ATOM      2  C   UNL     1       2.056   6.081  19.653  0.00  0.00    +0.000 A 
ATOM      3  C   UNL     1       2.228   4.679  19.826  0.00  0.00    +0.000 A 
ATOM      4  C   UNL     1       1.359   4.028  20.905  0.00  0.00    +0.000 C 
ATOM      5  C   UNL     1       3.123   3.884  18.945  0.00  0.00    +0.000 A 
ATOM      6  C   UNL     1       3.071   2.376  19.091  0.00  0.00    +0.000 C 
ATOM      7  C   UNL     1       3.951   4.553  17.981  0.00  0.00    +0.000 A 
ATOM      8  C   UNL     1       3.652   5.895  17.848  0.00  0.00    +0.000 A 
ATOM      9  C   UNL     1       2.615   6.632  18.522  0.00  0.00    +0.000 A 
ATOM     10  C   UNL     1       2.340   8.023  17.992  0.00  0.00    +0.000 C 
ATOM     11  C   UNL     1       4.605   6.790  17.177  0.00  0.00    +0.000 C 
ATOM     12  C   UNL     1       5.667   6.356  16.284  0.00  0.00    +0.000 C 
ATOM     13  C   UNL     1       5.707   4.848  16.132  0.00  0.00    +0.000 C 
ATOM     14  C   UNL     1       5.033   4.510  14.777  0.00  0.00    +0.000 C 
ATOM     15  O   UNL     1       5.038   4.051  17.230  0.00  0.00    +0.000 OA
BRANCH  13  16
ATOM     16  C   UNL     1       7.246   4.786  15.793  0.00  0.00    +0.000 C 
ATOM     17  O   UNL     1       7.785   5.315  14.815  0.00  0.00    +0.000 OA
BRANCH  16  18
ATOM     18  O   UNL     1       8.049   4.361  16.781  0.00  0.00    +0.000 OA
ATOM     19  H   UNL     1       8.941   4.651  16.477  0.00  0.00    +0.000 HD
ENDBRANCH  16  18
ENDBRANCH  13  16
ENDBRANCH   1   2
BRANCH   1  20
ATOM     20  C   UNL     1       1.624   8.172  20.922  0.00  0.00    +0.000 C 
BRANCH  20  21
ATOM     21  C   UNL     1       0.346   9.020  20.767  0.00  0.00    +0.000 C 
BRANCH  21  22
ATOM     22  C   UNL     1       0.529  10.152  19.740  0.00  0.00    +0.000 C 
BRANCH  22  23
ATOM     23  O   UNL     1      -0.294  11.284  20.049  0.00  0.00    +0.000 OA
BRANCH  23  25
ATOM     24  C   UNL     1      -2.463  12.272  20.036  0.00  0.00    +0.000 A 
ATOM     25  C   UNL     1      -1.550  11.334  19.510  0.00  0.00    +0.000 A 
ATOM     26  C   UNL     1      -1.949  10.527  18.436  0.00  0.00    +0.000 A 
ATOM     27  C   UNL     1      -3.248  10.636  17.861  0.00  0.00    +0.000 A 
ATOM     28  C   UNL     1      -4.152  11.576  18.373  0.00  0.00    +0.000 A 
ATOM     29  C   UNL     1      -3.750  12.387  19.458  0.00  0.00    +0.000 A 
BRANCH  28  30
ATOM     30  C   UNL     1      -5.521  11.763  17.808  0.00  0.00    +0.000 C 
ATOM     31  C   UNL     1      -6.678  10.905  18.254  0.00  0.00    +0.000 C 
ATOM     32  O   UNL     1      -5.698  12.607  16.932  0.00  0.00    +0.000 OA
ENDBRANCH  28  30
BRANCH  29  33
ATOM     33  O   UNL     1      -4.577  13.351  19.988  0.00  0.00    +0.000 OA
ATOM     34  H   UNL     1      -4.314  14.224  19.623  0.00  0.00    +0.000 HD
ENDBRANCH  29  33
BRANCH  24  35
ATOM     35  C   UNL     1      -2.113  13.165  21.218  0.00  0.00    +0.000 C 
BRANCH  35  37
ATOM     36  C   UNL     1      -2.051  15.697  21.340  0.00  0.00    +0.000 C 
ATOM     37  C   UNL     1      -1.417  14.446  20.753  0.00  0.00    +0.000 C 
ENDBRANCH  35  37
ENDBRANCH  24  35
ENDBRANCH  23  25
ENDBRANCH  22  23
ENDBRANCH  21  22
ENDBRANCH  20  21
ENDBRANCH   1  20
TORSDOF 12
ENDMDL
MODEL 9
REMARK VINA RESULT:      -8.2      1.786      2.951
REMARK  Name = 
REMARK  18 active torsions:
REMARK  status: ('A' for Active; 'I' for Inactive)
REMARK    1  A    between atoms: C_1  and  C_2
REMARK    2  A    between atoms: C_2  and  C_3
REMARK    3  A    between atoms: C_3  and  C_4
REMARK    4  A    between atoms: C_5  and  O_6
REMARK    5  A    between atoms: O_6  and  C_7
REMARK    6  A    between atoms: C_7  and  C_8
REMARK    7  A    between atoms: C_8  and  C_9
REMARK    8  A    between atoms: C_9  and  O_10
REMARK    9  A    between atoms: O_10  and  C_11
REMARK   10  A    between atoms: C_12  and  C_13
REMARK   11  A    between atoms: C_14  and  C_15
REMARK   12  A    between atoms: C_18  and  C_19
REMARK   13  A    between atoms: C_22  and  C_23
REMARK   14  A    between atoms: C_22  and  C_24
REMARK   15  A    between atoms: C_24  and  O_26
REMARK   16  A    between atoms: C_30  and  C_31
REMARK   17  A    between atoms: C_31  and  C_32
REMARK   18  A    between atoms: C_34  and  O_35
REMARK                            x       y       z     vdW  Elec       q    Type
REMARK                         _______ _______ _______ _____ _____    ______ ____
ROOT
ATOM      1  O   UNL     1       1.493   6.246  20.860  0.00  0.00    +0.000 OA
ENDROOT
BRANCH   1   2
ATOM      2  C   UNL     1       2.063   5.691  19.739  0.00  0.00    +0.000 A 
ATOM      3  C   UNL     1       2.149   4.272  19.694  0.00  0.00    +0.000 A 
ATOM      4  C   UNL     1       1.227   3.516  20.651  0.00  0.00    +0.000 C 
ATOM      5  C   UNL     1       3.011   3.570  18.706  0.00  0.00    +0.000 A 
ATOM      6  C   UNL     1       2.869   2.064  18.616  0.00  0.00    +0.000 C 
ATOM      7  C   UNL     1       3.893   4.330  17.864  0.00  0.00    +0.000 A 
ATOM      8  C   UNL     1       3.676   5.691  17.939  0.00  0.00    +0.000 A 
ATOM      9  C   UNL     1       2.672   6.376  18.712  0.00  0.00    +0.000 A 
ATOM     10  C   UNL     1       2.488   7.846  18.403  0.00  0.00    +0.000 C 
ATOM     11  C   UNL     1       4.690   6.621  17.423  0.00  0.00    +0.000 C 
ATOM     12  C   UNL     1       5.740   6.267  16.482  0.00  0.00    +0.000 C 
ATOM     13  C   UNL     1       5.695   4.801  16.097  0.00  0.00    +0.000 C 
ATOM     14  C   UNL     1       5.025   4.718  14.701  0.00  0.00    +0.000 C 
ATOM     15  O   UNL     1       4.962   3.885  17.053  0.00  0.00    +0.000 OA
BRANCH  13  16
ATOM     16  C   UNL     1       7.233   4.699  15.764  0.00  0.00    +0.000 C 
ATOM     17  O   UNL     1       7.800   5.264  14.823  0.00  0.00    +0.000 OA
BRANCH  16  18
ATOM     18  O   UNL     1       8.011   4.186  16.730  0.00  0.00    +0.000 OA
ATOM     19  H   UNL     1       7.545   3.350  16.965  0.00  0.00    +0.000 HD
ENDBRANCH  16  18
ENDBRANCH  13  16
ENDBRANCH   1   2
BRANCH   1  20
ATOM     20  C   UNL     1       0.805   7.503  20.883  0.00  0.00    +0.000 C 
BRANCH  20  21
ATOM     21  C   UNL     1       1.474   8.607  21.727  0.00  0.00    +0.000 C 
BRANCH  21  22
ATOM     22  C   UNL     1       0.455   9.358  22.602  0.00  0.00    +0.000 C 
BRANCH  22  23
ATOM     23  O   UNL     1      -0.698   9.753  21.848  0.00  0.00    +0.000 OA
BRANCH  23  25
ATOM     24  C   UNL     1      -1.163  11.513  20.310  0.00  0.00    +0.000 A 
ATOM     25  C   UNL     1      -0.897  11.088  21.628  0.00  0.00    +0.000 A 
ATOM     26  C   UNL     1      -0.889  12.038  22.660  0.00  0.00    +0.000 A 
ATOM     27  C   UNL     1      -1.150  13.416  22.408  0.00  0.00    +0.000 A 
ATOM     28  C   UNL     1      -1.427  13.839  21.102  0.00  0.00    +0.000 A 
ATOM     29  C   UNL     1      -1.431  12.880  20.063  0.00  0.00    +0.000 A 
BRANCH  28  30
ATOM     30  C   UNL     1      -1.732  15.261  20.766  0.00  0.00    +0.000 C 
ATOM     31  C   UNL     1      -2.908  15.977  21.381  0.00  0.00    +0.000 C 
ATOM     32  O   UNL     1      -1.034  15.845  19.941  0.00  0.00    +0.000 OA
ENDBRANCH  28  30
BRANCH  29  33
ATOM     33  O   UNL     1      -1.727  13.223  18.763  0.00  0.00    +0.000 OA
ATOM     34  H   UNL     1      -2.217  12.481  18.347  0.00  0.00    +0.000 HD
ENDBRANCH  29  33
BRANCH  24  35
ATOM     35  C   UNL     1      -1.162  10.546  19.134  0.00  0.00    +0.000 C 
BRANCH  35  37
ATOM     36  C   UNL     1       1.238  11.361  19.174  0.00  0.00    +0.000 C 
ATOM     37  C   UNL     1       0.242  10.402  18.542  0.00  0.00    +0.000 C 
ENDBRANCH  35  37
ENDBRANCH  24  35
ENDBRANCH  23  25
ENDBRANCH  22  23
ENDBRANCH  21  22
ENDBRANCH  20  21
ENDBRANCH   1  20
TORSDOF 12
ENDMDL
