MODEL 1
REMARK VINA RESULT:      -6.4      0.000      0.000
REMARK  Name = 
REMARK  3 active torsions:
REMARK  status: ('A' for Active; 'I' for Inactive)
REMARK    1  A    between atoms: C_2  and  C_3
REMARK    2  A    between atoms: C_7  and  N_8
REMARK    3  A    between atoms: N_11  and  C_12
REMARK                            x       y       z     vdW  Elec       q    Type
REMARK                         _______ _______ _______ _____ _____    ______ ____
ROOT
ATOM      1  N   UNL     1       3.142   6.184  19.934  0.00  0.00    +0.000 N 
ATOM      2  C   UNL     1       2.193   7.147  19.689  0.00  0.00    +0.000 C 
ATOM      3  O   UNL     1       1.791   7.487  18.582  0.00  0.00    +0.000 OA
ATOM      4  N   UNL     1       1.662   7.732  20.818  0.00  0.00    +0.000 N 
ATOM      5  H   UNL     1       3.521   6.116  20.867  0.00  0.00    +0.000 HD
ATOM      6  H   UNL     1       2.001   7.471  21.736  0.00  0.00    +0.000 HD
ENDROOT
BRANCH   4   7
ATOM      7  C   UNL     1       0.461   8.551  20.649  0.00  0.00    +0.000 C 
ATOM      8  C   UNL     1       0.780  10.027  20.350  0.00  0.00    +0.000 C 
ATOM      9  C   UNL     1       1.021  10.715  21.680  0.00  0.00    +0.000 C 
ATOM     10  S   UNL     1      -0.148   9.973  22.794  0.00  0.00    +0.000 S 
ATOM     11  O   UNL     1      -1.344  10.796  22.829  0.00  0.00    +0.000 OA
ATOM     12  O   UNL     1       0.548   9.571  23.999  0.00  0.00    +0.000 OA
ATOM     13  C   UNL     1      -0.496   8.517  21.834  0.00  0.00    +0.000 C 
ENDBRANCH   4   7
BRANCH   1  18
ATOM     14  C   UNL     1       5.447   5.152  17.197  0.00  0.00    +0.000 A 
ATOM     15  C   UNL     1       4.923   3.907  16.834  0.00  0.00    +0.000 A 
ATOM     16  C   UNL     1       3.835   3.393  17.523  0.00  0.00    +0.000 A 
ATOM     17  C   UNL     1       3.266   4.129  18.561  0.00  0.00    +0.000 A 
ATOM     18  C   UNL     1       3.749   5.395  18.919  0.00  0.00    +0.000 A 
ATOM     19  C   UNL     1       4.868   5.892  18.244  0.00  0.00    +0.000 A 
BRANCH  14  21
ATOM     20  N   UNL     1       7.479   6.090  15.889  0.00  0.00    +0.000 NA
ATOM     21  C   UNL     1       6.571   5.673  16.479  0.00  0.00    +0.000 C 
ENDBRANCH  14  21
ENDBRANCH   1  18
TORSDOF 3
ENDMDL
MODEL 2
REMARK VINA RESULT:      -6.4      1.998      2.188
REMARK  Name = 
REMARK  3 active torsions:
REMARK  status: ('A' for Active; 'I' for Inactive)
REMARK    1  A    between atoms: C_2  and  C_3
REMARK    2  A    between atoms: C_7  and  N_8
REMARK    3  A    between atoms: N_11  and  C_12
REMARK                            x       y       z     vdW  Elec       q    Type
REMARK                         _______ _______ _______ _____ _____    ______ ____
ROOT
ATOM      1  N   UNL     1       2.538   6.996  19.031  0.00  0.00    +0.000 N 
ATOM      2  C   UNL     1       2.205   8.157  18.375  0.00  0.00    +0.000 C 
ATOM      3  O   UNL     1       2.410   8.390  17.189  0.00  0.00    +0.000 OA
ATOM      4  N   UNL     1       1.568   9.097  19.156  0.00  0.00    +0.000 N 
ATOM      5  H   UNL     1       2.484   6.988  20.039  0.00  0.00    +0.000 HD
ATOM      6  H   UNL     1       1.411   8.922  20.140  0.00  0.00    +0.000 HD
ENDROOT
BRANCH   4   7
ATOM      7  C   UNL     1       0.939  10.226  18.468  0.00  0.00    +0.000 C 
ATOM      8  C   UNL     1       1.648  11.565  18.741  0.00  0.00    +0.000 C 
ATOM      9  C   UNL     1       1.109  12.103  20.051  0.00  0.00    +0.000 C 
ATOM     10  S   UNL     1      -0.616  11.675  20.043  0.00  0.00    +0.000 S 
ATOM     11  O   UNL     1      -1.372  12.798  19.516  0.00  0.00    +0.000 OA
ATOM     12  O   UNL     1      -0.946  11.047  21.305  0.00  0.00    +0.000 OA
ATOM     13  C   UNL     1      -0.539  10.415  18.791  0.00  0.00    +0.000 C 
ENDBRANCH   4   7
BRANCH   1  18
ATOM     14  C   UNL     1       5.092   4.722  17.558  0.00  0.00    +0.000 A 
ATOM     15  C   UNL     1       4.298   3.690  17.049  0.00  0.00    +0.000 A 
ATOM     16  C   UNL     1       2.925   3.727  17.230  0.00  0.00    +0.000 A 
ATOM     17  C   UNL     1       2.346   4.800  17.906  0.00  0.00    +0.000 A 
ATOM     18  C   UNL     1       3.116   5.865  18.393  0.00  0.00    +0.000 A 
ATOM     19  C   UNL     1       4.505   5.805  18.238  0.00  0.00    +0.000 A 
BRANCH  14  21
ATOM     20  N   UNL     1       7.659   4.644  17.206  0.00  0.00    +0.000 NA
ATOM     21  C   UNL     1       6.510   4.673  17.366  0.00  0.00    +0.000 C 
ENDBRANCH  14  21
ENDBRANCH   1  18
TORSDOF 3
ENDMDL
MODEL 3
REMARK VINA RESULT:      -6.3      6.184      7.644
REMARK  Name = 
REMARK  3 active torsions:
REMARK  status: ('A' for Active; 'I' for Inactive)
REMARK    1  A    between atoms: C_2  and  C_3
REMARK    2  A    between atoms: C_7  and  N_8
REMARK    3  A    between atoms: N_11  and  C_12
REMARK                            x       y       z     vdW  Elec       q    Type
REMARK                         _______ _______ _______ _____ _____    ______ ____
ROOT
ATOM      1  N   UNL     1       8.449   7.276  18.852  0.00  0.00    +0.000 N 
ATOM      2  C   UNL     1       8.367   8.611  18.536  0.00  0.00    +0.000 C 
ATOM      3  O   UNL     1       7.542   9.116  17.783  0.00  0.00    +0.000 OA
ATOM      4  N   UNL     1       9.299   9.409  19.164  0.00  0.00    +0.000 N 
ATOM      5  H   UNL     1       9.274   6.952  19.337  0.00  0.00    +0.000 HD
ATOM      6  H   UNL     1       9.996   8.999  19.772  0.00  0.00    +0.000 HD
ENDROOT
BRANCH   4   7
ATOM      7  C   UNL     1       9.096  10.857  19.098  0.00  0.00    +0.000 C 
ATOM      8  C   UNL     1       9.622  11.477  17.790  0.00  0.00    +0.000 C 
ATOM      9  C   UNL     1      11.106  11.726  17.974  0.00  0.00    +0.000 C 
ATOM     10  S   UNL     1      11.274  12.247  19.664  0.00  0.00    +0.000 S 
ATOM     11  O   UNL     1      11.242  13.698  19.710  0.00  0.00    +0.000 OA
ATOM     12  O   UNL     1      12.333  11.478  20.285  0.00  0.00    +0.000 OA
ATOM     13  C   UNL     1       9.714  11.633  20.255  0.00  0.00    +0.000 C 
ENDBRANCH   4   7
BRANCH   1  18
ATOM     14  C   UNL     1       6.591   5.018  16.547  0.00  0.00    +0.000 A 
ATOM     15  C   UNL     1       5.661   4.429  17.409  0.00  0.00    +0.000 A 
ATOM     16  C   UNL     1       5.678   4.748  18.758  0.00  0.00    +0.000 A 
ATOM     17  C   UNL     1       6.612   5.664  19.239  0.00  0.00    +0.000 A 
ATOM     18  C   UNL     1       7.530   6.296  18.389  0.00  0.00    +0.000 A 
ATOM     19  C   UNL     1       7.531   5.943  17.035  0.00  0.00    +0.000 A 
BRANCH  14  21
ATOM     20  N   UNL     1       6.538   4.416  14.025  0.00  0.00    +0.000 NA
ATOM     21  C   UNL     1       6.565   4.681  15.156  0.00  0.00    +0.000 C 
ENDBRANCH  14  21
ENDBRANCH   1  18
TORSDOF 3
ENDMDL
MODEL 4
REMARK VINA RESULT:      -6.3      6.140      8.512
REMARK  Name = 
REMARK  3 active torsions:
REMARK  status: ('A' for Active; 'I' for Inactive)
REMARK    1  A    between atoms: C_2  and  C_3
REMARK    2  A    between atoms: C_7  and  N_8
REMARK    3  A    between atoms: N_11  and  C_12
REMARK                            x       y       z     vdW  Elec       q    Type
REMARK                         _______ _______ _______ _____ _____    ______ ____
ROOT
ATOM      1  N   UNL     1       9.023   8.929  19.256  0.00  0.00    +0.000 N 
ATOM      2  C   UNL     1       8.140   8.469  18.309  0.00  0.00    +0.000 C 
ATOM      3  O   UNL     1       7.551   9.162  17.487  0.00  0.00    +0.000 OA
ATOM      4  N   UNL     1       7.955   7.103  18.310  0.00  0.00    +0.000 N 
ATOM      5  H   UNL     1       9.307   8.296  19.990  0.00  0.00    +0.000 HD
ATOM      6  H   UNL     1       8.423   6.525  18.997  0.00  0.00    +0.000 HD
ENDROOT
BRANCH   4   7
ATOM      7  C   UNL     1       7.259   6.519  17.163  0.00  0.00    +0.000 C 
ATOM      8  C   UNL     1       5.795   6.984  17.051  0.00  0.00    +0.000 C 
ATOM      9  C   UNL     1       4.969   6.097  17.963  0.00  0.00    +0.000 C 
ATOM     10  S   UNL     1       5.698   4.484  17.811  0.00  0.00    +0.000 S 
ATOM     11  O   UNL     1       4.978   3.742  16.791  0.00  0.00    +0.000 OA
ATOM     12  O   UNL     1       5.927   3.950  19.138  0.00  0.00    +0.000 OA
ATOM     13  C   UNL     1       7.261   4.996  17.135  0.00  0.00    +0.000 C 
ENDBRANCH   4   7
BRANCH   1  18
ATOM     14  C   UNL     1      10.432  12.258  18.360  0.00  0.00    +0.000 A 
ATOM     15  C   UNL     1      10.329  12.949  19.572  0.00  0.00    +0.000 A 
ATOM     16  C   UNL     1       9.756  12.327  20.670  0.00  0.00    +0.000 A 
ATOM     17  C   UNL     1       9.300  11.014  20.560  0.00  0.00    +0.000 A 
ATOM     18  C   UNL     1       9.426  10.288  19.368  0.00  0.00    +0.000 A 
ATOM     19  C   UNL     1       9.974  10.932  18.254  0.00  0.00    +0.000 A 
BRANCH  14  21
ATOM     20  N   UNL     1      11.508  13.447  16.323  0.00  0.00    +0.000 NA
ATOM     21  C   UNL     1      11.025  12.910  17.232  0.00  0.00    +0.000 C 
ENDBRANCH  14  21
ENDBRANCH   1  18
TORSDOF 3
ENDMDL
MODEL 5
REMARK VINA RESULT:      -6.3      4.121      7.883
REMARK  Name = 
REMARK  3 active torsions:
REMARK  status: ('A' for Active; 'I' for Inactive)
REMARK    1  A    between atoms: C_2  and  C_3
REMARK    2  A    between atoms: C_7  and  N_8
REMARK    3  A    between atoms: N_11  and  C_12
REMARK                            x       y       z     vdW  Elec       q    Type
REMARK                         _______ _______ _______ _____ _____    ______ ____
ROOT
ATOM      1  N   UNL     1       2.421   9.009  18.129  0.00  0.00    +0.000 N 
ATOM      2  C   UNL     1       2.782   7.684  18.073  0.00  0.00    +0.000 C 
ATOM      3  O   UNL     1       2.063   6.736  18.367  0.00  0.00    +0.000 OA
ATOM      4  N   UNL     1       4.063   7.455  17.620  0.00  0.00    +0.000 N 
ATOM      5  H   UNL     1       3.148   9.705  18.038  0.00  0.00    +0.000 HD
ATOM      6  H   UNL     1       4.671   8.232  17.393  0.00  0.00    +0.000 HD
ENDROOT
BRANCH   4   7
ATOM      7  C   UNL     1       4.415   6.079  17.269  0.00  0.00    +0.000 C 
ATOM      8  C   UNL     1       5.038   5.302  18.443  0.00  0.00    +0.000 C 
ATOM      9  C   UNL     1       6.516   5.637  18.473  0.00  0.00    +0.000 C 
ATOM     10  S   UNL     1       6.991   5.753  16.764  0.00  0.00    +0.000 S 
ATOM     11  O   UNL     1       7.511   4.466  16.338  0.00  0.00    +0.000 OA
ATOM     12  O   UNL     1       7.726   6.985  16.568  0.00  0.00    +0.000 OA
ATOM     13  C   UNL     1       5.362   5.955  16.081  0.00  0.00    +0.000 C 
ENDBRANCH   4   7
BRANCH   1  18
ATOM     14  C   UNL     1      -1.151  10.011  17.812  0.00  0.00    +0.000 A 
ATOM     15  C   UNL     1      -1.446  10.441  19.109  0.00  0.00    +0.000 A 
ATOM     16  C   UNL     1      -0.475  10.360  20.096  0.00  0.00    +0.000 A 
ATOM     17  C   UNL     1       0.789   9.863  19.782  0.00  0.00    +0.000 A 
ATOM     18  C   UNL     1       1.120   9.461  18.481  0.00  0.00    +0.000 A 
ATOM     19  C   UNL     1       0.126   9.512  17.497  0.00  0.00    +0.000 A 
BRANCH  14  21
ATOM     20  N   UNL     1      -2.986  10.174  15.988  0.00  0.00    +0.000 NA
ATOM     21  C   UNL     1      -2.161  10.099  16.801  0.00  0.00    +0.000 C 
ENDBRANCH  14  21
ENDBRANCH   1  18
TORSDOF 3
ENDMDL
MODEL 6
REMARK VINA RESULT:      -6.2      3.715      7.909
REMARK  Name = 
REMARK  3 active torsions:
REMARK  status: ('A' for Active; 'I' for Inactive)
REMARK    1  A    between atoms: C_2  and  C_3
REMARK    2  A    between atoms: C_7  and  N_8
REMARK    3  A    between atoms: N_11  and  C_12
REMARK                            x       y       z     vdW  Elec       q    Type
REMARK                         _______ _______ _______ _____ _____    ______ ____
ROOT
ATOM      1  N   UNL     1       2.463   9.083  18.124  0.00  0.00    +0.000 N 
ATOM      2  C   UNL     1       2.834   7.760  18.149  0.00  0.00    +0.000 C 
ATOM      3  O   UNL     1       2.182   6.847  18.645  0.00  0.00    +0.000 OA
ATOM      4  N   UNL     1       4.035   7.486  17.532  0.00  0.00    +0.000 N 
ATOM      5  H   UNL     1       3.156   9.766  17.852  0.00  0.00    +0.000 HD
ATOM      6  H   UNL     1       4.588   8.235  17.136  0.00  0.00    +0.000 HD
ENDROOT
BRANCH   4   7
ATOM      7  C   UNL     1       4.352   6.081  17.274  0.00  0.00    +0.000 C 
ATOM      8  C   UNL     1       4.986   5.377  18.487  0.00  0.00    +0.000 C 
ATOM      9  C   UNL     1       6.471   5.684  18.461  0.00  0.00    +0.000 C 
ATOM     10  S   UNL     1       6.909   5.666  16.739  0.00  0.00    +0.000 S 
ATOM     11  O   UNL     1       7.393   4.341  16.396  0.00  0.00    +0.000 OA
ATOM     12  O   UNL     1       7.662   6.865  16.438  0.00  0.00    +0.000 OA
ATOM     13  C   UNL     1       5.269   5.852  16.078  0.00  0.00    +0.000 C 
ENDBRANCH   4   7
BRANCH   1  18
ATOM     14  C   UNL     1      -0.142  10.264  20.508  0.00  0.00    +0.000 A 
ATOM     15  C   UNL     1      -1.246  10.435  19.666  0.00  0.00    +0.000 A 
ATOM     16  C   UNL     1      -1.114  10.200  18.306  0.00  0.00    +0.000 A 
ATOM     17  C   UNL     1       0.113   9.782  17.793  0.00  0.00    +0.000 A 
ATOM     18  C   UNL     1       1.223   9.567  18.621  0.00  0.00    +0.000 A 
ATOM     19  C   UNL     1       1.094   9.840  19.987  0.00  0.00    +0.000 A 
BRANCH  14  21
ATOM     20  N   UNL     1      -0.401  10.702  23.050  0.00  0.00    +0.000 NA
ATOM     21  C   UNL     1      -0.289  10.510  21.910  0.00  0.00    +0.000 C 
ENDBRANCH  14  21
ENDBRANCH   1  18
TORSDOF 3
ENDMDL
MODEL 7
REMARK VINA RESULT:      -6.2      1.508      1.654
REMARK  Name = 
REMARK  3 active torsions:
REMARK  status: ('A' for Active; 'I' for Inactive)
REMARK    1  A    between atoms: C_2  and  C_3
REMARK    2  A    between atoms: C_7  and  N_8
REMARK    3  A    between atoms: N_11  and  C_12
REMARK                            x       y       z     vdW  Elec       q    Type
REMARK                         _______ _______ _______ _____ _____    ______ ____
ROOT
ATOM      1  N   UNL     1       2.468   6.896  19.811  0.00  0.00    +0.000 N 
ATOM      2  C   UNL     1       1.908   8.018  19.248  0.00  0.00    +0.000 C 
ATOM      3  O   UNL     1       1.876   8.274  18.050  0.00  0.00    +0.000 OA
ATOM      4  N   UNL     1       1.326   8.884  20.148  0.00  0.00    +0.000 N 
ATOM      5  H   UNL     1       2.594   6.879  20.813  0.00  0.00    +0.000 HD
ATOM      6  H   UNL     1       1.364   8.690  21.141  0.00  0.00    +0.000 HD
ENDROOT
BRANCH   4   7
ATOM      7  C   UNL     1       0.474   9.943  19.606  0.00  0.00    +0.000 C 
ATOM      8  C   UNL     1       1.219  11.278  19.425  0.00  0.00    +0.000 C 
ATOM      9  C   UNL     1       1.197  11.991  20.763  0.00  0.00    +0.000 C 
ATOM     10  S   UNL     1      -0.403  11.628  21.447  0.00  0.00    +0.000 S 
ATOM     11  O   UNL     1      -1.312  12.705  21.100  0.00  0.00    +0.000 OA
ATOM     12  O   UNL     1      -0.233  11.170  22.810  0.00  0.00    +0.000 OA
ATOM     13  C   UNL     1      -0.780  10.223  20.425  0.00  0.00    +0.000 C 
ENDBRANCH   4   7
BRANCH   1  18
ATOM     14  C   UNL     1       5.013   4.691  18.221  0.00  0.00    +0.000 A 
ATOM     15  C   UNL     1       4.212   3.801  17.499  0.00  0.00    +0.000 A 
ATOM     16  C   UNL     1       2.831   3.906  17.573  0.00  0.00    +0.000 A 
ATOM     17  C   UNL     1       2.256   4.906  18.355  0.00  0.00    +0.000 A 
ATOM     18  C   UNL     1       3.037   5.833  19.058  0.00  0.00    +0.000 A 
ATOM     19  C   UNL     1       4.429   5.701  19.008  0.00  0.00    +0.000 A 
BRANCH  14  21
ATOM     20  N   UNL     1       7.593   4.488  18.075  0.00  0.00    +0.000 NA
ATOM     21  C   UNL     1       6.437   4.574  18.138  0.00  0.00    +0.000 C 
ENDBRANCH  14  21
ENDBRANCH   1  18
TORSDOF 3
ENDMDL
MODEL 8
REMARK VINA RESULT:      -6.1      5.778      7.539
REMARK  Name = 
REMARK  3 active torsions:
REMARK  status: ('A' for Active; 'I' for Inactive)
REMARK    1  A    between atoms: C_2  and  C_3
REMARK    2  A    between atoms: C_7  and  N_8
REMARK    3  A    between atoms: N_11  and  C_12
REMARK                            x       y       z     vdW  Elec       q    Type
REMARK                         _______ _______ _______ _____ _____    ______ ____
ROOT
ATOM      1  N   UNL     1       6.905   8.176  17.182  0.00  0.00    +0.000 N 
ATOM      2  C   UNL     1       7.943   8.515  18.017  0.00  0.00    +0.000 C 
ATOM      3  O   UNL     1       8.549   7.742  18.750  0.00  0.00    +0.000 OA
ATOM      4  N   UNL     1       8.310   9.842  17.969  0.00  0.00    +0.000 N 
ATOM      5  H   UNL     1       6.368   8.922  16.763  0.00  0.00    +0.000 HD
ATOM      6  H   UNL     1       7.803  10.491  17.380  0.00  0.00    +0.000 HD
ENDROOT
BRANCH   4   7
ATOM      7  C   UNL     1       9.573  10.213  18.608  0.00  0.00    +0.000 C 
ATOM      8  C   UNL     1       9.384  10.762  20.034  0.00  0.00    +0.000 C 
ATOM      9  C   UNL     1       9.053  12.236  19.909  0.00  0.00    +0.000 C 
ATOM     10  S   UNL     1      10.049  12.814  18.556  0.00  0.00    +0.000 S 
ATOM     11  O   UNL     1      11.287  13.356  19.088  0.00  0.00    +0.000 OA
ATOM     12  O   UNL     1       9.208  13.561  17.644  0.00  0.00    +0.000 OA
ATOM     13  C   UNL     1      10.398  11.229  17.829  0.00  0.00    +0.000 C 
ENDBRANCH   4   7
BRANCH   1  18
ATOM     14  C   UNL     1       4.637   5.223  17.240  0.00  0.00    +0.000 A 
ATOM     15  C   UNL     1       5.477   4.206  16.774  0.00  0.00    +0.000 A 
ATOM     16  C   UNL     1       6.778   4.508  16.401  0.00  0.00    +0.000 A 
ATOM     17  C   UNL     1       7.241   5.818  16.509  0.00  0.00    +0.000 A 
ATOM     18  C   UNL     1       6.431   6.847  17.009  0.00  0.00    +0.000 A 
ATOM     19  C   UNL     1       5.108   6.543  17.349  0.00  0.00    +0.000 A 
BRANCH  14  21
ATOM     20  N   UNL     1       2.206   4.649  17.934  0.00  0.00    +0.000 NA
ATOM     21  C   UNL     1       3.296   4.900  17.621  0.00  0.00    +0.000 C 
ENDBRANCH  14  21
ENDBRANCH   1  18
TORSDOF 3
ENDMDL
MODEL 9
REMARK VINA RESULT:      -6.1      3.658      7.636
REMARK  Name = 
REMARK  3 active torsions:
REMARK  status: ('A' for Active; 'I' for Inactive)
REMARK    1  A    between atoms: C_2  and  C_3
REMARK    2  A    between atoms: C_7  and  N_8
REMARK    3  A    between atoms: N_11  and  C_12
REMARK                            x       y       z     vdW  Elec       q    Type
REMARK                         _______ _______ _______ _____ _____    ______ ____
ROOT
ATOM      1  N   UNL     1       1.835   8.654  17.945  0.00  0.00    +0.000 N 
ATOM      2  C   UNL     1       2.237   7.766  18.915  0.00  0.00    +0.000 C 
ATOM      3  O   UNL     1       1.971   7.847  20.109  0.00  0.00    +0.000 OA
ATOM      4  N   UNL     1       2.978   6.702  18.449  0.00  0.00    +0.000 N 
ATOM      5  H   UNL     1       2.261   8.585  17.032  0.00  0.00    +0.000 HD
ATOM      6  H   UNL     1       3.217   6.636  17.468  0.00  0.00    +0.000 HD
ENDROOT
BRANCH   4   7
ATOM      7  C   UNL     1       3.195   5.583  19.368  0.00  0.00    +0.000 C 
ATOM      8  C   UNL     1       4.581   4.932  19.202  0.00  0.00    +0.000 C 
ATOM      9  C   UNL     1       4.478   3.936  18.064  0.00  0.00    +0.000 C 
ATOM     10  S   UNL     1       2.861   3.217  18.233  0.00  0.00    +0.000 S 
ATOM     11  O   UNL     1       2.975   1.995  19.010  0.00  0.00    +0.000 OA
ATOM     12  O   UNL     1       2.198   3.256  16.947  0.00  0.00    +0.000 OA
ATOM     13  C   UNL     1       2.152   4.476  19.269  0.00  0.00    +0.000 C 
ENDBRANCH   4   7
BRANCH   1  18
ATOM     14  C   UNL     1      -1.232  10.754  18.156  0.00  0.00    +0.000 A 
ATOM     15  C   UNL     1      -0.712  11.981  18.579  0.00  0.00    +0.000 A 
ATOM     16  C   UNL     1       0.645  12.099  18.834  0.00  0.00    +0.000 A 
ATOM     17  C   UNL     1       1.481  10.998  18.653  0.00  0.00    +0.000 A 
ATOM     18  C   UNL     1       0.989   9.768  18.193  0.00  0.00    +0.000 A 
ATOM     19  C   UNL     1      -0.386   9.645  17.971  0.00  0.00    +0.000 A 
BRANCH  14  21
ATOM     20  N   UNL     1      -3.775  10.550  17.694  0.00  0.00    +0.000 NA
ATOM     21  C   UNL     1      -2.635  10.643  17.895  0.00  0.00    +0.000 C 
ENDBRANCH  14  21
ENDBRANCH   1  18
TORSDOF 3
ENDMDL
