MODEL 1
REMARK VINA RESULT:      -9.2      0.000      0.000
REMARK  Name = 
REMARK  2 active torsions:
REMARK  status: ('A' for Active; 'I' for Inactive)
REMARK    1  A    between atoms: C_8  and  C_9
REMARK    2  A    between atoms: C_14  and  C_15
REMARK                            x       y       z     vdW  Elec       q    Type
REMARK                         _______ _______ _______ _____ _____    ______ ____
ROOT
ATOM      1  N   UNL     1       1.014  12.195  18.223  0.00  0.00    +0.000 N 
ATOM      2  C   UNL     1       1.201  10.920  18.711  0.00  0.00    +0.000 A 
ATOM      3  N   UNL     1       0.677  10.639  19.900  0.00  0.00    +0.000 NA
ATOM      4  C   UNL     1       0.906   9.408  20.379  0.00  0.00    +0.000 A 
ATOM      5  N   UNL     1       0.230   9.077  21.563  0.00  0.00    +0.000 N 
ATOM      6  C   UNL     1       1.648   8.447  19.711  0.00  0.00    +0.000 A 
ATOM      7  N   UNL     1       1.917   7.214  20.242  0.00  0.00    +0.000 NA
ATOM      8  C   UNL     1       2.526   6.314  19.447  0.00  0.00    +0.000 A 
ATOM      9  C   UNL     1       2.897   6.701  18.165  0.00  0.00    +0.000 A 
ATOM     10  N   UNL     1       2.695   7.948  17.663  0.00  0.00    +0.000 NA
ATOM     11  C   UNL     1       2.066   8.838  18.437  0.00  0.00    +0.000 A 
ATOM     12  N   UNL     1       1.856  10.055  17.947  0.00  0.00    +0.000 NA
ATOM     13  H   UNL     1       0.203  12.625  18.646  0.00  0.00    +0.000 HD
ATOM     14  H   UNL     1       1.074  12.202  17.214  0.00  0.00    +0.000 HD
ATOM     15  H   UNL     1      -0.154   9.903  22.005  0.00  0.00    +0.000 HD
ATOM     16  H   UNL     1       0.778   8.464  22.159  0.00  0.00    +0.000 HD
ENDROOT
BRANCH   8  17
ATOM     17  C   UNL     1       2.756   4.958  19.999  0.00  0.00    +0.000 A 
ATOM     18  C   UNL     1       1.982   4.575  21.129  0.00  0.00    +0.000 A 
ATOM     19  C   UNL     1       2.079   3.312  21.712  0.00  0.00    +0.000 A 
ATOM     20  C   UNL     1       2.949   2.382  21.176  0.00  0.00    +0.000 A 
ATOM     21  C   UNL     1       3.734   2.727  20.076  0.00  0.00    +0.000 A 
ATOM     22  C   UNL     1       3.674   4.004  19.455  0.00  0.00    +0.000 A 
BRANCH  22  23
ATOM     23  C   UNL     1       4.592   4.245  18.294  0.00  0.00    +0.000 A 
ATOM     24  C   UNL     1       4.211   3.900  16.978  0.00  0.00    +0.000 A 
ATOM     25  C   UNL     1       5.060   4.103  15.882  0.00  0.00    +0.000 A 
ATOM     26  C   UNL     1       6.299   4.703  16.071  0.00  0.00    +0.000 A 
ATOM     27 CL   UNL     1       7.327   4.997  14.724  0.00  0.00    +0.000 Cl
ATOM     28  C   UNL     1       6.708   5.058  17.349  0.00  0.00    +0.000 A 
ATOM     29  C   UNL     1       5.881   4.791  18.447  0.00  0.00    +0.000 A 
ENDBRANCH  22  23
ENDBRANCH   8  17
TORSDOF 2
ENDMDL
MODEL 2
REMARK VINA RESULT:      -9.0      3.720      5.937
REMARK  Name = 
REMARK  2 active torsions:
REMARK  status: ('A' for Active; 'I' for Inactive)
REMARK    1  A    between atoms: C_8  and  C_9
REMARK    2  A    between atoms: C_14  and  C_15
REMARK                            x       y       z     vdW  Elec       q    Type
REMARK                         _______ _______ _______ _____ _____    ______ ____
ROOT
ATOM      1  N   UNL     1       7.942   5.566  13.620  0.00  0.00    +0.000 N 
ATOM      2  C   UNL     1       7.226   5.399  14.785  0.00  0.00    +0.000 A 
ATOM      3  N   UNL     1       7.647   6.059  15.860  0.00  0.00    +0.000 NA
ATOM      4  C   UNL     1       6.965   5.850  16.995  0.00  0.00    +0.000 A 
ATOM      5  N   UNL     1       7.326   6.659  18.083  0.00  0.00    +0.000 N 
ATOM      6  C   UNL     1       5.876   4.999  17.095  0.00  0.00    +0.000 A 
ATOM      7  N   UNL     1       5.227   4.757  18.277  0.00  0.00    +0.000 NA
ATOM      8  C   UNL     1       4.100   4.023  18.227  0.00  0.00    +0.000 A 
ATOM      9  C   UNL     1       3.693   3.507  17.003  0.00  0.00    +0.000 A 
ATOM     10  N   UNL     1       4.377   3.686  15.842  0.00  0.00    +0.000 NA
ATOM     11  C   UNL     1       5.482   4.436  15.879  0.00  0.00    +0.000 A 
ATOM     12  N   UNL     1       6.149   4.624  14.744  0.00  0.00    +0.000 NA
ATOM     13  H   UNL     1       8.453   6.437  13.636  0.00  0.00    +0.000 HD
ATOM     14  H   UNL     1       7.360   5.379  12.815  0.00  0.00    +0.000 HD
ATOM     15  H   UNL     1       8.210   7.123  17.913  0.00  0.00    +0.000 HD
ATOM     16  H   UNL     1       7.241   6.169  18.969  0.00  0.00    +0.000 HD
ENDROOT
BRANCH   8  17
ATOM     17  C   UNL     1       3.360   3.819  19.496  0.00  0.00    +0.000 A 
ATOM     18  C   UNL     1       3.473   2.545  20.118  0.00  0.00    +0.000 A 
ATOM     19  C   UNL     1       2.858   2.246  21.333  0.00  0.00    +0.000 A 
ATOM     20  C   UNL     1       2.114   3.218  21.974  0.00  0.00    +0.000 A 
ATOM     21  C   UNL     1       1.970   4.475  21.387  0.00  0.00    +0.000 A 
ATOM     22  C   UNL     1       2.572   4.821  20.148  0.00  0.00    +0.000 A 
BRANCH  22  23
ATOM     23  C   UNL     1       2.313   6.202  19.622  0.00  0.00    +0.000 A 
ATOM     24  C   UNL     1       1.860   7.233  20.474  0.00  0.00    +0.000 A 
ATOM     25  C   UNL     1       1.598   8.526  20.000  0.00  0.00    +0.000 A 
ATOM     26  C   UNL     1       1.830   8.831  18.665  0.00  0.00    +0.000 A 
ATOM     27 CL   UNL     1       1.554  10.427  18.087  0.00  0.00    +0.000 Cl
ATOM     28  C   UNL     1       2.278   7.845  17.797  0.00  0.00    +0.000 A 
ATOM     29  C   UNL     1       2.474   6.539  18.265  0.00  0.00    +0.000 A 
ENDBRANCH  22  23
ENDBRANCH   8  17
TORSDOF 2
ENDMDL
MODEL 3
REMARK VINA RESULT:      -8.5      3.888      6.290
REMARK  Name = 
REMARK  2 active torsions:
REMARK  status: ('A' for Active; 'I' for Inactive)
REMARK    1  A    between atoms: C_8  and  C_9
REMARK    2  A    between atoms: C_14  and  C_15
REMARK                            x       y       z     vdW  Elec       q    Type
REMARK                         _______ _______ _______ _____ _____    ______ ____
ROOT
ATOM      1  N   UNL     1       8.431   5.833  13.531  0.00  0.00    +0.000 N 
ATOM      2  C   UNL     1       7.561   5.367  14.494  0.00  0.00    +0.000 A 
ATOM      3  N   UNL     1       6.759   4.362  14.157  0.00  0.00    +0.000 NA
ATOM      4  C   UNL     1       5.889   3.952  15.092  0.00  0.00    +0.000 A 
ATOM      5  N   UNL     1       5.151   2.801  14.777  0.00  0.00    +0.000 N 
ATOM      6  C   UNL     1       5.790   4.517  16.353  0.00  0.00    +0.000 A 
ATOM      7  N   UNL     1       4.857   4.120  17.274  0.00  0.00    +0.000 NA
ATOM      8  C   UNL     1       4.945   4.642  18.511  0.00  0.00    +0.000 A 
ATOM      9  C   UNL     1       5.929   5.588  18.768  0.00  0.00    +0.000 A 
ATOM     10  N   UNL     1       6.810   6.036  17.834  0.00  0.00    +0.000 NA
ATOM     11  C   UNL     1       6.746   5.502  16.610  0.00  0.00    +0.000 A 
ATOM     12  N   UNL     1       7.611   5.929  15.696  0.00  0.00    +0.000 NA
ATOM     13  H   UNL     1       8.607   5.122  12.836  0.00  0.00    +0.000 HD
ATOM     14  H   UNL     1       9.231   6.278  13.960  0.00  0.00    +0.000 HD
ATOM     15  H   UNL     1       5.221   2.583  13.791  0.00  0.00    +0.000 HD
ATOM     16  H   UNL     1       4.213   2.830  15.164  0.00  0.00    +0.000 HD
ENDROOT
BRANCH   8  17
ATOM     17  C   UNL     1       3.977   4.161  19.527  0.00  0.00    +0.000 A 
ATOM     18  C   UNL     1       4.187   2.860  20.061  0.00  0.00    +0.000 A 
ATOM     19  C   UNL     1       3.371   2.314  21.051  0.00  0.00    +0.000 A 
ATOM     20  C   UNL     1       2.317   3.058  21.548  0.00  0.00    +0.000 A 
ATOM     21  C   UNL     1       2.073   4.333  21.038  0.00  0.00    +0.000 A 
ATOM     22  C   UNL     1       2.874   4.925  20.025  0.00  0.00    +0.000 A 
BRANCH  22  23
ATOM     23  C   UNL     1       2.482   6.294  19.554  0.00  0.00    +0.000 A 
ATOM     24  C   UNL     1       1.932   7.242  20.445  0.00  0.00    +0.000 A 
ATOM     25  C   UNL     1       1.545   8.521  20.022  0.00  0.00    +0.000 A 
ATOM     26  C   UNL     1       1.743   8.900  18.701  0.00  0.00    +0.000 A 
ATOM     27 CL   UNL     1       1.313  10.483  18.186  0.00  0.00    +0.000 Cl
ATOM     28  C   UNL     1       2.283   7.997  17.796  0.00  0.00    +0.000 A 
ATOM     29  C   UNL     1       2.606   6.699  18.211  0.00  0.00    +0.000 A 
ENDBRANCH  22  23
ENDBRANCH   8  17
TORSDOF 2
ENDMDL
MODEL 4
REMARK VINA RESULT:      -8.4      4.084      6.394
REMARK  Name = 
REMARK  2 active torsions:
REMARK  status: ('A' for Active; 'I' for Inactive)
REMARK    1  A    between atoms: C_8  and  C_9
REMARK    2  A    between atoms: C_14  and  C_15
REMARK                            x       y       z     vdW  Elec       q    Type
REMARK                         _______ _______ _______ _____ _____    ______ ____
ROOT
ATOM      1  N   UNL     1       8.720   5.911  13.408  0.00  0.00    +0.000 N 
ATOM      2  C   UNL     1       7.668   5.410  14.143  0.00  0.00    +0.000 A 
ATOM      3  N   UNL     1       6.760   4.687  13.494  0.00  0.00    +0.000 NA
ATOM      4  C   UNL     1       5.720   4.245  14.216  0.00  0.00    +0.000 A 
ATOM      5  N   UNL     1       4.848   3.365  13.557  0.00  0.00    +0.000 N 
ATOM      6  C   UNL     1       5.553   4.506  15.567  0.00  0.00    +0.000 A 
ATOM      7  N   UNL     1       4.456   4.092  16.273  0.00  0.00    +0.000 NA
ATOM      8  C   UNL     1       4.467   4.281  17.606  0.00  0.00    +0.000 A 
ATOM      9  C   UNL     1       5.554   4.932  18.177  0.00  0.00    +0.000 A 
ATOM     10  N   UNL     1       6.611   5.408  17.466  0.00  0.00    +0.000 NA
ATOM     11  C   UNL     1       6.618   5.199  16.146  0.00  0.00    +0.000 A 
ATOM     12  N   UNL     1       7.654   5.653  15.448  0.00  0.00    +0.000 NA
ATOM     13  H   UNL     1       8.865   5.363  12.572  0.00  0.00    +0.000 HD
ATOM     14  H   UNL     1       9.520   6.080  14.001  0.00  0.00    +0.000 HD
ATOM     15  H   UNL     1       5.008   3.376  12.557  0.00  0.00    +0.000 HD
ATOM     16  H   UNL     1       3.885   3.484  13.858  0.00  0.00    +0.000 HD
ENDROOT
BRANCH   8  17
ATOM     17  C   UNL     1       3.310   3.771  18.380  0.00  0.00    +0.000 A 
ATOM     18  C   UNL     1       3.218   2.364  18.562  0.00  0.00    +0.000 A 
ATOM     19  C   UNL     1       2.199   1.768  19.305  0.00  0.00    +0.000 A 
ATOM     20  C   UNL     1       1.239   2.565  19.901  0.00  0.00    +0.000 A 
ATOM     21  C   UNL     1       1.290   3.948  19.732  0.00  0.00    +0.000 A 
ATOM     22  C   UNL     1       2.305   4.596  18.978  0.00  0.00    +0.000 A 
BRANCH  22  23
ATOM     23  C   UNL     1       2.223   6.089  18.861  0.00  0.00    +0.000 A 
ATOM     24  C   UNL     1       2.408   6.735  17.618  0.00  0.00    +0.000 A 
ATOM     25  C   UNL     1       2.350   8.129  17.489  0.00  0.00    +0.000 A 
ATOM     26  C   UNL     1       2.057   8.912  18.598  0.00  0.00    +0.000 A 
ATOM     27 CL   UNL     1       1.940  10.621  18.439  0.00  0.00    +0.000 Cl
ATOM     28  C   UNL     1       1.867   8.315  19.837  0.00  0.00    +0.000 A 
ATOM     29  C   UNL     1       1.993   6.926  19.970  0.00  0.00    +0.000 A 
ENDBRANCH  22  23
ENDBRANCH   8  17
TORSDOF 2
ENDMDL
MODEL 5
REMARK VINA RESULT:      -8.3      3.832      6.157
REMARK  Name = 
REMARK  2 active torsions:
REMARK  status: ('A' for Active; 'I' for Inactive)
REMARK    1  A    between atoms: C_8  and  C_9
REMARK    2  A    between atoms: C_14  and  C_15
REMARK                            x       y       z     vdW  Elec       q    Type
REMARK                         _______ _______ _______ _____ _____    ______ ____
ROOT
ATOM      1  N   UNL     1       8.273   5.678  13.679  0.00  0.00    +0.000 N 
ATOM      2  C   UNL     1       7.347   5.275  14.617  0.00  0.00    +0.000 A 
ATOM      3  N   UNL     1       6.346   4.509  14.196  0.00  0.00    +0.000 NA
ATOM      4  C   UNL     1       5.431   4.163  15.113  0.00  0.00    +0.000 A 
ATOM      5  N   UNL     1       4.462   3.240  14.692  0.00  0.00    +0.000 N 
ATOM      6  C   UNL     1       5.479   4.562  16.439  0.00  0.00    +0.000 A 
ATOM      7  N   UNL     1       4.505   4.244  17.347  0.00  0.00    +0.000 NA
ATOM      8  C   UNL     1       4.727   4.566  18.635  0.00  0.00    +0.000 A 
ATOM      9  C   UNL     1       5.894   5.249  18.960  0.00  0.00    +0.000 A 
ATOM     10  N   UNL     1       6.827   5.629  18.047  0.00  0.00    +0.000 NA
ATOM     11  C   UNL     1       6.625   5.288  16.771  0.00  0.00    +0.000 A 
ATOM     12  N   UNL     1       7.540   5.648  15.876  0.00  0.00    +0.000 NA
ATOM     13  H   UNL     1       8.282   5.045  12.891  0.00  0.00    +0.000 HD
ATOM     14  H   UNL     1       9.158   5.889  14.120  0.00  0.00    +0.000 HD
ATOM     15  H   UNL     1       4.462   3.147  13.684  0.00  0.00    +0.000 HD
ATOM     16  H   UNL     1       3.559   3.408  15.126  0.00  0.00    +0.000 HD
ENDROOT
BRANCH   8  17
ATOM     17  C   UNL     1       3.704   4.161  19.629  0.00  0.00    +0.000 A 
ATOM     18  C   UNL     1       3.808   2.852  20.173  0.00  0.00    +0.000 A 
ATOM     19  C   UNL     1       2.931   2.371  21.145  0.00  0.00    +0.000 A 
ATOM     20  C   UNL     1       1.921   3.190  21.612  0.00  0.00    +0.000 A 
ATOM     21  C   UNL     1       1.780   4.477  21.091  0.00  0.00    +0.000 A 
ATOM     22  C   UNL     1       2.646   5.005  20.096  0.00  0.00    +0.000 A 
BRANCH  22  23
ATOM     23  C   UNL     1       2.363   6.395  19.610  0.00  0.00    +0.000 A 
ATOM     24  C   UNL     1       2.617   6.765  18.270  0.00  0.00    +0.000 A 
ATOM     25  C   UNL     1       2.374   8.063  17.800  0.00  0.00    +0.000 A 
ATOM     26  C   UNL     1       1.823   9.013  18.650  0.00  0.00    +0.000 A 
ATOM     27 CL   UNL     1       1.480  10.594  18.067  0.00  0.00    +0.000 Cl
ATOM     28  C   UNL     1       1.558   8.687  19.973  0.00  0.00    +0.000 A 
ATOM     29  C   UNL     1       1.866   7.407  20.453  0.00  0.00    +0.000 A 
ENDBRANCH  22  23
ENDBRANCH   8  17
TORSDOF 2
ENDMDL
MODEL 6
REMARK VINA RESULT:      -8.0      3.688      7.601
REMARK  Name = 
REMARK  2 active torsions:
REMARK  status: ('A' for Active; 'I' for Inactive)
REMARK    1  A    between atoms: C_8  and  C_9
REMARK    2  A    between atoms: C_14  and  C_15
REMARK                            x       y       z     vdW  Elec       q    Type
REMARK                         _______ _______ _______ _____ _____    ______ ____
ROOT
ATOM      1  N   UNL     1       4.562   5.465  17.107  0.00  0.00    +0.000 N 
ATOM      2  C   UNL     1       3.726   6.276  17.842  0.00  0.00    +0.000 A 
ATOM      3  N   UNL     1       3.304   5.815  19.015  0.00  0.00    +0.000 NA
ATOM      4  C   UNL     1       2.456   6.599  19.696  0.00  0.00    +0.000 A 
ATOM      5  N   UNL     1       2.133   6.170  20.993  0.00  0.00    +0.000 N 
ATOM      6  C   UNL     1       2.010   7.830  19.242  0.00  0.00    +0.000 A 
ATOM      7  N   UNL     1       1.100   8.590  19.927  0.00  0.00    +0.000 NA
ATOM      8  C   UNL     1       0.847   9.827  19.460  0.00  0.00    +0.000 A 
ATOM      9  C   UNL     1       1.470  10.237  18.287  0.00  0.00    +0.000 A 
ATOM     10  N   UNL     1       2.317   9.455  17.567  0.00  0.00    +0.000 NA
ATOM     11  C   UNL     1       2.595   8.237  18.040  0.00  0.00    +0.000 A 
ATOM     12  N   UNL     1       3.431   7.472  17.345  0.00  0.00    +0.000 NA
ATOM     13  H   UNL     1       5.038   4.805  17.706  0.00  0.00    +0.000 HD
ATOM     14  H   UNL     1       5.127   6.015  16.475  0.00  0.00    +0.000 HD
ATOM     15  H   UNL     1       2.411   5.207  21.136  0.00  0.00    +0.000 HD
ATOM     16  H   UNL     1       1.178   6.403  21.246  0.00  0.00    +0.000 HD
ENDROOT
BRANCH   8  17
ATOM     17  C   UNL     1      -0.085  10.676  20.240  0.00  0.00    +0.000 A 
ATOM     18  C   UNL     1       0.308  11.032  21.559  0.00  0.00    +0.000 A 
ATOM     19  C   UNL     1      -0.464  11.859  22.375  0.00  0.00    +0.000 A 
ATOM     20  C   UNL     1      -1.656  12.366  21.893  0.00  0.00    +0.000 A 
ATOM     21  C   UNL     1      -2.080  12.027  20.608  0.00  0.00    +0.000 A 
ATOM     22  C   UNL     1      -1.330  11.183  19.746  0.00  0.00    +0.000 A 
BRANCH  22  23
ATOM     23  C   UNL     1      -1.918  10.883  18.399  0.00  0.00    +0.000 A 
ATOM     24  C   UNL     1      -1.923  11.854  17.373  0.00  0.00    +0.000 A 
ATOM     25  C   UNL     1      -2.481  11.598  16.113  0.00  0.00    +0.000 A 
ATOM     26  C   UNL     1      -3.007  10.344  15.833  0.00  0.00    +0.000 A 
ATOM     27 CL   UNL     1      -3.652  10.009  14.274  0.00  0.00    +0.000 Cl
ATOM     28  C   UNL     1      -3.018   9.363  16.815  0.00  0.00    +0.000 A 
ATOM     29  C   UNL     1      -2.519   9.647  18.092  0.00  0.00    +0.000 A 
ENDBRANCH  22  23
ENDBRANCH   8  17
TORSDOF 2
ENDMDL
MODEL 7
REMARK VINA RESULT:      -7.9      1.834      2.603
REMARK  Name = 
REMARK  2 active torsions:
REMARK  status: ('A' for Active; 'I' for Inactive)
REMARK    1  A    between atoms: C_8  and  C_9
REMARK    2  A    between atoms: C_14  and  C_15
REMARK                            x       y       z     vdW  Elec       q    Type
REMARK                         _______ _______ _______ _____ _____    ______ ____
ROOT
ATOM      1  N   UNL     1       0.642  11.781  20.815  0.00  0.00    +0.000 N 
ATOM      2  C   UNL     1       1.006  10.561  20.287  0.00  0.00    +0.000 A 
ATOM      3  N   UNL     1       1.344  10.529  19.002  0.00  0.00    +0.000 NA
ATOM      4  C   UNL     1       1.652   9.327  18.495  0.00  0.00    +0.000 A 
ATOM      5  N   UNL     1       2.146   9.325  17.181  0.00  0.00    +0.000 N 
ATOM      6  C   UNL     1       1.630   8.151  19.228  0.00  0.00    +0.000 A 
ATOM      7  N   UNL     1       1.894   6.926  18.678  0.00  0.00    +0.000 NA
ATOM      8  C   UNL     1       1.980   5.875  19.514  0.00  0.00    +0.000 A 
ATOM      9  C   UNL     1       1.738   6.078  20.868  0.00  0.00    +0.000 A 
ATOM     10  N   UNL     1       1.404   7.281  21.404  0.00  0.00    +0.000 NA
ATOM     11  C   UNL     1       1.345   8.334  20.584  0.00  0.00    +0.000 A 
ATOM     12  N   UNL     1       1.029   9.516  21.105  0.00  0.00    +0.000 NA
ATOM     13  H   UNL     1       1.033  12.537  20.271  0.00  0.00    +0.000 HD
ATOM     14  H   UNL     1       0.794  11.796  21.814  0.00  0.00    +0.000 HD
ATOM     15  H   UNL     1       1.978  10.216  16.729  0.00  0.00    +0.000 HD
ATOM     16  H   UNL     1       1.858   8.500  16.665  0.00  0.00    +0.000 HD
ENDROOT
BRANCH   8  17
ATOM     17  C   UNL     1       2.334   4.560  18.927  0.00  0.00    +0.000 A 
ATOM     18  C   UNL     1       1.367   3.522  19.023  0.00  0.00    +0.000 A 
ATOM     19  C   UNL     1       1.567   2.256  18.474  0.00  0.00    +0.000 A 
ATOM     20  C   UNL     1       2.742   1.988  17.799  0.00  0.00    +0.000 A 
ATOM     21  C   UNL     1       3.720   2.978  17.696  0.00  0.00    +0.000 A 
ATOM     22  C   UNL     1       3.561   4.278  18.246  0.00  0.00    +0.000 A 
BRANCH  22  23
ATOM     23  C   UNL     1       4.704   5.235  18.081  0.00  0.00    +0.000 A 
ATOM     24  C   UNL     1       4.683   6.229  17.077  0.00  0.00    +0.000 A 
ATOM     25  C   UNL     1       5.747   7.124  16.896  0.00  0.00    +0.000 A 
ATOM     26  C   UNL     1       6.841   7.076  17.750  0.00  0.00    +0.000 A 
ATOM     27 CL   UNL     1       8.129   8.200  17.563  0.00  0.00    +0.000 Cl
ATOM     28  C   UNL     1       6.897   6.115  18.750  0.00  0.00    +0.000 A 
ATOM     29  C   UNL     1       5.860   5.182  18.881  0.00  0.00    +0.000 A 
ENDBRANCH  22  23
ENDBRANCH   8  17
TORSDOF 2
ENDMDL
MODEL 8
REMARK VINA RESULT:      -7.9      2.387      4.308
REMARK  Name = 
REMARK  2 active torsions:
REMARK  status: ('A' for Active; 'I' for Inactive)
REMARK    1  A    between atoms: C_8  and  C_9
REMARK    2  A    between atoms: C_14  and  C_15
REMARK                            x       y       z     vdW  Elec       q    Type
REMARK                         _______ _______ _______ _____ _____    ______ ____
ROOT
ATOM      1  N   UNL     1      -0.059  10.564  21.276  0.00  0.00    +0.000 N 
ATOM      2  C   UNL     1       0.681   9.586  20.648  0.00  0.00    +0.000 A 
ATOM      3  N   UNL     1       0.884   8.452  21.312  0.00  0.00    +0.000 NA
ATOM      4  C   UNL     1       1.643   7.530  20.703  0.00  0.00    +0.000 A 
ATOM      5  N   UNL     1       1.731   6.287  21.348  0.00  0.00    +0.000 N 
ATOM      6  C   UNL     1       2.213   7.704  19.451  0.00  0.00    +0.000 A 
ATOM      7  N   UNL     1       3.031   6.772  18.871  0.00  0.00    +0.000 NA
ATOM      8  C   UNL     1       3.411   6.986  17.598  0.00  0.00    +0.000 A 
ATOM      9  C   UNL     1       3.007   8.158  16.970  0.00  0.00    +0.000 A 
ATOM     10  N   UNL     1       2.255   9.118  17.570  0.00  0.00    +0.000 NA
ATOM     11  C   UNL     1       1.851   8.898  18.825  0.00  0.00    +0.000 A 
ATOM     12  N   UNL     1       1.106   9.829  19.414  0.00  0.00    +0.000 NA
ATOM     13  H   UNL     1      -0.655  10.160  21.985  0.00  0.00    +0.000 HD
ATOM     14  H   UNL     1      -0.488  11.177  20.597  0.00  0.00    +0.000 HD
ATOM     15  H   UNL     1       1.391   6.347  22.300  0.00  0.00    +0.000 HD
ATOM     16  H   UNL     1       2.641   5.854  21.224  0.00  0.00    +0.000 HD
ENDROOT
BRANCH   8  17
ATOM     17  C   UNL     1       4.240   5.944  16.947  0.00  0.00    +0.000 A 
ATOM     18  C   UNL     1       5.052   6.348  15.851  0.00  0.00    +0.000 A 
ATOM     19  C   UNL     1       5.905   5.469  15.184  0.00  0.00    +0.000 A 
ATOM     20  C   UNL     1       5.981   4.153  15.598  0.00  0.00    +0.000 A 
ATOM     21  C   UNL     1       5.190   3.717  16.661  0.00  0.00    +0.000 A 
ATOM     22  C   UNL     1       4.302   4.576  17.364  0.00  0.00    +0.000 A 
BRANCH  22  23
ATOM     23  C   UNL     1       3.494   3.967  18.471  0.00  0.00    +0.000 A 
ATOM     24  C   UNL     1       4.102   3.559  19.679  0.00  0.00    +0.000 A 
ATOM     25  C   UNL     1       3.367   2.975  20.720  0.00  0.00    +0.000 A 
ATOM     26  C   UNL     1       1.992   2.828  20.595  0.00  0.00    +0.000 A 
ATOM     27 CL   UNL     1       1.078   2.153  21.886  0.00  0.00    +0.000 Cl
ATOM     28  C   UNL     1       1.358   3.218  19.424  0.00  0.00    +0.000 A 
ATOM     29  C   UNL     1       2.109   3.740  18.363  0.00  0.00    +0.000 A 
ENDBRANCH  22  23
ENDBRANCH   8  17
TORSDOF 2
ENDMDL
MODEL 9
REMARK VINA RESULT:      -7.8      1.566      1.713
REMARK  Name = 
REMARK  2 active torsions:
REMARK  status: ('A' for Active; 'I' for Inactive)
REMARK    1  A    between atoms: C_8  and  C_9
REMARK    2  A    between atoms: C_14  and  C_15
REMARK                            x       y       z     vdW  Elec       q    Type
REMARK                         _______ _______ _______ _____ _____    ______ ____
ROOT
ATOM      1  N   UNL     1       0.569  12.921  20.361  0.00  0.00    +0.000 N 
ATOM      2  C   UNL     1       0.768  11.563  20.480  0.00  0.00    +0.000 A 
ATOM      3  N   UNL     1       0.546  11.015  21.671  0.00  0.00    +0.000 NA
ATOM      4  C   UNL     1       0.788   9.701  21.779  0.00  0.00    +0.000 A 
ATOM      5  N   UNL     1       0.414   9.108  22.994  0.00  0.00    +0.000 N 
ATOM      6  C   UNL     1       1.250   8.913  20.736  0.00  0.00    +0.000 A 
ATOM      7  N   UNL     1       1.544   7.584  20.882  0.00  0.00    +0.000 NA
ATOM      8  C   UNL     1       1.852   6.890  19.771  0.00  0.00    +0.000 A 
ATOM      9  C   UNL     1       1.911   7.566  18.558  0.00  0.00    +0.000 A 
ATOM     10  N   UNL     1       1.691   8.901  18.424  0.00  0.00    +0.000 NA
ATOM     11  C   UNL     1       1.358   9.590  19.519  0.00  0.00    +0.000 A 
ATOM     12  N   UNL     1       1.131  10.894  19.392  0.00  0.00    +0.000 NA
ATOM     13  H   UNL     1      -0.067  13.252  21.073  0.00  0.00    +0.000 HD
ATOM     14  H   UNL     1       0.368  13.169  19.402  0.00  0.00    +0.000 HD
ATOM     15  H   UNL     1       0.226   9.811  23.698  0.00  0.00    +0.000 HD
ATOM     16  H   UNL     1       1.044   8.360  23.266  0.00  0.00    +0.000 HD
ENDROOT
BRANCH   8  17
ATOM     17  C   UNL     1       2.102   5.436  19.919  0.00  0.00    +0.000 A 
ATOM     18  C   UNL     1       1.083   4.660  20.534  0.00  0.00    +0.000 A 
ATOM     19  C   UNL     1       1.185   3.278  20.693  0.00  0.00    +0.000 A 
ATOM     20  C   UNL     1       2.310   2.623  20.230  0.00  0.00    +0.000 A 
ATOM     21  C   UNL     1       3.337   3.355  19.633  0.00  0.00    +0.000 A 
ATOM     22  C   UNL     1       3.279   4.763  19.458  0.00  0.00    +0.000 A 
BRANCH  22  23
ATOM     23  C   UNL     1       4.465   5.424  18.821  0.00  0.00    +0.000 A 
ATOM     24  C   UNL     1       4.339   6.139  17.610  0.00  0.00    +0.000 A 
ATOM     25  C   UNL     1       5.438   6.751  16.991  0.00  0.00    +0.000 A 
ATOM     26  C   UNL     1       6.686   6.701  17.597  0.00  0.00    +0.000 A 
ATOM     27 CL   UNL     1       8.030   7.488  16.866  0.00  0.00    +0.000 Cl
ATOM     28  C   UNL     1       6.850   6.009  18.789  0.00  0.00    +0.000 A 
ATOM     29  C   UNL     1       5.761   5.345  19.367  0.00  0.00    +0.000 A 
ENDBRANCH  22  23
ENDBRANCH   8  17
TORSDOF 2
ENDMDL
