MODEL 1
REMARK VINA RESULT:      -7.7      0.000      0.000
REMARK  Name = 
REMARK  4 active torsions:
REMARK  status: ('A' for Active; 'I' for Inactive)
REMARK    1  A    between atoms: C_1  and  C_2
REMARK    2  A    between atoms: C_16  and  C_17
REMARK    3  A    between atoms: N_20  and  C_21
REMARK    4  A    between atoms: C_21  and  C_22
REMARK                            x       y       z     vdW  Elec       q    Type
REMARK                         _______ _______ _______ _____ _____    ______ ____
ROOT
ATOM      1  C   UNL     1       7.649   7.415  17.455  0.00  0.00    +0.000 C 
ATOM      2  C   UNL     1       6.392   6.520  17.523  0.00  0.00    +0.000 C 
ATOM      3  C   UNL     1       5.889   5.885  16.199  0.00  0.00    +0.000 C 
ATOM      4  C   UNL     1       4.372   6.035  16.222  0.00  0.00    +0.000 C 
ATOM      5  C   UNL     1       3.963   5.213  17.498  0.00  0.00    +0.000 A 
ATOM      6  C   UNL     1       2.637   4.767  17.607  0.00  0.00    +0.000 A 
ATOM      7  C   UNL     1       2.252   3.956  18.680  0.00  0.00    +0.000 A 
ATOM      8  C   UNL     1       0.884   3.436  18.784  0.00  0.00    +0.000 A 
ATOM      9  C   UNL     1       0.546   2.672  19.827  0.00  0.00    +0.000 A 
ATOM     10  N   UNL     1       1.451   2.355  20.808  0.00  0.00    +0.000 N 
ATOM     11  C   UNL     1       2.764   2.765  20.813  0.00  0.00    +0.000 A 
ATOM     12  O   UNL     1       3.535   2.451  21.713  0.00  0.00    +0.000 OA
ATOM     13  C   UNL     1       3.198   3.606  19.661  0.00  0.00    +0.000 A 
ATOM     14  C   UNL     1       4.532   4.023  19.571  0.00  0.00    +0.000 A 
ATOM     15  C   UNL     1       4.949   4.824  18.496  0.00  0.00    +0.000 A 
ATOM     16  C   UNL     1       6.474   5.263  18.379  0.00  0.00    +0.000 C 
ATOM     17  C   UNL     1       7.090   5.577  19.753  0.00  0.00    +0.000 C 
ATOM     18  C   UNL     1       7.360   4.200  17.583  0.00  0.00    +0.000 C 
ATOM     19  C   UNL     1       7.873   4.631  16.108  0.00  0.00    +0.000 C 
ATOM     20  N   UNL     1       7.076   5.707  15.402  0.00  0.00    +0.000 NA
ATOM     21  H   UNL     1       1.169   1.782  21.591  0.00  0.00    +0.000 HD
ENDROOT
BRANCH  20  22
ATOM     22  C   UNL     1       6.895   5.493  13.978  0.00  0.00    +0.000 C 
BRANCH  22  23
ATOM     23  C   UNL     1       6.450   4.082  13.696  0.00  0.00    +0.000 C 
ATOM     24  C   UNL     1       5.168   3.766  12.954  0.00  0.00    +0.000 C 
ATOM     25  C   UNL     1       6.494   3.527  12.292  0.00  0.00    +0.000 C 
ENDBRANCH  22  23
ENDBRANCH  20  22
TORSDOF 2
ENDMDL
MODEL 2
REMARK VINA RESULT:      -6.9      3.024      3.636
REMARK  Name = 
REMARK  4 active torsions:
REMARK  status: ('A' for Active; 'I' for Inactive)
REMARK    1  A    between atoms: C_1  and  C_2
REMARK    2  A    between atoms: C_16  and  C_17
REMARK    3  A    between atoms: N_20  and  C_21
REMARK    4  A    between atoms: C_21  and  C_22
REMARK                            x       y       z     vdW  Elec       q    Type
REMARK                         _______ _______ _______ _____ _____    ______ ____
ROOT
ATOM      1  C   UNL     1       7.256   4.492  17.443  0.00  0.00    +0.000 C 
ATOM      2  C   UNL     1       6.012   5.407  17.430  0.00  0.00    +0.000 C 
ATOM      3  C   UNL     1       5.269   5.592  16.078  0.00  0.00    +0.000 C 
ATOM      4  C   UNL     1       4.938   7.077  15.992  0.00  0.00    +0.000 C 
ATOM      5  C   UNL     1       4.011   7.296  17.243  0.00  0.00    +0.000 A 
ATOM      6  C   UNL     1       3.171   8.421  17.263  0.00  0.00    +0.000 A 
ATOM      7  C   UNL     1       2.265   8.606  18.312  0.00  0.00    +0.000 A 
ATOM      8  C   UNL     1       1.342   9.747  18.324  0.00  0.00    +0.000 A 
ATOM      9  C   UNL     1       0.496   9.901  19.347  0.00  0.00    +0.000 A 
ATOM     10  N   UNL     1       0.464   9.013  20.391  0.00  0.00    +0.000 N 
ATOM     11  C   UNL     1       1.264   7.898  20.486  0.00  0.00    +0.000 A 
ATOM     12  O   UNL     1       1.195   7.133  21.441  0.00  0.00    +0.000 OA
ATOM     13  C   UNL     1       2.215   7.670  19.361  0.00  0.00    +0.000 A 
ATOM     14  C   UNL     1       3.030   6.530  19.362  0.00  0.00    +0.000 A 
ATOM     15  C   UNL     1       3.936   6.311  18.313  0.00  0.00    +0.000 A 
ATOM     16  C   UNL     1       4.832   4.996  18.300  0.00  0.00    +0.000 C 
ATOM     17  C   UNL     1       5.303   4.607  19.711  0.00  0.00    +0.000 C 
ATOM     18  C   UNL     1       4.111   3.769  17.577  0.00  0.00    +0.000 C 
ATOM     19  C   UNL     1       4.701   3.314  16.139  0.00  0.00    +0.000 C 
ATOM     20  N   UNL     1       5.484   4.356  15.369  0.00  0.00    +0.000 NA
ATOM     21  H   UNL     1      -0.179   9.155  21.157  0.00  0.00    +0.000 HD
ENDROOT
BRANCH  20  22
ATOM     22  C   UNL     1       5.243   4.361  13.938  0.00  0.00    +0.000 C 
BRANCH  22  23
ATOM     23  C   UNL     1       6.219   3.465  13.222  0.00  0.00    +0.000 C 
ATOM     24  C   UNL     1       5.903   2.817  11.891  0.00  0.00    +0.000 C 
ATOM     25  C   UNL     1       6.909   3.930  11.962  0.00  0.00    +0.000 C 
ENDBRANCH  22  23
ENDBRANCH  20  22
TORSDOF 2
ENDMDL
MODEL 3
REMARK VINA RESULT:      -6.8      3.899      4.990
REMARK  Name = 
REMARK  4 active torsions:
REMARK  status: ('A' for Active; 'I' for Inactive)
REMARK    1  A    between atoms: C_1  and  C_2
REMARK    2  A    between atoms: C_16  and  C_17
REMARK    3  A    between atoms: N_20  and  C_21
REMARK    4  A    between atoms: C_21  and  C_22
REMARK                            x       y       z     vdW  Elec       q    Type
REMARK                         _______ _______ _______ _____ _____    ______ ____
ROOT
ATOM      1  C   UNL     1       4.860   3.479  19.707  0.00  0.00    +0.000 C 
ATOM      2  C   UNL     1       4.061   4.758  19.374  0.00  0.00    +0.000 C 
ATOM      3  C   UNL     1       3.834   5.094  17.875  0.00  0.00    +0.000 C 
ATOM      4  C   UNL     1       4.069   6.595  17.751  0.00  0.00    +0.000 C 
ATOM      5  C   UNL     1       2.965   7.197  18.695  0.00  0.00    +0.000 A 
ATOM      6  C   UNL     1       2.592   8.538  18.515  0.00  0.00    +0.000 A 
ATOM      7  C   UNL     1       1.552   9.087  19.271  0.00  0.00    +0.000 A 
ATOM      8  C   UNL     1       1.111  10.472  19.061  0.00  0.00    +0.000 A 
ATOM      9  C   UNL     1       0.120  10.970  19.807  0.00  0.00    +0.000 A 
ATOM     10  N   UNL     1      -0.503  10.215  20.768  0.00  0.00    +0.000 N 
ATOM     11  C   UNL     1      -0.194   8.904  21.046  0.00  0.00    +0.000 A 
ATOM     12  O   UNL     1      -0.783   8.272  21.915  0.00  0.00    +0.000 OA
ATOM     13  C   UNL     1       0.893   8.294  20.229  0.00  0.00    +0.000 A 
ATOM     14  C   UNL     1       1.234   6.949  20.421  0.00  0.00    +0.000 A 
ATOM     15  C   UNL     1       2.263   6.368  19.664  0.00  0.00    +0.000 A 
ATOM     16  C   UNL     1       2.619   4.829  19.860  0.00  0.00    +0.000 C 
ATOM     17  C   UNL     1       2.517   4.397  21.332  0.00  0.00    +0.000 C 
ATOM     18  C   UNL     1       1.752   3.873  18.920  0.00  0.00    +0.000 C 
ATOM     19  C   UNL     1       2.525   3.152  17.692  0.00  0.00    +0.000 C 
ATOM     20  N   UNL     1       3.799   3.815  17.213  0.00  0.00    +0.000 NA
ATOM     21  H   UNL     1      -1.244  10.616  21.325  0.00  0.00    +0.000 HD
ENDROOT
BRANCH  20  22
ATOM     22  C   UNL     1       3.982   3.808  15.773  0.00  0.00    +0.000 C 
BRANCH  22  23
ATOM     23  C   UNL     1       5.438   3.942  15.413  0.00  0.00    +0.000 C 
ATOM     24  C   UNL     1       5.919   4.010  13.979  0.00  0.00    +0.000 C 
ATOM     25  C   UNL     1       5.975   5.235  14.845  0.00  0.00    +0.000 C 
ENDBRANCH  22  23
ENDBRANCH  20  22
TORSDOF 2
ENDMDL
MODEL 4
REMARK VINA RESULT:      -6.8      6.131      7.920
REMARK  Name = 
REMARK  4 active torsions:
REMARK  status: ('A' for Active; 'I' for Inactive)
REMARK    1  A    between atoms: C_1  and  C_2
REMARK    2  A    between atoms: C_16  and  C_17
REMARK    3  A    between atoms: N_20  and  C_21
REMARK    4  A    between atoms: C_21  and  C_22
REMARK                            x       y       z     vdW  Elec       q    Type
REMARK                         _______ _______ _______ _____ _____    ______ ____
ROOT
ATOM      1  C   UNL     1      -1.361  11.069  19.733  0.00  0.00    +0.000 C 
ATOM      2  C   UNL     1      -0.140  10.182  19.402  0.00  0.00    +0.000 C 
ATOM      3  C   UNL     1       1.161  10.892  18.941  0.00  0.00    +0.000 C 
ATOM      4  C   UNL     1       1.695  10.059  17.781  0.00  0.00    +0.000 C 
ATOM      5  C   UNL     1       1.956   8.662  18.452  0.00  0.00    +0.000 A 
ATOM      6  C   UNL     1       2.837   7.771  17.818  0.00  0.00    +0.000 A 
ATOM      7  C   UNL     1       3.168   6.556  18.424  0.00  0.00    +0.000 A 
ATOM      8  C   UNL     1       4.128   5.635  17.803  0.00  0.00    +0.000 A 
ATOM      9  C   UNL     1       4.415   4.477  18.404  0.00  0.00    +0.000 A 
ATOM     10  N   UNL     1       3.838   4.124  19.597  0.00  0.00    +0.000 N 
ATOM     11  C   UNL     1       2.941   4.908  20.285  0.00  0.00    +0.000 A 
ATOM     12  O   UNL     1       2.454   4.548  21.351  0.00  0.00    +0.000 OA
ATOM     13  C   UNL     1       2.599   6.220  19.666  0.00  0.00    +0.000 A 
ATOM     14  C   UNL     1       1.729   7.095  20.330  0.00  0.00    +0.000 A 
ATOM     15  C   UNL     1       1.392   8.328  19.752  0.00  0.00    +0.000 A 
ATOM     16  C   UNL     1       0.434   9.333  20.529  0.00  0.00    +0.000 C 
ATOM     17  C   UNL     1      -0.686   8.595  21.282  0.00  0.00    +0.000 C 
ATOM     18  C   UNL     1       1.232  10.312  21.505  0.00  0.00    +0.000 C 
ATOM     19  C   UNL     1       1.320  11.870  21.070  0.00  0.00    +0.000 C 
ATOM     20  N   UNL     1       1.134  12.174  19.599  0.00  0.00    +0.000 NA
ATOM     21  H   UNL     1       4.065   3.239  20.028  0.00  0.00    +0.000 HD
ENDROOT
BRANCH  20  22
ATOM     22  C   UNL     1       2.008  13.208  19.077  0.00  0.00    +0.000 C 
BRANCH  22  23
ATOM     23  C   UNL     1       1.582  14.570  19.557  0.00  0.00    +0.000 C 
ATOM     24  C   UNL     1       1.570  15.784  18.653  0.00  0.00    +0.000 C 
ATOM     25  C   UNL     1       0.274  15.172  19.101  0.00  0.00    +0.000 C 
ENDBRANCH  22  23
ENDBRANCH  20  22
TORSDOF 2
ENDMDL
MODEL 5
REMARK VINA RESULT:      -6.7      2.803      6.672
REMARK  Name = 
REMARK  4 active torsions:
REMARK  status: ('A' for Active; 'I' for Inactive)
REMARK    1  A    between atoms: C_1  and  C_2
REMARK    2  A    between atoms: C_16  and  C_17
REMARK    3  A    between atoms: N_20  and  C_21
REMARK    4  A    between atoms: C_21  and  C_22
REMARK                            x       y       z     vdW  Elec       q    Type
REMARK                         _______ _______ _______ _____ _____    ______ ____
ROOT
ATOM      1  C   UNL     1       5.724   5.136  19.927  0.00  0.00    +0.000 C 
ATOM      2  C   UNL     1       5.570   4.796  18.428  0.00  0.00    +0.000 C 
ATOM      3  C   UNL     1       4.134   4.548  17.890  0.00  0.00    +0.000 C 
ATOM      4  C   UNL     1       4.244   3.337  16.971  0.00  0.00    +0.000 C 
ATOM      5  C   UNL     1       5.242   3.835  15.863  0.00  0.00    +0.000 A 
ATOM      6  C   UNL     1       5.259   3.164  14.630  0.00  0.00    +0.000 A 
ATOM      7  C   UNL     1       6.065   3.629  13.586  0.00  0.00    +0.000 A 
ATOM      8  C   UNL     1       6.056   2.974  12.272  0.00  0.00    +0.000 A 
ATOM      9  C   UNL     1       6.846   3.436  11.299  0.00  0.00    +0.000 A 
ATOM     10  N   UNL     1       7.668   4.517  11.494  0.00  0.00    +0.000 N 
ATOM     11  C   UNL     1       7.752   5.225  12.671  0.00  0.00    +0.000 A 
ATOM     12  O   UNL     1       8.501   6.186  12.794  0.00  0.00    +0.000 OA
ATOM     13  C   UNL     1       6.877   4.760  13.785  0.00  0.00    +0.000 A 
ATOM     14  C   UNL     1       6.871   5.458  14.999  0.00  0.00    +0.000 A 
ATOM     15  C   UNL     1       6.059   5.024  16.058  0.00  0.00    +0.000 A 
ATOM     16  C   UNL     1       6.027   5.843  17.422  0.00  0.00    +0.000 C 
ATOM     17  C   UNL     1       7.415   6.391  17.796  0.00  0.00    +0.000 C 
ATOM     18  C   UNL     1       4.934   7.007  17.414  0.00  0.00    +0.000 C 
ATOM     19  C   UNL     1       3.630   6.795  18.351  0.00  0.00    +0.000 C 
ATOM     20  N   UNL     1       3.285   5.368  18.718  0.00  0.00    +0.000 NA
ATOM     21  H   UNL     1       8.262   4.843  10.746  0.00  0.00    +0.000 HD
ENDROOT
BRANCH  20  22
ATOM     22  C   UNL     1       1.866   5.066  18.716  0.00  0.00    +0.000 C 
BRANCH  22  23
ATOM     23  C   UNL     1       1.395   4.673  20.092  0.00  0.00    +0.000 C 
ATOM     24  C   UNL     1       1.110   3.236  20.474  0.00  0.00    +0.000 C 
ATOM     25  C   UNL     1       2.312   3.935  21.037  0.00  0.00    +0.000 C 
ENDBRANCH  22  23
ENDBRANCH  20  22
TORSDOF 2
ENDMDL
MODEL 6
REMARK VINA RESULT:      -6.6     10.286     11.548
REMARK  Name = 
REMARK  4 active torsions:
REMARK  status: ('A' for Active; 'I' for Inactive)
REMARK    1  A    between atoms: C_1  and  C_2
REMARK    2  A    between atoms: C_16  and  C_17
REMARK    3  A    between atoms: N_20  and  C_21
REMARK    4  A    between atoms: C_21  and  C_22
REMARK                            x       y       z     vdW  Elec       q    Type
REMARK                         _______ _______ _______ _____ _____    ______ ____
ROOT
ATOM      1  C   UNL     1      -0.193  13.255  18.351  0.00  0.00    +0.000 C 
ATOM      2  C   UNL     1      -1.506  12.923  19.093  0.00  0.00    +0.000 C 
ATOM      3  C   UNL     1      -2.389  11.782  18.518  0.00  0.00    +0.000 C 
ATOM      4  C   UNL     1      -3.823  12.292  18.599  0.00  0.00    +0.000 C 
ATOM      5  C   UNL     1      -4.024  12.512  20.142  0.00  0.00    +0.000 A 
ATOM      6  C   UNL     1      -5.334  12.567  20.643  0.00  0.00    +0.000 A 
ATOM      7  C   UNL     1      -5.559  12.671  22.019  0.00  0.00    +0.000 A 
ATOM      8  C   UNL     1      -6.921  12.675  22.567  0.00  0.00    +0.000 A 
ATOM      9  C   UNL     1      -7.101  12.786  23.886  0.00  0.00    +0.000 A 
ATOM     10  N   UNL     1      -6.040  12.891  24.750  0.00  0.00    +0.000 N 
ATOM     11  C   UNL     1      -4.721  12.879  24.361  0.00  0.00    +0.000 A 
ATOM     12  O   UNL     1      -3.808  12.974  25.174  0.00  0.00    +0.000 OA
ATOM     13  C   UNL     1      -4.464  12.740  22.900  0.00  0.00    +0.000 A 
ATOM     14  C   UNL     1      -3.145  12.673  22.431  0.00  0.00    +0.000 A 
ATOM     15  C   UNL     1      -2.891  12.553  21.056  0.00  0.00    +0.000 A 
ATOM     16  C   UNL     1      -1.393  12.439  20.533  0.00  0.00    +0.000 C 
ATOM     17  C   UNL     1      -0.433  13.333  21.336  0.00  0.00    +0.000 C 
ATOM     18  C   UNL     1      -0.871  10.931  20.489  0.00  0.00    +0.000 C 
ATOM     19  C   UNL     1      -0.668  10.266  19.026  0.00  0.00    +0.000 C 
ATOM     20  N   UNL     1      -1.458  10.879  17.890  0.00  0.00    +0.000 NA
ATOM     21  H   UNL     1      -6.202  12.981  25.742  0.00  0.00    +0.000 HD
ENDROOT
BRANCH  20  22
ATOM     22  C   UNL     1      -1.998   9.923  16.941  0.00  0.00    +0.000 C 
BRANCH  22  23
ATOM     23  C   UNL     1      -2.531  10.618  15.716  0.00  0.00    +0.000 C 
ATOM     24  C   UNL     1      -2.830   9.882  14.428  0.00  0.00    +0.000 C 
ATOM     25  C   UNL     1      -3.957  10.405  15.269  0.00  0.00    +0.000 C 
ENDBRANCH  22  23
ENDBRANCH  20  22
TORSDOF 2
ENDMDL
MODEL 7
REMARK VINA RESULT:      -6.6      8.130     10.388
REMARK  Name = 
REMARK  4 active torsions:
REMARK  status: ('A' for Active; 'I' for Inactive)
REMARK    1  A    between atoms: C_1  and  C_2
REMARK    2  A    between atoms: C_16  and  C_17
REMARK    3  A    between atoms: N_20  and  C_21
REMARK    4  A    between atoms: C_21  and  C_22
REMARK                            x       y       z     vdW  Elec       q    Type
REMARK                         _______ _______ _______ _____ _____    ______ ____
ROOT
ATOM      1  C   UNL     1       0.105  14.242  21.166  0.00  0.00    +0.000 C 
ATOM      2  C   UNL     1       0.198  12.703  21.071  0.00  0.00    +0.000 C 
ATOM      3  C   UNL     1      -0.991  11.874  21.628  0.00  0.00    +0.000 C 
ATOM      4  C   UNL     1      -0.362  10.714  22.389  0.00  0.00    +0.000 C 
ATOM      5  C   UNL     1       0.444   9.963  21.268  0.00  0.00    +0.000 A 
ATOM      6  C   UNL     1       0.803   8.623  21.487  0.00  0.00    +0.000 A 
ATOM      7  C   UNL     1       1.440   7.891  20.481  0.00  0.00    +0.000 A 
ATOM      8  C   UNL     1       1.775   6.474  20.671  0.00  0.00    +0.000 A 
ATOM      9  C   UNL     1       2.393   5.805  19.693  0.00  0.00    +0.000 A 
ATOM     10  N   UNL     1       2.722   6.410  18.507  0.00  0.00    +0.000 N 
ATOM     11  C   UNL     1       2.446   7.722  18.202  0.00  0.00    +0.000 A 
ATOM     12  O   UNL     1       2.758   8.215  17.125  0.00  0.00    +0.000 OA
ATOM     13  C   UNL     1       1.740   8.509  19.253  0.00  0.00    +0.000 A 
ATOM     14  C   UNL     1       1.382   9.840  19.000  0.00  0.00    +0.000 A 
ATOM     15  C   UNL     1       0.726  10.593  19.986  0.00  0.00    +0.000 A 
ATOM     16  C   UNL     1       0.288  12.092  19.679  0.00  0.00    +0.000 C 
ATOM     17  C   UNL     1       1.329  12.832  18.824  0.00  0.00    +0.000 C 
ATOM     18  C   UNL     1      -1.164  12.185  19.023  0.00  0.00    +0.000 C 
ATOM     19  C   UNL     1      -2.349  12.791  19.945  0.00  0.00    +0.000 C 
ATOM     20  N   UNL     1      -2.145  12.718  21.443  0.00  0.00    +0.000 NA
ATOM     21  H   UNL     1       3.197   5.885  17.786  0.00  0.00    +0.000 HD
ENDROOT
BRANCH  20  22
ATOM     22  C   UNL     1      -3.337  12.389  22.203  0.00  0.00    +0.000 C 
BRANCH  22  23
ATOM     23  C   UNL     1      -3.278  12.983  23.586  0.00  0.00    +0.000 C 
ATOM     24  C   UNL     1      -4.360  13.891  24.128  0.00  0.00    +0.000 C 
ATOM     25  C   UNL     1      -4.210  12.500  24.672  0.00  0.00    +0.000 C 
ENDBRANCH  22  23
ENDBRANCH  20  22
TORSDOF 2
ENDMDL
MODEL 8
REMARK VINA RESULT:      -6.4      1.782      4.127
REMARK  Name = 
REMARK  4 active torsions:
REMARK  status: ('A' for Active; 'I' for Inactive)
REMARK    1  A    between atoms: C_1  and  C_2
REMARK    2  A    between atoms: C_16  and  C_17
REMARK    3  A    between atoms: N_20  and  C_21
REMARK    4  A    between atoms: C_21  and  C_22
REMARK                            x       y       z     vdW  Elec       q    Type
REMARK                         _______ _______ _______ _____ _____    ______ ____
ROOT
ATOM      1  C   UNL     1       7.715   4.896  15.696  0.00  0.00    +0.000 C 
ATOM      2  C   UNL     1       6.722   4.772  16.873  0.00  0.00    +0.000 C 
ATOM      3  C   UNL     1       6.922   5.721  18.086  0.00  0.00    +0.000 C 
ATOM      4  C   UNL     1       6.710   4.856  19.323  0.00  0.00    +0.000 C 
ATOM      5  C   UNL     1       5.224   4.372  19.154  0.00  0.00    +0.000 A 
ATOM      6  C   UNL     1       4.538   3.913  20.290  0.00  0.00    +0.000 A 
ATOM      7  C   UNL     1       3.188   3.559  20.203  0.00  0.00    +0.000 A 
ATOM      8  C   UNL     1       2.440   3.129  21.390  0.00  0.00    +0.000 A 
ATOM      9  C   UNL     1       1.153   2.787  21.271  0.00  0.00    +0.000 A 
ATOM     10  N   UNL     1       0.507   2.834  20.062  0.00  0.00    +0.000 N 
ATOM     11  C   UNL     1       1.093   3.237  18.885  0.00  0.00    +0.000 A 
ATOM     12  O   UNL     1       0.471   3.263  17.830  0.00  0.00    +0.000 OA
ATOM     13  C   UNL     1       2.524   3.645  18.966  0.00  0.00    +0.000 A 
ATOM     14  C   UNL     1       3.178   4.113  17.818  0.00  0.00    +0.000 A 
ATOM     15  C   UNL     1       4.528   4.491  17.880  0.00  0.00    +0.000 A 
ATOM     16  C   UNL     1       5.254   5.057  16.583  0.00  0.00    +0.000 C 
ATOM     17  C   UNL     1       4.799   4.332  15.305  0.00  0.00    +0.000 C 
ATOM     18  C   UNL     1       5.096   6.639  16.431  0.00  0.00    +0.000 C 
ATOM     19  C   UNL     1       6.421   7.536  16.682  0.00  0.00    +0.000 C 
ATOM     20  N   UNL     1       7.510   6.912  17.528  0.00  0.00    +0.000 NA
ATOM     21  H   UNL     1      -0.464   2.563  19.996  0.00  0.00    +0.000 HD
ENDROOT
BRANCH  20  22
ATOM     22  C   UNL     1       8.163   7.825  18.448  0.00  0.00    +0.000 C 
BRANCH  22  23
ATOM     23  C   UNL     1       8.529   9.115  17.763  0.00  0.00    +0.000 C 
ATOM     24  C   UNL     1       7.859  10.431  18.093  0.00  0.00    +0.000 C 
ATOM     25  C   UNL     1       9.283  10.193  18.503  0.00  0.00    +0.000 C 
ENDBRANCH  22  23
ENDBRANCH  20  22
TORSDOF 2
ENDMDL
MODEL 9
REMARK VINA RESULT:      -6.4      9.114     11.501
REMARK  Name = 
REMARK  4 active torsions:
REMARK  status: ('A' for Active; 'I' for Inactive)
REMARK    1  A    between atoms: C_1  and  C_2
REMARK    2  A    between atoms: C_16  and  C_17
REMARK    3  A    between atoms: N_20  and  C_21
REMARK    4  A    between atoms: C_21  and  C_22
REMARK                            x       y       z     vdW  Elec       q    Type
REMARK                         _______ _______ _______ _____ _____    ______ ____
ROOT
ATOM      1  C   UNL     1      -1.415  14.888  21.801  0.00  0.00    +0.000 C 
ATOM      2  C   UNL     1      -1.061  13.391  21.657  0.00  0.00    +0.000 C 
ATOM      3  C   UNL     1      -2.028  12.358  22.297  0.00  0.00    +0.000 C 
ATOM      4  C   UNL     1      -1.135  11.320  22.967  0.00  0.00    +0.000 C 
ATOM      5  C   UNL     1      -0.318  10.737  21.757  0.00  0.00    +0.000 A 
ATOM      6  C   UNL     1       0.290   9.480  21.907  0.00  0.00    +0.000 A 
ATOM      7  C   UNL     1       0.950   8.884  20.829  0.00  0.00    +0.000 A 
ATOM      8  C   UNL     1       1.546   7.547  20.950  0.00  0.00    +0.000 A 
ATOM      9  C   UNL     1       2.178   7.010  19.903  0.00  0.00    +0.000 A 
ATOM     10  N   UNL     1       2.283   7.675  18.708  0.00  0.00    +0.000 N 
ATOM     11  C   UNL     1       1.752   8.920  18.465  0.00  0.00    +0.000 A 
ATOM     12  O   UNL     1       1.871   9.472  17.377  0.00  0.00    +0.000 OA
ATOM     13  C   UNL     1       1.020   9.558  19.596  0.00  0.00    +0.000 A 
ATOM     14  C   UNL     1       0.410  10.807  19.412  0.00  0.00    +0.000 A 
ATOM     15  C   UNL     1      -0.272  11.421  20.473  0.00  0.00    +0.000 A 
ATOM     16  C   UNL     1      -0.995  12.820  20.247  0.00  0.00    +0.000 C 
ATOM     17  C   UNL     1      -0.185  13.743  19.321  0.00  0.00    +0.000 C 
ATOM     18  C   UNL     1      -2.496  12.660  19.727  0.00  0.00    +0.000 C 
ATOM     19  C   UNL     1      -3.678  13.036  20.768  0.00  0.00    +0.000 C 
ATOM     20  N   UNL     1      -3.325  12.985  22.239  0.00  0.00    +0.000 NA
ATOM     21  H   UNL     1       2.773   7.251  17.933  0.00  0.00    +0.000 HD
ENDROOT
BRANCH  20  22
ATOM     22  C   UNL     1      -4.364  12.441  23.095  0.00  0.00    +0.000 C 
BRANCH  22  23
ATOM     23  C   UNL     1      -5.629  13.251  22.992  0.00  0.00    +0.000 C 
ATOM     24  C   UNL     1      -6.948  12.649  22.558  0.00  0.00    +0.000 C 
ATOM     25  C   UNL     1      -6.748  13.061  23.987  0.00  0.00    +0.000 C 
ENDBRANCH  22  23
ENDBRANCH  20  22
TORSDOF 2
ENDMDL
