MODEL 1
REMARK VINA RESULT:      -5.7      0.000      0.000
REMARK  Name = 
REMARK  1 active torsions:
REMARK  status: ('A' for Active; 'I' for Inactive)
REMARK    1  A    between atoms: N_1  and  C_2
REMARK                            x       y       z     vdW  Elec       q    Type
REMARK                         _______ _______ _______ _____ _____    ______ ____
ROOT
ATOM      1  C   UNL     1       6.724   6.706  17.198  0.00  0.00    +0.000 C 
ATOM      2  C   UNL     1       7.828   6.602  18.305  0.00  0.00    +0.000 C 
ATOM      3  C   UNL     1       7.242   5.673  19.331  0.00  0.00    +0.000 C 
ATOM      4  O   UNL     1       7.787   5.320  20.363  0.00  0.00    +0.000 OA
ATOM      5  C   UNL     1       5.925   5.292  18.914  0.00  0.00    +0.000 A 
ATOM      6  S   UNL     1       4.676   4.336  19.493  0.00  0.00    +0.000 S 
ATOM      7  C   UNL     1       3.686   4.677  18.149  0.00  0.00    +0.000 A 
ATOM      8  I   UNL     1       1.751   3.901  17.870  0.00  0.00    +0.000 I 
ATOM      9  C   UNL     1       4.346   5.536  17.264  0.00  0.00    +0.000 A 
ATOM     10  C   UNL     1       5.614   5.858  17.737  0.00  0.00    +0.000 A 
ENDROOT
BRANCH   1  11
ATOM     11  N   UNL     1       7.198   6.148  15.935  0.00  0.00    +0.000 NA
ATOM     12  H   UNL     1       6.619   6.539  15.158  0.00  0.00    +0.000 HD
ATOM     13  H   UNL     1       7.058   5.111  15.948  0.00  0.00    +0.000 HD
ENDBRANCH   1  11
TORSDOF 1
ENDMDL
MODEL 2
REMARK VINA RESULT:      -5.6      4.037      4.603
REMARK  Name = 
REMARK  1 active torsions:
REMARK  status: ('A' for Active; 'I' for Inactive)
REMARK    1  A    between atoms: N_1  and  C_2
REMARK                            x       y       z     vdW  Elec       q    Type
REMARK                         _______ _______ _______ _____ _____    ______ ____
ROOT
ATOM      1  C   UNL     1       2.255   2.331  17.891  0.00  0.00    +0.000 C 
ATOM      2  C   UNL     1       3.326   1.513  18.689  0.00  0.00    +0.000 C 
ATOM      3  C   UNL     1       4.138   2.556  19.404  0.00  0.00    +0.000 C 
ATOM      4  O   UNL     1       5.082   2.338  20.144  0.00  0.00    +0.000 OA
ATOM      5  C   UNL     1       3.643   3.854  19.048  0.00  0.00    +0.000 A 
ATOM      6  S   UNL     1       4.008   5.451  19.398  0.00  0.00    +0.000 S 
ATOM      7  C   UNL     1       2.754   6.037  18.405  0.00  0.00    +0.000 A 
ATOM      8  I   UNL     1       2.309   8.075  18.128  0.00  0.00    +0.000 I 
ATOM      9  C   UNL     1       2.066   4.974  17.811  0.00  0.00    +0.000 A 
ATOM     10  C   UNL     1       2.604   3.753  18.205  0.00  0.00    +0.000 A 
ENDROOT
BRANCH   1  11
ATOM     11  N   UNL     1       0.909   2.037  18.373  0.00  0.00    +0.000 NA
ATOM     12  H   UNL     1       0.274   1.933  17.550  0.00  0.00    +0.000 HD
ATOM     13  H   UNL     1       0.568   2.848  18.939  0.00  0.00    +0.000 HD
ENDBRANCH   1  11
TORSDOF 1
ENDMDL
MODEL 3
REMARK VINA RESULT:      -5.4      1.358      1.414
REMARK  Name = 
REMARK  1 active torsions:
REMARK  status: ('A' for Active; 'I' for Inactive)
REMARK    1  A    between atoms: N_1  and  C_2
REMARK                            x       y       z     vdW  Elec       q    Type
REMARK                         _______ _______ _______ _____ _____    ______ ____
ROOT
ATOM      1  C   UNL     1       5.609   6.707  16.886  0.00  0.00    +0.000 C 
ATOM      2  C   UNL     1       7.106   6.283  17.068  0.00  0.00    +0.000 C 
ATOM      3  C   UNL     1       7.043   5.037  17.906  0.00  0.00    +0.000 C 
ATOM      4  O   UNL     1       8.001   4.381  18.276  0.00  0.00    +0.000 OA
ATOM      5  C   UNL     1       5.673   4.763  18.227  0.00  0.00    +0.000 A 
ATOM      6  S   UNL     1       4.816   3.615  19.096  0.00  0.00    +0.000 S 
ATOM      7  C   UNL     1       3.320   4.347  18.740  0.00  0.00    +0.000 A 
ATOM      8  I   UNL     1       1.456   3.628  19.401  0.00  0.00    +0.000 I 
ATOM      9  C   UNL     1       3.510   5.482  17.946  0.00  0.00    +0.000 A 
ATOM     10  C   UNL     1       4.861   5.680  17.678  0.00  0.00    +0.000 A 
ENDROOT
BRANCH   1  11
ATOM     11  N   UNL     1       5.212   6.631  15.483  0.00  0.00    +0.000 NA
ATOM     12  H   UNL     1       5.658   7.422  14.965  0.00  0.00    +0.000 HD
ATOM     13  H   UNL     1       4.175   6.750  15.418  0.00  0.00    +0.000 HD
ENDBRANCH   1  11
TORSDOF 1
ENDMDL
MODEL 4
REMARK VINA RESULT:      -5.4      3.809      4.902
REMARK  Name = 
REMARK  1 active torsions:
REMARK  status: ('A' for Active; 'I' for Inactive)
REMARK    1  A    between atoms: N_1  and  C_2
REMARK                            x       y       z     vdW  Elec       q    Type
REMARK                         _______ _______ _______ _____ _____    ______ ____
ROOT
ATOM      1  C   UNL     1       4.112   2.830  19.870  0.00  0.00    +0.000 C 
ATOM      2  C   UNL     1       2.855   2.334  19.078  0.00  0.00    +0.000 C 
ATOM      3  C   UNL     1       2.864   3.148  17.814  0.00  0.00    +0.000 C 
ATOM      4  O   UNL     1       2.048   3.068  16.912  0.00  0.00    +0.000 OA
ATOM      5  C   UNL     1       3.973   4.055  17.855  0.00  0.00    +0.000 A 
ATOM      6  S   UNL     1       4.626   5.248  16.876  0.00  0.00    +0.000 S 
ATOM      7  C   UNL     1       5.880   5.578  17.981  0.00  0.00    +0.000 A 
ATOM      8  I   UNL     1       7.379   7.024  17.681  0.00  0.00    +0.000 I 
ATOM      9  C   UNL     1       5.770   4.751  19.102  0.00  0.00    +0.000 A 
ATOM     10  C   UNL     1       4.674   3.902  18.988  0.00  0.00    +0.000 A 
ENDROOT
BRANCH   1  11
ATOM     11  N   UNL     1       5.089   1.755  20.021  0.00  0.00    +0.000 NA
ATOM     12  H   UNL     1       4.617   0.843  19.828  0.00  0.00    +0.000 HD
ATOM     13  H   UNL     1       5.423   1.739  21.012  0.00  0.00    +0.000 HD
ENDBRANCH   1  11
TORSDOF 1
ENDMDL
MODEL 5
REMARK VINA RESULT:      -5.4      3.898      5.145
REMARK  Name = 
REMARK  1 active torsions:
REMARK  status: ('A' for Active; 'I' for Inactive)
REMARK    1  A    between atoms: N_1  and  C_2
REMARK                            x       y       z     vdW  Elec       q    Type
REMARK                         _______ _______ _______ _____ _____    ______ ____
ROOT
ATOM      1  C   UNL     1       3.455   2.147  19.055  0.00  0.00    +0.000 C 
ATOM      2  C   UNL     1       1.981   2.311  18.553  0.00  0.00    +0.000 C 
ATOM      3  C   UNL     1       1.973   3.631  17.836  0.00  0.00    +0.000 C 
ATOM      4  O   UNL     1       1.009   4.137  17.287  0.00  0.00    +0.000 OA
ATOM      5  C   UNL     1       3.280   4.216  17.926  0.00  0.00    +0.000 A 
ATOM      6  S   UNL     1       4.040   5.620  17.418  0.00  0.00    +0.000 S 
ATOM      7  C   UNL     1       5.526   5.160  18.114  0.00  0.00    +0.000 A 
ATOM      8  I   UNL     1       7.284   6.312  18.032  0.00  0.00    +0.000 I 
ATOM      9  C   UNL     1       5.407   3.913  18.736  0.00  0.00    +0.000 A 
ATOM     10  C   UNL     1       4.115   3.414  18.604  0.00  0.00    +0.000 A 
ENDROOT
BRANCH   1  11
ATOM     11  N   UNL     1       4.099   1.003  18.415  0.00  0.00    +0.000 NA
ATOM     12  H   UNL     1       5.124   1.041  18.617  0.00  0.00    +0.000 HD
ATOM     13  H   UNL     1       3.974   1.080  17.380  0.00  0.00    +0.000 HD
ENDBRANCH   1  11
TORSDOF 1
ENDMDL
MODEL 6
REMARK VINA RESULT:      -5.3      4.154      5.209
REMARK  Name = 
REMARK  1 active torsions:
REMARK  status: ('A' for Active; 'I' for Inactive)
REMARK    1  A    between atoms: N_1  and  C_2
REMARK                            x       y       z     vdW  Elec       q    Type
REMARK                         _______ _______ _______ _____ _____    ______ ____
ROOT
ATOM      1  C   UNL     1       1.747   2.531  19.330  0.00  0.00    +0.000 C 
ATOM      2  C   UNL     1       1.152   3.511  20.397  0.00  0.00    +0.000 C 
ATOM      3  C   UNL     1       1.810   4.830  20.102  0.00  0.00    +0.000 C 
ATOM      4  O   UNL     1       1.618   5.871  20.707  0.00  0.00    +0.000 OA
ATOM      5  C   UNL     1       2.724   4.658  19.011  0.00  0.00    +0.000 A 
ATOM      6  S   UNL     1       3.798   5.607  18.141  0.00  0.00    +0.000 S 
ATOM      7  C   UNL     1       4.266   4.304  17.148  0.00  0.00    +0.000 A 
ATOM      8  I   UNL     1       5.676   4.441  15.593  0.00  0.00    +0.000 I 
ATOM      9  C   UNL     1       3.576   3.143  17.511  0.00  0.00    +0.000 A 
ATOM     10  C   UNL     1       2.711   3.390  18.572  0.00  0.00    +0.000 A 
ENDROOT
BRANCH   1  11
ATOM     11  N   UNL     1       0.706   2.048  18.428  0.00  0.00    +0.000 NA
ATOM     12  H   UNL     1       0.104   2.855  18.149  0.00  0.00    +0.000 HD
ATOM     13  H   UNL     1       0.104   1.363  18.942  0.00  0.00    +0.000 HD
ENDBRANCH   1  11
TORSDOF 1
ENDMDL
MODEL 7
REMARK VINA RESULT:      -5.3      1.740      1.921
REMARK  Name = 
REMARK  1 active torsions:
REMARK  status: ('A' for Active; 'I' for Inactive)
REMARK    1  A    between atoms: N_1  and  C_2
REMARK                            x       y       z     vdW  Elec       q    Type
REMARK                         _______ _______ _______ _____ _____    ______ ____
ROOT
ATOM      1  C   UNL     1       5.648   4.986  15.754  0.00  0.00    +0.000 C 
ATOM      2  C   UNL     1       7.041   5.252  16.418  0.00  0.00    +0.000 C 
ATOM      3  C   UNL     1       6.889   4.743  17.824  0.00  0.00    +0.000 C 
ATOM      4  O   UNL     1       7.754   4.758  18.683  0.00  0.00    +0.000 OA
ATOM      5  C   UNL     1       5.550   4.262  18.000  0.00  0.00    +0.000 A 
ATOM      6  S   UNL     1       4.635   3.584  19.230  0.00  0.00    +0.000 S 
ATOM      7  C   UNL     1       3.255   3.457  18.240  0.00  0.00    +0.000 A 
ATOM      8  I   UNL     1       1.410   2.663  18.867  0.00  0.00    +0.000 I 
ATOM      9  C   UNL     1       3.527   3.948  16.959  0.00  0.00    +0.000 A 
ATOM     10  C   UNL     1       4.842   4.394  16.868  0.00  0.00    +0.000 A 
ENDROOT
BRANCH   1  11
ATOM     11  N   UNL     1       5.765   4.021  14.665  0.00  0.00    +0.000 NA
ATOM     12  H   UNL     1       5.277   4.403  13.824  0.00  0.00    +0.000 HD
ATOM     13  H   UNL     1       5.279   3.137  14.942  0.00  0.00    +0.000 HD
ENDBRANCH   1  11
TORSDOF 1
ENDMDL
MODEL 8
REMARK VINA RESULT:      -5.2      2.527      2.868
REMARK  Name = 
REMARK  1 active torsions:
REMARK  status: ('A' for Active; 'I' for Inactive)
REMARK    1  A    between atoms: N_1  and  C_2
REMARK                            x       y       z     vdW  Elec       q    Type
REMARK                         _______ _______ _______ _____ _____    ______ ____
ROOT
ATOM      1  C   UNL     1       6.893   4.647  17.846  0.00  0.00    +0.000 C 
ATOM      2  C   UNL     1       6.958   5.536  16.558  0.00  0.00    +0.000 C 
ATOM      3  C   UNL     1       5.566   6.084  16.412  0.00  0.00    +0.000 C 
ATOM      4  O   UNL     1       5.187   6.834  15.528  0.00  0.00    +0.000 OA
ATOM      5  C   UNL     1       4.747   5.558  17.464  0.00  0.00    +0.000 A 
ATOM      6  S   UNL     1       3.151   5.676  17.961  0.00  0.00    +0.000 S 
ATOM      7  C   UNL     1       3.402   4.630  19.282  0.00  0.00    +0.000 A 
ATOM      8  I   UNL     1       1.914   4.079  20.662  0.00  0.00    +0.000 I 
ATOM      9  C   UNL     1       4.733   4.202  19.317  0.00  0.00    +0.000 A 
ATOM     10  C   UNL     1       5.460   4.754  18.267  0.00  0.00    +0.000 A 
ENDROOT
BRANCH   1  11
ATOM     11  N   UNL     1       7.755   5.187  18.894  0.00  0.00    +0.000 NA
ATOM     12  H   UNL     1       8.751   5.089  18.592  0.00  0.00    +0.000 HD
ATOM     13  H   UNL     1       7.627   4.618  19.763  0.00  0.00    +0.000 HD
ENDBRANCH   1  11
TORSDOF 1
ENDMDL
MODEL 9
REMARK VINA RESULT:      -5.1      4.458      5.779
REMARK  Name = 
REMARK  1 active torsions:
REMARK  status: ('A' for Active; 'I' for Inactive)
REMARK    1  A    between atoms: N_1  and  C_2
REMARK                            x       y       z     vdW  Elec       q    Type
REMARK                         _______ _______ _______ _____ _____    ______ ____
ROOT
ATOM      1  C   UNL     1       1.937   3.906  21.013  0.00  0.00    +0.000 C 
ATOM      2  C   UNL     1       0.686   3.123  20.489  0.00  0.00    +0.000 C 
ATOM      3  C   UNL     1       1.026   2.783  19.065  0.00  0.00    +0.000 C 
ATOM      4  O   UNL     1       0.313   2.165  18.293  0.00  0.00    +0.000 OA
ATOM      5  C   UNL     1       2.313   3.330  18.752  0.00  0.00    +0.000 A 
ATOM      6  S   UNL     1       3.338   3.393  17.428  0.00  0.00    +0.000 S 
ATOM      7  C   UNL     1       4.512   4.286  18.279  0.00  0.00    +0.000 A 
ATOM      8  I   UNL     1       6.343   4.924  17.463  0.00  0.00    +0.000 I 
ATOM      9  C   UNL     1       4.087   4.524  19.590  0.00  0.00    +0.000 A 
ATOM     10  C   UNL     1       2.834   3.964  19.815  0.00  0.00    +0.000 A 
ENDROOT
BRANCH   1  11
ATOM     11  N   UNL     1       2.599   3.173  22.087  0.00  0.00    +0.000 NA
ATOM     12  H   UNL     1       2.226   3.512  23.003  0.00  0.00    +0.000 HD
ATOM     13  H   UNL     1       3.623   3.384  22.061  0.00  0.00    +0.000 HD
ENDBRANCH   1  11
TORSDOF 1
ENDMDL
