MODEL 1
REMARK VINA RESULT:      -9.1      0.000      0.000
REMARK  Name = 
REMARK  4 active torsions:
REMARK  status: ('A' for Active; 'I' for Inactive)
REMARK    1  A    between atoms: C_2  and  C_3
REMARK    2  A    between atoms: C_2  and  C_10
REMARK    3  A    between atoms: N_12  and  C_13
REMARK    4  A    between atoms: C_13  and  C_14
REMARK                            x       y       z     vdW  Elec       q    Type
REMARK                         _______ _______ _______ _____ _____    ______ ____
ROOT
ATOM      1  C   UNL     1       3.447   5.546  18.207  0.00  0.00    +0.000 A 
ATOM      2  C   UNL     1       3.018   6.658  18.914  0.00  0.00    +0.000 A 
ATOM      3  N   UNL     1       2.098   6.256  19.848  0.00  0.00    +0.000 N 
ATOM      4  C   UNL     1       1.770   4.929  19.633  0.00  0.00    +0.000 A 
ATOM      5  C   UNL     1       0.843   4.086  20.270  0.00  0.00    +0.000 A 
ATOM      6  C   UNL     1       0.743   2.762  19.835  0.00  0.00    +0.000 A 
ATOM      7  C   UNL     1       1.543   2.285  18.802  0.00  0.00    +0.000 A 
ATOM      8  C   UNL     1       2.470   3.125  18.181  0.00  0.00    +0.000 A 
ATOM      9  C   UNL     1       2.588   4.470  18.593  0.00  0.00    +0.000 A 
ENDROOT
BRANCH   1  11
ATOM     10  O   UNL     1       4.511   4.943  16.187  0.00  0.00    +0.000 OA
ATOM     11  C   UNL     1       4.579   5.497  17.278  0.00  0.00    +0.000 C 
BRANCH  11  12
ATOM     12  C   UNL     1       5.870   6.080  17.743  0.00  0.00    +0.000 A 
ATOM     13  C   UNL     1       6.396   7.234  17.135  0.00  0.00    +0.000 A 
ATOM     14  C   UNL     1       7.638   7.737  17.525  0.00  0.00    +0.000 A 
ATOM     15  C   UNL     1       8.342   7.122  18.556  0.00  0.00    +0.000 A 
ATOM     16  C   UNL     1       7.804   6.009  19.199  0.00  0.00    +0.000 A 
ATOM     17  C   UNL     1       6.572   5.489  18.791  0.00  0.00    +0.000 A 
ATOM     18  F   UNL     1       6.112   4.395  19.413  0.00  0.00    +0.000 F 
ENDBRANCH  11  12
ENDBRANCH   1  11
BRANCH   3  19
ATOM     19  C   UNL     1       1.518   7.135  20.859  0.00  0.00    +0.000 C 
BRANCH  19  20
ATOM     20  C   UNL     1       1.096   8.508  20.337  0.00  0.00    +0.000 C 
ATOM     21  O   UNL     1       1.684   9.075  19.414  0.00  0.00    +0.000 OA
ATOM     22  N   UNL     1      -0.050   9.065  20.916  0.00  0.00    +0.000 N 
ATOM     23  C   UNL     1      -0.594  10.308  20.367  0.00  0.00    +0.000 C 
ATOM     24  C   UNL     1      -0.301  11.480  21.300  0.00  0.00    +0.000 C 
ATOM     25  C   UNL     1      -0.804  11.189  22.715  0.00  0.00    +0.000 C 
ATOM     26  C   UNL     1      -0.268   9.849  23.227  0.00  0.00    +0.000 C 
ATOM     27  C   UNL     1      -0.571   8.720  22.240  0.00  0.00    +0.000 C 
ENDBRANCH  19  20
ENDBRANCH   3  19
TORSDOF 4
ENDMDL
MODEL 2
REMARK VINA RESULT:      -9.0      0.910      1.299
REMARK  Name = 
REMARK  4 active torsions:
REMARK  status: ('A' for Active; 'I' for Inactive)
REMARK    1  A    between atoms: C_2  and  C_3
REMARK    2  A    between atoms: C_2  and  C_10
REMARK    3  A    between atoms: N_12  and  C_13
REMARK    4  A    between atoms: C_13  and  C_14
REMARK                            x       y       z     vdW  Elec       q    Type
REMARK                         _______ _______ _______ _____ _____    ______ ____
ROOT
ATOM      1  C   UNL     1       3.479   5.246  18.275  0.00  0.00    +0.000 A 
ATOM      2  C   UNL     1       3.116   6.393  18.962  0.00  0.00    +0.000 A 
ATOM      3  N   UNL     1       2.163   6.064  19.892  0.00  0.00    +0.000 N 
ATOM      4  C   UNL     1       1.751   4.758  19.691  0.00  0.00    +0.000 A 
ATOM      5  C   UNL     1       0.766   3.986  20.328  0.00  0.00    +0.000 A 
ATOM      6  C   UNL     1       0.585   2.664  19.910  0.00  0.00    +0.000 A 
ATOM      7  C   UNL     1       1.363   2.123  18.892  0.00  0.00    +0.000 A 
ATOM      8  C   UNL     1       2.348   2.893  18.270  0.00  0.00    +0.000 A 
ATOM      9  C   UNL     1       2.548   4.233  18.666  0.00  0.00    +0.000 A 
ENDROOT
BRANCH   1  11
ATOM     10  O   UNL     1       4.564   4.427  16.343  0.00  0.00    +0.000 OA
ATOM     11  C   UNL     1       4.615   5.111  17.358  0.00  0.00    +0.000 C 
BRANCH  11  12
ATOM     12  C   UNL     1       5.890   5.778  17.749  0.00  0.00    +0.000 A 
ATOM     13  C   UNL     1       6.671   5.271  18.803  0.00  0.00    +0.000 A 
ATOM     14  C   UNL     1       7.827   5.936  19.213  0.00  0.00    +0.000 A 
ATOM     15  C   UNL     1       8.239   7.085  18.544  0.00  0.00    +0.000 A 
ATOM     16  C   UNL     1       7.499   7.564  17.465  0.00  0.00    +0.000 A 
ATOM     17  C   UNL     1       6.327   6.913  17.071  0.00  0.00    +0.000 A 
ATOM     18  F   UNL     1       5.628   7.433  16.053  0.00  0.00    +0.000 F 
ENDBRANCH  11  12
ENDBRANCH   1  11
BRANCH   3  19
ATOM     19  C   UNL     1       1.631   6.993  20.885  0.00  0.00    +0.000 C 
BRANCH  19  20
ATOM     20  C   UNL     1       1.225   8.355  20.324  0.00  0.00    +0.000 C 
ATOM     21  O   UNL     1       1.831   8.897  19.398  0.00  0.00    +0.000 OA
ATOM     22  N   UNL     1       0.073   8.932  20.871  0.00  0.00    +0.000 N 
ATOM     23  C   UNL     1      -0.455  10.164  20.284  0.00  0.00    +0.000 C 
ATOM     24  C   UNL     1      -0.170  11.357  21.194  0.00  0.00    +0.000 C 
ATOM     25  C   UNL     1      -0.697  11.102  22.608  0.00  0.00    +0.000 C 
ATOM     26  C   UNL     1      -0.177   9.771  23.160  0.00  0.00    +0.000 C 
ATOM     27  C   UNL     1      -0.471   8.621  22.194  0.00  0.00    +0.000 C 
ENDBRANCH  19  20
ENDBRANCH   3  19
TORSDOF 4
ENDMDL
MODEL 3
REMARK VINA RESULT:      -8.7      1.532      1.912
REMARK  Name = 
REMARK  4 active torsions:
REMARK  status: ('A' for Active; 'I' for Inactive)
REMARK    1  A    between atoms: C_2  and  C_3
REMARK    2  A    between atoms: C_2  and  C_10
REMARK    3  A    between atoms: N_12  and  C_13
REMARK    4  A    between atoms: C_13  and  C_14
REMARK                            x       y       z     vdW  Elec       q    Type
REMARK                         _______ _______ _______ _____ _____    ______ ____
ROOT
ATOM      1  C   UNL     1       4.169   5.196  19.237  0.00  0.00    +0.000 A 
ATOM      2  C   UNL     1       3.526   6.286  19.801  0.00  0.00    +0.000 A 
ATOM      3  N   UNL     1       2.285   5.889  20.230  0.00  0.00    +0.000 N 
ATOM      4  C   UNL     1       2.027   4.607  19.778  0.00  0.00    +0.000 A 
ATOM      5  C   UNL     1       0.888   3.793  19.894  0.00  0.00    +0.000 A 
ATOM      6  C   UNL     1       0.930   2.511  19.338  0.00  0.00    +0.000 A 
ATOM      7  C   UNL     1       2.071   2.048  18.690  0.00  0.00    +0.000 A 
ATOM      8  C   UNL     1       3.203   2.859  18.588  0.00  0.00    +0.000 A 
ATOM      9  C   UNL     1       3.188   4.161  19.133  0.00  0.00    +0.000 A 
ENDROOT
BRANCH   1  11
ATOM     10  O   UNL     1       6.487   5.147  19.688  0.00  0.00    +0.000 OA
ATOM     11  C   UNL     1       5.584   5.128  18.860  0.00  0.00    +0.000 C 
BRANCH  11  12
ATOM     12  C   UNL     1       5.902   5.119  17.403  0.00  0.00    +0.000 A 
ATOM     13  C   UNL     1       4.975   5.606  16.464  0.00  0.00    +0.000 A 
ATOM     14  C   UNL     1       5.246   5.532  15.097  0.00  0.00    +0.000 A 
ATOM     15  C   UNL     1       6.462   5.016  14.659  0.00  0.00    +0.000 A 
ATOM     16  C   UNL     1       7.407   4.580  15.585  0.00  0.00    +0.000 A 
ATOM     17  C   UNL     1       7.125   4.630  16.953  0.00  0.00    +0.000 A 
ATOM     18  F   UNL     1       8.049   4.163  17.805  0.00  0.00    +0.000 F 
ENDBRANCH  11  12
ENDBRANCH   1  11
BRANCH   3  19
ATOM     19  C   UNL     1       1.369   6.738  20.986  0.00  0.00    +0.000 C 
BRANCH  19  20
ATOM     20  C   UNL     1       1.141   8.122  20.378  0.00  0.00    +0.000 C 
ATOM     21  O   UNL     1       1.836   8.565  19.462  0.00  0.00    +0.000 OA
ATOM     22  N   UNL     1       0.045   8.841  20.869  0.00  0.00    +0.000 N 
ATOM     23  C   UNL     1      -0.318  10.109  20.234  0.00  0.00    +0.000 C 
ATOM     24  C   UNL     1       0.072  11.286  21.125  0.00  0.00    +0.000 C 
ATOM     25  C   UNL     1      -0.528  11.132  22.524  0.00  0.00    +0.000 C 
ATOM     26  C   UNL     1      -0.183   9.767  23.126  0.00  0.00    +0.000 C 
ATOM     27  C   UNL     1      -0.575   8.632  22.178  0.00  0.00    +0.000 C 
ENDBRANCH  19  20
ENDBRANCH   3  19
TORSDOF 4
ENDMDL
MODEL 4
REMARK VINA RESULT:      -8.6      1.858      2.474
REMARK  Name = 
REMARK  4 active torsions:
REMARK  status: ('A' for Active; 'I' for Inactive)
REMARK    1  A    between atoms: C_2  and  C_3
REMARK    2  A    between atoms: C_2  and  C_10
REMARK    3  A    between atoms: N_12  and  C_13
REMARK    4  A    between atoms: C_13  and  C_14
REMARK                            x       y       z     vdW  Elec       q    Type
REMARK                         _______ _______ _______ _____ _____    ______ ____
ROOT
ATOM      1  C   UNL     1       4.301   5.151  19.037  0.00  0.00    +0.000 A 
ATOM      2  C   UNL     1       3.824   6.439  19.220  0.00  0.00    +0.000 A 
ATOM      3  N   UNL     1       2.611   6.372  19.855  0.00  0.00    +0.000 N 
ATOM      4  C   UNL     1       2.191   5.054  19.914  0.00  0.00    +0.000 A 
ATOM      5  C   UNL     1       1.006   4.478  20.400  0.00  0.00    +0.000 A 
ATOM      6  C   UNL     1       0.871   3.088  20.339  0.00  0.00    +0.000 A 
ATOM      7  C   UNL     1       1.885   2.292  19.816  0.00  0.00    +0.000 A 
ATOM      8  C   UNL     1       3.066   2.872  19.344  0.00  0.00    +0.000 A 
ATOM      9  C   UNL     1       3.227   4.274  19.386  0.00  0.00    +0.000 A 
ENDROOT
BRANCH   1  11
ATOM     10  O   UNL     1       6.570   4.600  19.394  0.00  0.00    +0.000 OA
ATOM     11  C   UNL     1       5.652   4.783  18.603  0.00  0.00    +0.000 C 
BRANCH  11  12
ATOM     12  C   UNL     1       5.903   4.718  17.135  0.00  0.00    +0.000 A 
ATOM     13  C   UNL     1       5.128   3.882  16.311  0.00  0.00    +0.000 A 
ATOM     14  C   UNL     1       5.410   3.770  14.950  0.00  0.00    +0.000 A 
ATOM     15  C   UNL     1       6.436   4.526  14.390  0.00  0.00    +0.000 A 
ATOM     16  C   UNL     1       7.175   5.396  15.190  0.00  0.00    +0.000 A 
ATOM     17  C   UNL     1       6.909   5.489  16.559  0.00  0.00    +0.000 A 
ATOM     18  F   UNL     1       7.670   6.311  17.294  0.00  0.00    +0.000 F 
ENDBRANCH  11  12
ENDBRANCH   1  11
BRANCH   3  19
ATOM     19  C   UNL     1       1.865   7.537  20.324  0.00  0.00    +0.000 C 
BRANCH  19  20
ATOM     20  C   UNL     1       1.579   8.581  19.245  0.00  0.00    +0.000 C 
ATOM     21  O   UNL     1       2.176   8.600  18.167  0.00  0.00    +0.000 OA
ATOM     22  N   UNL     1       0.542   9.482  19.515  0.00  0.00    +0.000 N 
ATOM     23  C   UNL     1       0.119  10.415  18.470  0.00  0.00    +0.000 C 
ATOM     24  C   UNL     1       0.602  11.829  18.785  0.00  0.00    +0.000 C 
ATOM     25  C   UNL     1       0.151  12.261  20.181  0.00  0.00    +0.000 C 
ATOM     26  C   UNL     1       0.553  11.226  21.237  0.00  0.00    +0.000 C 
ATOM     27  C   UNL     1       0.061   9.828  20.853  0.00  0.00    +0.000 C 
ENDBRANCH  19  20
ENDBRANCH   3  19
TORSDOF 4
ENDMDL
MODEL 5
REMARK VINA RESULT:      -8.6      1.648      2.256
REMARK  Name = 
REMARK  4 active torsions:
REMARK  status: ('A' for Active; 'I' for Inactive)
REMARK    1  A    between atoms: C_2  and  C_3
REMARK    2  A    between atoms: C_2  and  C_10
REMARK    3  A    between atoms: N_12  and  C_13
REMARK    4  A    between atoms: C_13  and  C_14
REMARK                            x       y       z     vdW  Elec       q    Type
REMARK                         _______ _______ _______ _____ _____    ______ ____
ROOT
ATOM      1  C   UNL     1       4.015   5.030  19.049  0.00  0.00    +0.000 A 
ATOM      2  C   UNL     1       3.506   6.164  19.661  0.00  0.00    +0.000 A 
ATOM      3  N   UNL     1       2.294   5.852  20.224  0.00  0.00    +0.000 N 
ATOM      4  C   UNL     1       1.909   4.586  19.820  0.00  0.00    +0.000 A 
ATOM      5  C   UNL     1       0.739   3.848  20.067  0.00  0.00    +0.000 A 
ATOM      6  C   UNL     1       0.640   2.562  19.528  0.00  0.00    +0.000 A 
ATOM      7  C   UNL     1       1.674   2.021  18.771  0.00  0.00    +0.000 A 
ATOM      8  C   UNL     1       2.839   2.756  18.538  0.00  0.00    +0.000 A 
ATOM      9  C   UNL     1       2.964   4.061  19.063  0.00  0.00    +0.000 A 
ENDROOT
BRANCH   1  11
ATOM     10  O   UNL     1       6.358   4.809  19.256  0.00  0.00    +0.000 OA
ATOM     11  C   UNL     1       5.375   4.868  18.526  0.00  0.00    +0.000 C 
BRANCH  11  12
ATOM     12  C   UNL     1       5.540   4.859  17.045  0.00  0.00    +0.000 A 
ATOM     13  C   UNL     1       5.875   3.672  16.368  0.00  0.00    +0.000 A 
ATOM     14  C   UNL     1       6.098   3.681  14.990  0.00  0.00    +0.000 A 
ATOM     15  C   UNL     1       5.942   4.862  14.270  0.00  0.00    +0.000 A 
ATOM     16  C   UNL     1       5.559   6.031  14.926  0.00  0.00    +0.000 A 
ATOM     17  C   UNL     1       5.361   6.028  16.310  0.00  0.00    +0.000 A 
ATOM     18  F   UNL     1       5.031   7.184  16.902  0.00  0.00    +0.000 F 
ENDBRANCH  11  12
ENDBRANCH   1  11
BRANCH   3  19
ATOM     19  C   UNL     1       1.519   6.765  21.059  0.00  0.00    +0.000 C 
BRANCH  19  20
ATOM     20  C   UNL     1       1.213   8.113  20.409  0.00  0.00    +0.000 C 
ATOM     21  O   UNL     1       1.875   8.561  19.471  0.00  0.00    +0.000 OA
ATOM     22  N   UNL     1       0.085   8.790  20.888  0.00  0.00    +0.000 N 
ATOM     23  C   UNL     1      -0.350  10.015  20.215  0.00  0.00    +0.000 C 
ATOM     24  C   UNL     1      -0.015  11.240  21.062  0.00  0.00    +0.000 C 
ATOM     25  C   UNL     1      -0.593  11.102  22.472  0.00  0.00    +0.000 C 
ATOM     26  C   UNL     1      -0.171   9.778  23.115  0.00  0.00    +0.000 C 
ATOM     27  C   UNL     1      -0.511   8.592  22.210  0.00  0.00    +0.000 C 
ENDBRANCH  19  20
ENDBRANCH   3  19
TORSDOF 4
ENDMDL
MODEL 6
REMARK VINA RESULT:      -8.4      3.537      8.163
REMARK  Name = 
REMARK  4 active torsions:
REMARK  status: ('A' for Active; 'I' for Inactive)
REMARK    1  A    between atoms: C_2  and  C_3
REMARK    2  A    between atoms: C_2  and  C_10
REMARK    3  A    between atoms: N_12  and  C_13
REMARK    4  A    between atoms: C_13  and  C_14
REMARK                            x       y       z     vdW  Elec       q    Type
REMARK                         _______ _______ _______ _____ _____    ______ ____
ROOT
ATOM      1  C   UNL     1       0.121  10.716  19.467  0.00  0.00    +0.000 A 
ATOM      2  C   UNL     1       1.110   9.779  19.216  0.00  0.00    +0.000 A 
ATOM      3  N   UNL     1       1.246   8.978  20.321  0.00  0.00    +0.000 N 
ATOM      4  C   UNL     1       0.502   9.499  21.365  0.00  0.00    +0.000 A 
ATOM      5  C   UNL     1       0.364   9.090  22.702  0.00  0.00    +0.000 A 
ATOM      6  C   UNL     1      -0.489   9.821  23.534  0.00  0.00    +0.000 A 
ATOM      7  C   UNL     1      -1.188  10.923  23.053  0.00  0.00    +0.000 A 
ATOM      8  C   UNL     1      -1.054  11.318  21.720  0.00  0.00    +0.000 A 
ATOM      9  C   UNL     1      -0.193  10.603  20.857  0.00  0.00    +0.000 A 
ENDROOT
BRANCH   1  11
ATOM     10  O   UNL     1       0.018  12.682  18.161  0.00  0.00    +0.000 OA
ATOM     11  C   UNL     1      -0.489  11.613  18.481  0.00  0.00    +0.000 C 
BRANCH  11  12
ATOM     12  C   UNL     1      -1.817  11.219  17.930  0.00  0.00    +0.000 A 
ATOM     13  C   UNL     1      -1.909  10.285  16.882  0.00  0.00    +0.000 A 
ATOM     14  C   UNL     1      -3.147   9.970  16.320  0.00  0.00    +0.000 A 
ATOM     15  C   UNL     1      -4.306  10.547  16.831  0.00  0.00    +0.000 A 
ATOM     16  C   UNL     1      -4.228  11.433  17.903  0.00  0.00    +0.000 A 
ATOM     17  C   UNL     1      -2.986  11.769  18.449  0.00  0.00    +0.000 A 
ATOM     18  F   UNL     1      -2.957  12.654  19.454  0.00  0.00    +0.000 F 
ENDBRANCH  11  12
ENDBRANCH   1  11
BRANCH   3  19
ATOM     19  C   UNL     1       2.108   7.800  20.379  0.00  0.00    +0.000 C 
BRANCH  19  20
ATOM     20  C   UNL     1       2.190   7.011  19.073  0.00  0.00    +0.000 C 
ATOM     21  O   UNL     1       2.089   7.547  17.968  0.00  0.00    +0.000 OA
ATOM     22  N   UNL     1       2.459   5.642  19.192  0.00  0.00    +0.000 N 
ATOM     23  C   UNL     1       2.694   4.854  17.981  0.00  0.00    +0.000 C 
ATOM     24  C   UNL     1       1.490   3.964  17.680  0.00  0.00    +0.000 C 
ATOM     25  C   UNL     1       1.136   3.098  18.890  0.00  0.00    +0.000 C 
ATOM     26  C   UNL     1       0.966   3.952  20.150  0.00  0.00    +0.000 C 
ATOM     27  C   UNL     1       2.192   4.838  20.385  0.00  0.00    +0.000 C 
ENDBRANCH  19  20
ENDBRANCH   3  19
TORSDOF 4
ENDMDL
MODEL 7
REMARK VINA RESULT:      -8.2      2.008      2.698
REMARK  Name = 
REMARK  4 active torsions:
REMARK  status: ('A' for Active; 'I' for Inactive)
REMARK    1  A    between atoms: C_2  and  C_3
REMARK    2  A    between atoms: C_2  and  C_10
REMARK    3  A    between atoms: N_12  and  C_13
REMARK    4  A    between atoms: C_13  and  C_14
REMARK                            x       y       z     vdW  Elec       q    Type
REMARK                         _______ _______ _______ _____ _____    ______ ____
ROOT
ATOM      1  C   UNL     1       4.314   5.234  18.613  0.00  0.00    +0.000 A 
ATOM      2  C   UNL     1       3.643   6.368  18.186  0.00  0.00    +0.000 A 
ATOM      3  N   UNL     1       2.449   6.450  18.856  0.00  0.00    +0.000 N 
ATOM      4  C   UNL     1       2.238   5.283  19.570  0.00  0.00    +0.000 A 
ATOM      5  C   UNL     1       1.152   4.857  20.353  0.00  0.00    +0.000 A 
ATOM      6  C   UNL     1       1.234   3.609  20.977  0.00  0.00    +0.000 A 
ATOM      7  C   UNL     1       2.363   2.809  20.833  0.00  0.00    +0.000 A 
ATOM      8  C   UNL     1       3.443   3.244  20.062  0.00  0.00    +0.000 A 
ATOM      9  C   UNL     1       3.385   4.497  19.413  0.00  0.00    +0.000 A 
ENDROOT
BRANCH   1  11
ATOM     10  O   UNL     1       6.556   4.772  19.197  0.00  0.00    +0.000 OA
ATOM     11  C   UNL     1       5.709   4.893  18.319  0.00  0.00    +0.000 C 
BRANCH  11  12
ATOM     12  C   UNL     1       6.095   4.778  16.884  0.00  0.00    +0.000 A 
ATOM     13  C   UNL     1       5.488   3.819  16.053  0.00  0.00    +0.000 A 
ATOM     14  C   UNL     1       5.900   3.666  14.729  0.00  0.00    +0.000 A 
ATOM     15  C   UNL     1       6.887   4.499  14.210  0.00  0.00    +0.000 A 
ATOM     16  C   UNL     1       7.457   5.486  15.012  0.00  0.00    +0.000 A 
ATOM     17  C   UNL     1       7.063   5.622  16.346  0.00  0.00    +0.000 A 
ATOM     18  F   UNL     1       7.666   6.559  17.089  0.00  0.00    +0.000 F 
ENDBRANCH  11  12
ENDBRANCH   1  11
BRANCH   3  19
ATOM     19  C   UNL     1       1.528   7.579  18.757  0.00  0.00    +0.000 C 
BRANCH  19  20
ATOM     20  C   UNL     1       1.451   8.446  20.013  0.00  0.00    +0.000 C 
ATOM     21  O   UNL     1       1.779   8.029  21.126  0.00  0.00    +0.000 OA
ATOM     22  N   UNL     1       1.053   9.774  19.825  0.00  0.00    +0.000 N 
ATOM     23  C   UNL     1       1.095  10.698  20.960  0.00  0.00    +0.000 C 
ATOM     24  C   UNL     1      -0.316  10.992  21.465  0.00  0.00    +0.000 C 
ATOM     25  C   UNL     1      -1.208  11.493  20.327  0.00  0.00    +0.000 C 
ATOM     26  C   UNL     1      -1.171  10.535  19.133  0.00  0.00    +0.000 C 
ATOM     27  C   UNL     1       0.268  10.261  18.690  0.00  0.00    +0.000 C 
ENDBRANCH  19  20
ENDBRANCH   3  19
TORSDOF 4
ENDMDL
MODEL 8
REMARK VINA RESULT:      -8.2      3.205      8.106
REMARK  Name = 
REMARK  4 active torsions:
REMARK  status: ('A' for Active; 'I' for Inactive)
REMARK    1  A    between atoms: C_2  and  C_3
REMARK    2  A    between atoms: C_2  and  C_10
REMARK    3  A    between atoms: N_12  and  C_13
REMARK    4  A    between atoms: C_13  and  C_14
REMARK                            x       y       z     vdW  Elec       q    Type
REMARK                         _______ _______ _______ _____ _____    ______ ____
ROOT
ATOM      1  C   UNL     1       0.068  10.739  19.514  0.00  0.00    +0.000 A 
ATOM      2  C   UNL     1       1.074   9.831  19.225  0.00  0.00    +0.000 A 
ATOM      3  N   UNL     1       1.258   9.019  20.315  0.00  0.00    +0.000 N 
ATOM      4  C   UNL     1       0.528   9.507  21.385  0.00  0.00    +0.000 A 
ATOM      5  C   UNL     1       0.434   9.077  22.719  0.00  0.00    +0.000 A 
ATOM      6  C   UNL     1      -0.416   9.774  23.582  0.00  0.00    +0.000 A 
ATOM      7  C   UNL     1      -1.155  10.864  23.134  0.00  0.00    +0.000 A 
ATOM      8  C   UNL     1      -1.064  11.280  21.804  0.00  0.00    +0.000 A 
ATOM      9  C   UNL     1      -0.208  10.600  20.910  0.00  0.00    +0.000 A 
ENDROOT
BRANCH   1  11
ATOM     10  O   UNL     1      -0.043  12.634  18.108  0.00  0.00    +0.000 OA
ATOM     11  C   UNL     1      -0.590  11.633  18.557  0.00  0.00    +0.000 C 
BRANCH  11  12
ATOM     12  C   UNL     1      -2.005  11.329  18.201  0.00  0.00    +0.000 A 
ATOM     13  C   UNL     1      -3.060  12.079  18.753  0.00  0.00    +0.000 A 
ATOM     14  C   UNL     1      -4.386  11.749  18.474  0.00  0.00    +0.000 A 
ATOM     15  C   UNL     1      -4.671  10.699  17.605  0.00  0.00    +0.000 A 
ATOM     16  C   UNL     1      -3.631   9.985  17.014  0.00  0.00    +0.000 A 
ATOM     17  C   UNL     1      -2.302  10.299  17.314  0.00  0.00    +0.000 A 
ATOM     18  F   UNL     1      -1.337   9.560  16.751  0.00  0.00    +0.000 F 
ENDBRANCH  11  12
ENDBRANCH   1  11
BRANCH   3  19
ATOM     19  C   UNL     1       2.151   7.864  20.335  0.00  0.00    +0.000 C 
BRANCH  19  20
ATOM     20  C   UNL     1       2.198   7.078  19.026  0.00  0.00    +0.000 C 
ATOM     21  O   UNL     1       2.067   7.617  17.925  0.00  0.00    +0.000 OA
ATOM     22  N   UNL     1       2.474   5.710  19.134  0.00  0.00    +0.000 N 
ATOM     23  C   UNL     1       2.676   4.925  17.915  0.00  0.00    +0.000 C 
ATOM     24  C   UNL     1       1.466   4.033  17.645  0.00  0.00    +0.000 C 
ATOM     25  C   UNL     1       1.147   3.163  18.862  0.00  0.00    +0.000 C 
ATOM     26  C   UNL     1       1.011   4.014  20.129  0.00  0.00    +0.000 C 
ATOM     27  C   UNL     1       2.241   4.901  20.331  0.00  0.00    +0.000 C 
ENDBRANCH  19  20
ENDBRANCH   3  19
TORSDOF 4
ENDMDL
MODEL 9
REMARK VINA RESULT:      -8.2      1.978      2.604
REMARK  Name = 
REMARK  4 active torsions:
REMARK  status: ('A' for Active; 'I' for Inactive)
REMARK    1  A    between atoms: C_2  and  C_3
REMARK    2  A    between atoms: C_2  and  C_10
REMARK    3  A    between atoms: N_12  and  C_13
REMARK    4  A    between atoms: C_13  and  C_14
REMARK                            x       y       z     vdW  Elec       q    Type
REMARK                         _______ _______ _______ _____ _____    ______ ____
ROOT
ATOM      1  C   UNL     1       4.330   5.301  18.733  0.00  0.00    +0.000 A 
ATOM      2  C   UNL     1       3.649   6.428  18.303  0.00  0.00    +0.000 A 
ATOM      3  N   UNL     1       2.441   6.484  18.949  0.00  0.00    +0.000 N 
ATOM      4  C   UNL     1       2.235   5.308  19.648  0.00  0.00    +0.000 A 
ATOM      5  C   UNL     1       1.140   4.857  20.405  0.00  0.00    +0.000 A 
ATOM      6  C   UNL     1       1.230   3.605  21.020  0.00  0.00    +0.000 A 
ATOM      7  C   UNL     1       2.374   2.824  20.892  0.00  0.00    +0.000 A 
ATOM      8  C   UNL     1       3.463   3.284  20.147  0.00  0.00    +0.000 A 
ATOM      9  C   UNL     1       3.398   4.541  19.508  0.00  0.00    +0.000 A 
ENDROOT
BRANCH   1  11
ATOM     10  O   UNL     1       6.583   4.948  19.350  0.00  0.00    +0.000 OA
ATOM     11  C   UNL     1       5.736   4.985  18.464  0.00  0.00    +0.000 C 
BRANCH  11  12
ATOM     12  C   UNL     1       6.131   4.789  17.041  0.00  0.00    +0.000 A 
ATOM     13  C   UNL     1       7.125   5.594  16.455  0.00  0.00    +0.000 A 
ATOM     14  C   UNL     1       7.444   5.455  15.104  0.00  0.00    +0.000 A 
ATOM     15  C   UNL     1       6.809   4.482  14.338  0.00  0.00    +0.000 A 
ATOM     16  C   UNL     1       5.860   3.646  14.923  0.00  0.00    +0.000 A 
ATOM     17  C   UNL     1       5.522   3.802  16.271  0.00  0.00    +0.000 A 
ATOM     18  F   UNL     1       4.577   3.000  16.780  0.00  0.00    +0.000 F 
ENDBRANCH  11  12
ENDBRANCH   1  11
BRANCH   3  19
ATOM     19  C   UNL     1       1.504   7.599  18.841  0.00  0.00    +0.000 C 
BRANCH  19  20
ATOM     20  C   UNL     1       1.411   8.471  20.092  0.00  0.00    +0.000 C 
ATOM     21  O   UNL     1       1.713   8.056  21.213  0.00  0.00    +0.000 OA
ATOM     22  N   UNL     1       1.029   9.803  19.892  0.00  0.00    +0.000 N 
ATOM     23  C   UNL     1       1.058  10.730  21.024  0.00  0.00    +0.000 C 
ATOM     24  C   UNL     1      -0.360  11.039  21.500  0.00  0.00    +0.000 C 
ATOM     25  C   UNL     1      -1.225  11.544  20.344  0.00  0.00    +0.000 C 
ATOM     26  C   UNL     1      -1.174  10.581  19.154  0.00  0.00    +0.000 C 
ATOM     27  C   UNL     1       0.271  10.292  18.740  0.00  0.00    +0.000 C 
ENDBRANCH  19  20
ENDBRANCH   3  19
TORSDOF 4
ENDMDL
