MODEL 1
REMARK VINA RESULT:      -6.7      0.000      0.000
REMARK  Name = 
REMARK  15 active torsions:
REMARK  status: ('A' for Active; 'I' for Inactive)
REMARK    1  A    between atoms: C_1  and  C_2
REMARK    2  A    between atoms: C_2  and  O_3
REMARK    3  A    between atoms: O_3  and  C_4
REMARK    4  A    between atoms: C_6  and  N_7
REMARK    5  A    between atoms: C_8  and  C_10
REMARK    6  A    between atoms: C_10  and  C_11
REMARK    7  A    between atoms: C_11  and  C_12
REMARK    8  A    between atoms: C_11  and  C_13
REMARK    9  A    between atoms: C_14  and  O_15
REMARK   10  A    between atoms: O_15  and  C_16
REMARK   11  A    between atoms: C_16  and  C_17
REMARK   12  A    between atoms: C_19  and  N_20
REMARK   13  A    between atoms: C_21  and  S_22
REMARK   14  A    between atoms: N_23  and  C_24
REMARK   15  A    between atoms: C_28  and  C_29
REMARK                            x       y       z     vdW  Elec       q    Type
REMARK                         _______ _______ _______ _____ _____    ______ ____
ROOT
ATOM      1  C   UNL     1      -0.888  11.332  20.502  0.00  0.00    +0.000 A 
ATOM      2  C   UNL     1      -2.032  12.142  20.576  0.00  0.00    +0.000 A 
ATOM      3  C   UNL     1      -2.941  12.203  19.523  0.00  0.00    +0.000 A 
ATOM      4  C   UNL     1      -2.687  11.456  18.364  0.00  0.00    +0.000 A 
ATOM      5  C   UNL     1      -1.605  10.579  18.335  0.00  0.00    +0.000 A 
ATOM      6  C   UNL     1      -0.675  10.515  19.378  0.00  0.00    +0.000 A 
ENDROOT
BRANCH   3   7
ATOM      7  N   UNL     1      -4.164  12.919  19.589  0.00  0.00    +0.000 N 
ATOM      8  C   UNL     1      -5.131  12.828  20.576  0.00  0.00    +0.000 C 
ATOM      9  O   UNL     1      -5.021  12.243  21.646  0.00  0.00    +0.000 OA
ATOM     10  H   UNL     1      -4.378  13.449  18.750  0.00  0.00    +0.000 HD
BRANCH   8  11
ATOM     11  C   UNL     1      -6.431  13.531  20.237  0.00  0.00    +0.000 C 
BRANCH  11  12
ATOM     12  C   UNL     1      -6.549  13.975  18.769  0.00  0.00    +0.000 C 
ATOM     13  C   UNL     1      -7.729  13.315  18.051  0.00  0.00    +0.000 C 
ATOM     14  C   UNL     1      -6.702  15.497  18.703  0.00  0.00    +0.000 C 
ENDBRANCH  11  12
ENDBRANCH   8  11
ENDBRANCH   3   7
BRANCH   6  15
ATOM     15  N   UNL     1       0.319   9.522  19.382  0.00  0.00    +0.000 NA
ATOM     16  C   UNL     1       1.484   9.606  18.822  0.00  0.00    +0.000 C 
ATOM     17  N   UNL     1       2.432   8.621  18.888  0.00  0.00    +0.000 N 
ATOM     18  H   UNL     1       3.391   8.938  18.888  0.00  0.00    +0.000 HD
BRANCH  17  19
ATOM     19  C   UNL     1       2.223   7.267  19.188  0.00  0.00    +0.000 A 
ATOM     20  C   UNL     1       1.871   6.899  20.491  0.00  0.00    +0.000 A 
ATOM     21  C   UNL     1       1.604   5.569  20.813  0.00  0.00    +0.000 A 
ATOM     22  C   UNL     1       1.686   4.579  19.831  0.00  0.00    +0.000 A 
ATOM     23  C   UNL     1       2.052   4.914  18.527  0.00  0.00    +0.000 A 
ATOM     24  C   UNL     1       2.124   3.875  17.447  0.00  0.00    +0.000 C 
ATOM     25  C   UNL     1       2.316   6.256  18.219  0.00  0.00    +0.000 A 
ENDBRANCH  17  19
BRANCH  16  26
ATOM     26  S   UNL     1       2.073  10.993  17.910  0.00  0.00    +0.000 S 
ATOM     27  H   UNL     1       2.765  11.528  18.929  0.00  0.00    +0.000 HD
ENDBRANCH  16  26
ENDBRANCH   6  15
BRANCH   1  28
ATOM     28  O   UNL     1      -0.148  11.355  21.655  0.00  0.00    +0.000 OA
BRANCH  28  30
ATOM     29  C   UNL     1      -0.067   9.468  23.099  0.00  0.00    +0.000 C 
ATOM     30  C   UNL     1      -0.750  10.801  22.821  0.00  0.00    +0.000 C 
ENDBRANCH  28  30
ENDBRANCH   1  28
BRANCH   4  31
ATOM     31  O   UNL     1      -3.588  11.624  17.335  0.00  0.00    +0.000 OA
BRANCH  31  32
ATOM     32  C   UNL     1      -3.817  10.508  16.473  0.00  0.00    +0.000 C 
ATOM     33  C   UNL     1      -3.169  10.828  15.142  0.00  0.00    +0.000 C 
ENDBRANCH  31  32
ENDBRANCH   4  31
TORSDOF 10
ENDMDL
MODEL 2
REMARK VINA RESULT:      -6.6      3.985      9.079
REMARK  Name = 
REMARK  15 active torsions:
REMARK  status: ('A' for Active; 'I' for Inactive)
REMARK    1  A    between atoms: C_1  and  C_2
REMARK    2  A    between atoms: C_2  and  O_3
REMARK    3  A    between atoms: O_3  and  C_4
REMARK    4  A    between atoms: C_6  and  N_7
REMARK    5  A    between atoms: C_8  and  C_10
REMARK    6  A    between atoms: C_10  and  C_11
REMARK    7  A    between atoms: C_11  and  C_12
REMARK    8  A    between atoms: C_11  and  C_13
REMARK    9  A    between atoms: C_14  and  O_15
REMARK   10  A    between atoms: O_15  and  C_16
REMARK   11  A    between atoms: C_16  and  C_17
REMARK   12  A    between atoms: C_19  and  N_20
REMARK   13  A    between atoms: C_21  and  S_22
REMARK   14  A    between atoms: N_23  and  C_24
REMARK   15  A    between atoms: C_28  and  C_29
REMARK                            x       y       z     vdW  Elec       q    Type
REMARK                         _______ _______ _______ _____ _____    ______ ____
ROOT
ATOM      1  C   UNL     1       1.184   8.967  20.820  0.00  0.00    +0.000 A 
ATOM      2  C   UNL     1       1.592   7.648  21.076  0.00  0.00    +0.000 A 
ATOM      3  C   UNL     1       2.124   6.850  20.067  0.00  0.00    +0.000 A 
ATOM      4  C   UNL     1       2.227   7.375  18.771  0.00  0.00    +0.000 A 
ATOM      5  C   UNL     1       1.915   8.714  18.545  0.00  0.00    +0.000 A 
ATOM      6  C   UNL     1       1.367   9.526  19.544  0.00  0.00    +0.000 A 
ENDROOT
BRANCH   3   7
ATOM      7  N   UNL     1       2.650   5.552  20.295  0.00  0.00    +0.000 N 
ATOM      8  C   UNL     1       1.931   4.387  20.503  0.00  0.00    +0.000 C 
ATOM      9  O   UNL     1       0.723   4.246  20.358  0.00  0.00    +0.000 OA
ATOM     10  H   UNL     1       3.654   5.532  20.438  0.00  0.00    +0.000 HD
BRANCH   8  11
ATOM     11  C   UNL     1       2.773   3.213  20.963  0.00  0.00    +0.000 C 
BRANCH  11  12
ATOM     12  C   UNL     1       3.762   2.689  19.909  0.00  0.00    +0.000 C 
ATOM     13  C   UNL     1       4.799   1.733  20.503  0.00  0.00    +0.000 C 
ATOM     14  C   UNL     1       2.993   1.973  18.795  0.00  0.00    +0.000 C 
ENDBRANCH  11  12
ENDBRANCH   8  11
ENDBRANCH   3   7
BRANCH   6  15
ATOM     15  N   UNL     1       1.198  10.903  19.324  0.00  0.00    +0.000 NA
ATOM     16  C   UNL     1       0.141  11.476  18.842  0.00  0.00    +0.000 C 
ATOM     17  N   UNL     1       0.015  12.829  18.683  0.00  0.00    +0.000 N 
ATOM     18  H   UNL     1      -0.919  13.196  18.795  0.00  0.00    +0.000 HD
BRANCH  17  19
ATOM     19  C   UNL     1       1.051  13.772  18.619  0.00  0.00    +0.000 A 
ATOM     20  C   UNL     1       2.298  13.390  18.112  0.00  0.00    +0.000 A 
ATOM     21  C   UNL     1       3.334  14.313  17.985  0.00  0.00    +0.000 A 
ATOM     22  C   UNL     1       3.140  15.643  18.365  0.00  0.00    +0.000 A 
ATOM     23  C   UNL     1       1.913  16.050  18.890  0.00  0.00    +0.000 A 
ATOM     24  C   UNL     1       1.669  17.477  19.283  0.00  0.00    +0.000 C 
ATOM     25  C   UNL     1       0.880  15.109  19.010  0.00  0.00    +0.000 A 
ENDBRANCH  17  19
BRANCH  16  26
ATOM     26  S   UNL     1      -1.323  10.639  18.336  0.00  0.00    +0.000 S 
ATOM     27  H   UNL     1      -1.620  10.158  19.554  0.00  0.00    +0.000 HD
ENDBRANCH  16  26
ENDBRANCH   6  15
BRANCH   1  28
ATOM     28  O   UNL     1       0.747   9.614  21.947  0.00  0.00    +0.000 OA
BRANCH  28  30
ATOM     29  C   UNL     1      -1.095  10.559  23.115  0.00  0.00    +0.000 C 
ATOM     30  C   UNL     1      -0.578   9.327  22.384  0.00  0.00    +0.000 C 
ENDBRANCH  28  30
ENDBRANCH   1  28
BRANCH   4  31
ATOM     31  O   UNL     1       2.690   6.505  17.809  0.00  0.00    +0.000 OA
BRANCH  31  32
ATOM     32  C   UNL     1       3.998   6.739  17.283  0.00  0.00    +0.000 C 
ATOM     33  C   UNL     1       4.780   5.450  17.432  0.00  0.00    +0.000 C 
ENDBRANCH  31  32
ENDBRANCH   4  31
TORSDOF 10
ENDMDL
MODEL 3
REMARK VINA RESULT:      -6.5      3.828      8.960
REMARK  Name = 
REMARK  15 active torsions:
REMARK  status: ('A' for Active; 'I' for Inactive)
REMARK    1  A    between atoms: C_1  and  C_2
REMARK    2  A    between atoms: C_2  and  O_3
REMARK    3  A    between atoms: O_3  and  C_4
REMARK    4  A    between atoms: C_6  and  N_7
REMARK    5  A    between atoms: C_8  and  C_10
REMARK    6  A    between atoms: C_10  and  C_11
REMARK    7  A    between atoms: C_11  and  C_12
REMARK    8  A    between atoms: C_11  and  C_13
REMARK    9  A    between atoms: C_14  and  O_15
REMARK   10  A    between atoms: O_15  and  C_16
REMARK   11  A    between atoms: C_16  and  C_17
REMARK   12  A    between atoms: C_19  and  N_20
REMARK   13  A    between atoms: C_21  and  S_22
REMARK   14  A    between atoms: N_23  and  C_24
REMARK   15  A    between atoms: C_28  and  C_29
REMARK                            x       y       z     vdW  Elec       q    Type
REMARK                         _______ _______ _______ _____ _____    ______ ____
ROOT
ATOM      1  C   UNL     1       0.910   8.668  20.359  0.00  0.00    +0.000 A 
ATOM      2  C   UNL     1       1.442   7.398  20.631  0.00  0.00    +0.000 A 
ATOM      3  C   UNL     1       2.270   6.752  19.717  0.00  0.00    +0.000 A 
ATOM      4  C   UNL     1       2.551   7.381  18.495  0.00  0.00    +0.000 A 
ATOM      5  C   UNL     1       2.104   8.681  18.272  0.00  0.00    +0.000 A 
ATOM      6  C   UNL     1       1.261   9.339  19.174  0.00  0.00    +0.000 A 
ENDROOT
BRANCH   3   7
ATOM      7  N   UNL     1       2.919   5.519  19.986  0.00  0.00    +0.000 N 
ATOM      8  C   UNL     1       2.367   4.252  19.904  0.00  0.00    +0.000 C 
ATOM      9  O   UNL     1       1.278   3.966  19.422  0.00  0.00    +0.000 OA
ATOM     10  H   UNL     1       3.841   5.619  20.398  0.00  0.00    +0.000 HD
BRANCH   8  11
ATOM     11  C   UNL     1       3.236   3.158  20.493  0.00  0.00    +0.000 C 
BRANCH  11  12
ATOM     12  C   UNL     1       4.211   2.514  19.493  0.00  0.00    +0.000 C 
ATOM     13  C   UNL     1       3.500   1.610  18.483  0.00  0.00    +0.000 C 
ATOM     14  C   UNL     1       4.975   3.608  18.743  0.00  0.00    +0.000 C 
ENDBRANCH  11  12
ENDBRANCH   8  11
ENDBRANCH   3   7
BRANCH   6  15
ATOM     15  N   UNL     1       0.945  10.695  18.990  0.00  0.00    +0.000 NA
ATOM     16  C   UNL     1      -0.097  11.161  18.378  0.00  0.00    +0.000 C 
ATOM     17  N   UNL     1      -0.377  12.495  18.258  0.00  0.00    +0.000 N 
ATOM     18  H   UNL     1      -1.357  12.736  18.243  0.00  0.00    +0.000 HD
BRANCH  17  19
ATOM     19  C   UNL     1       0.525  13.561  18.391  0.00  0.00    +0.000 A 
ATOM     20  C   UNL     1       0.061  14.801  18.844  0.00  0.00    +0.000 A 
ATOM     21  C   UNL     1       0.938  15.867  19.038  0.00  0.00    +0.000 A 
ATOM     22  C   UNL     1       2.302  15.710  18.781  0.00  0.00    +0.000 A 
ATOM     23  C   UNL     1       2.790  14.491  18.311  0.00  0.00    +0.000 A 
ATOM     24  C   UNL     1       4.254  14.287  18.050  0.00  0.00    +0.000 C 
ATOM     25  C   UNL     1       1.896  13.428  18.123  0.00  0.00    +0.000 A 
ENDBRANCH  17  19
BRANCH  16  26
ATOM     26  S   UNL     1      -1.350  10.180  17.622  0.00  0.00    +0.000 S 
ATOM     27  H   UNL     1      -2.322  11.098  17.752  0.00  0.00    +0.000 HD
ENDBRANCH  16  26
ENDBRANCH   6  15
BRANCH   1  28
ATOM     28  O   UNL     1       0.173   9.167  21.400  0.00  0.00    +0.000 OA
BRANCH  28  30
ATOM     29  C   UNL     1      -0.224   9.679  23.687  0.00  0.00    +0.000 C 
ATOM     30  C   UNL     1       0.828   9.282  22.660  0.00  0.00    +0.000 C 
ENDBRANCH  28  30
ENDBRANCH   1  28
BRANCH   4  31
ATOM     31  O   UNL     1       3.313   6.652  17.609  0.00  0.00    +0.000 OA
BRANCH  31  32
ATOM     32  C   UNL     1       4.604   7.164  17.273  0.00  0.00    +0.000 C 
ATOM     33  C   UNL     1       5.117   6.356  16.099  0.00  0.00    +0.000 C 
ENDBRANCH  31  32
ENDBRANCH   4  31
TORSDOF 10
ENDMDL
MODEL 4
REMARK VINA RESULT:      -6.4      0.717      1.029
REMARK  Name = 
REMARK  15 active torsions:
REMARK  status: ('A' for Active; 'I' for Inactive)
REMARK    1  A    between atoms: C_1  and  C_2
REMARK    2  A    between atoms: C_2  and  O_3
REMARK    3  A    between atoms: O_3  and  C_4
REMARK    4  A    between atoms: C_6  and  N_7
REMARK    5  A    between atoms: C_8  and  C_10
REMARK    6  A    between atoms: C_10  and  C_11
REMARK    7  A    between atoms: C_11  and  C_12
REMARK    8  A    between atoms: C_11  and  C_13
REMARK    9  A    between atoms: C_14  and  O_15
REMARK   10  A    between atoms: O_15  and  C_16
REMARK   11  A    between atoms: C_16  and  C_17
REMARK   12  A    between atoms: C_19  and  N_20
REMARK   13  A    between atoms: C_21  and  S_22
REMARK   14  A    between atoms: N_23  and  C_24
REMARK   15  A    between atoms: C_28  and  C_29
REMARK                            x       y       z     vdW  Elec       q    Type
REMARK                         _______ _______ _______ _____ _____    ______ ____
ROOT
ATOM      1  C   UNL     1      -0.831  11.193  20.104  0.00  0.00    +0.000 A 
ATOM      2  C   UNL     1      -1.971  12.012  20.096  0.00  0.00    +0.000 A 
ATOM      3  C   UNL     1      -2.865  11.991  19.029  0.00  0.00    +0.000 A 
ATOM      4  C   UNL     1      -2.599  11.152  17.937  0.00  0.00    +0.000 A 
ATOM      5  C   UNL     1      -1.521  10.270  17.996  0.00  0.00    +0.000 A 
ATOM      6  C   UNL     1      -0.607  10.287  19.054  0.00  0.00    +0.000 A 
ENDROOT
BRANCH   3   7
ATOM      7  N   UNL     1      -4.085  12.716  19.018  0.00  0.00    +0.000 N 
ATOM      8  C   UNL     1      -5.111  12.633  19.944  0.00  0.00    +0.000 C 
ATOM      9  O   UNL     1      -5.071  12.049  21.020  0.00  0.00    +0.000 OA
ATOM     10  H   UNL     1      -4.243  13.245  18.167  0.00  0.00    +0.000 HD
BRANCH   8  11
ATOM     11  C   UNL     1      -6.383  13.345  19.525  0.00  0.00    +0.000 C 
BRANCH  11  12
ATOM     12  C   UNL     1      -7.224  12.583  18.488  0.00  0.00    +0.000 C 
ATOM     13  C   UNL     1      -7.087  13.167  17.079  0.00  0.00    +0.000 C 
ATOM     14  C   UNL     1      -6.805  11.110  18.468  0.00  0.00    +0.000 C 
ENDBRANCH  11  12
ENDBRANCH   8  11
ENDBRANCH   3   7
BRANCH   6  15
ATOM     15  N   UNL     1       0.382   9.294  19.152  0.00  0.00    +0.000 NA
ATOM     16  C   UNL     1       1.607   9.392  18.743  0.00  0.00    +0.000 C 
ATOM     17  N   UNL     1       2.542   8.404  18.897  0.00  0.00    +0.000 N 
ATOM     18  H   UNL     1       3.492   8.720  19.025  0.00  0.00    +0.000 HD
BRANCH  17  19
ATOM     19  C   UNL     1       2.301   7.043  19.132  0.00  0.00    +0.000 A 
ATOM     20  C   UNL     1       1.941   6.620  20.416  0.00  0.00    +0.000 A 
ATOM     21  C   UNL     1       1.642   5.282  20.672  0.00  0.00    +0.000 A 
ATOM     22  C   UNL     1       1.699   4.340  19.643  0.00  0.00    +0.000 A 
ATOM     23  C   UNL     1       2.072   4.730  18.356  0.00  0.00    +0.000 A 
ATOM     24  C   UNL     1       2.116   3.743  17.226  0.00  0.00    +0.000 C 
ATOM     25  C   UNL     1       2.367   6.078  18.114  0.00  0.00    +0.000 A 
ENDBRANCH  17  19
BRANCH  16  26
ATOM     26  S   UNL     1       2.300  10.803  17.950  0.00  0.00    +0.000 S 
ATOM     27  H   UNL     1       1.449  10.794  16.911  0.00  0.00    +0.000 HD
ENDBRANCH  16  26
ENDBRANCH   6  15
BRANCH   1  28
ATOM     28  O   UNL     1      -0.107  11.306  21.263  0.00  0.00    +0.000 OA
BRANCH  28  30
ATOM     29  C   UNL     1      -1.141  10.488  23.241  0.00  0.00    +0.000 C 
ATOM     30  C   UNL     1      -0.811  11.732  22.426  0.00  0.00    +0.000 C 
ENDBRANCH  28  30
ENDBRANCH   1  28
BRANCH   4  31
ATOM     31  O   UNL     1      -3.483  11.240  16.885  0.00  0.00    +0.000 OA
BRANCH  31  32
ATOM     32  C   UNL     1      -3.772  10.040  16.165  0.00  0.00    +0.000 C 
ATOM     33  C   UNL     1      -3.347  10.264  14.729  0.00  0.00    +0.000 C 
ENDBRANCH  31  32
ENDBRANCH   4  31
TORSDOF 10
ENDMDL
MODEL 5
REMARK VINA RESULT:      -6.4      4.026      8.834
REMARK  Name = 
REMARK  15 active torsions:
REMARK  status: ('A' for Active; 'I' for Inactive)
REMARK    1  A    between atoms: C_1  and  C_2
REMARK    2  A    between atoms: C_2  and  O_3
REMARK    3  A    between atoms: O_3  and  C_4
REMARK    4  A    between atoms: C_6  and  N_7
REMARK    5  A    between atoms: C_8  and  C_10
REMARK    6  A    between atoms: C_10  and  C_11
REMARK    7  A    between atoms: C_11  and  C_12
REMARK    8  A    between atoms: C_11  and  C_13
REMARK    9  A    between atoms: C_14  and  O_15
REMARK   10  A    between atoms: O_15  and  C_16
REMARK   11  A    between atoms: C_16  and  C_17
REMARK   12  A    between atoms: C_19  and  N_20
REMARK   13  A    between atoms: C_21  and  S_22
REMARK   14  A    between atoms: N_23  and  C_24
REMARK   15  A    between atoms: C_28  and  C_29
REMARK                            x       y       z     vdW  Elec       q    Type
REMARK                         _______ _______ _______ _____ _____    ______ ____
ROOT
ATOM      1  C   UNL     1       1.140   8.736  21.150  0.00  0.00    +0.000 A 
ATOM      2  C   UNL     1       1.578   7.409  21.279  0.00  0.00    +0.000 A 
ATOM      3  C   UNL     1       2.140   6.727  20.204  0.00  0.00    +0.000 A 
ATOM      4  C   UNL     1       2.243   7.379  18.966  0.00  0.00    +0.000 A 
ATOM      5  C   UNL     1       1.899   8.726  18.870  0.00  0.00    +0.000 A 
ATOM      6  C   UNL     1       1.321   9.422  19.937  0.00  0.00    +0.000 A 
ENDROOT
BRANCH   3   7
ATOM      7  N   UNL     1       2.696   5.426  20.309  0.00  0.00    +0.000 N 
ATOM      8  C   UNL     1       2.007   4.236  20.473  0.00  0.00    +0.000 C 
ATOM      9  O   UNL     1       0.795   4.083  20.385  0.00  0.00    +0.000 OA
ATOM     10  H   UNL     1       3.707   5.414  20.394  0.00  0.00    +0.000 HD
BRANCH   8  11
ATOM     11  C   UNL     1       2.891   3.048  20.801  0.00  0.00    +0.000 C 
BRANCH  11  12
ATOM     12  C   UNL     1       3.616   2.442  19.589  0.00  0.00    +0.000 C 
ATOM     13  C   UNL     1       2.699   2.289  18.373  0.00  0.00    +0.000 C 
ATOM     14  C   UNL     1       4.812   3.323  19.212  0.00  0.00    +0.000 C 
ENDBRANCH  11  12
ENDBRANCH   8  11
ENDBRANCH   3   7
BRANCH   6  15
ATOM     15  N   UNL     1       1.119  10.810  19.852  0.00  0.00    +0.000 NA
ATOM     16  C   UNL     1       0.086  11.401  19.341  0.00  0.00    +0.000 C 
ATOM     17  N   UNL     1      -0.077  12.760  19.317  0.00  0.00    +0.000 N 
ATOM     18  H   UNL     1      -1.031  13.086  19.385  0.00  0.00    +0.000 HD
BRANCH  17  19
ATOM     19  C   UNL     1       0.924  13.733  19.448  0.00  0.00    +0.000 A 
ATOM     20  C   UNL     1       1.166  14.308  20.700  0.00  0.00    +0.000 A 
ATOM     21  C   UNL     1       2.188  15.239  20.877  0.00  0.00    +0.000 A 
ATOM     22  C   UNL     1       2.991  15.613  19.798  0.00  0.00    +0.000 A 
ATOM     23  C   UNL     1       2.763  15.070  18.533  0.00  0.00    +0.000 A 
ATOM     24  C   UNL     1       3.626  15.435  17.361  0.00  0.00    +0.000 C 
ATOM     25  C   UNL     1       1.732  14.134  18.372  0.00  0.00    +0.000 A 
ENDBRANCH  17  19
BRANCH  16  26
ATOM     26  S   UNL     1      -1.296  10.584  18.620  0.00  0.00    +0.000 S 
ATOM     27  H   UNL     1      -1.869  10.252  19.788  0.00  0.00    +0.000 HD
ENDBRANCH  16  26
ENDBRANCH   6  15
BRANCH   1  28
ATOM     28  O   UNL     1       0.675   9.258  22.329  0.00  0.00    +0.000 OA
BRANCH  28  30
ATOM     29  C   UNL     1      -1.096  10.675  23.037  0.00  0.00    +0.000 C 
ATOM     30  C   UNL     1      -0.737   9.292  22.510  0.00  0.00    +0.000 C 
ENDBRANCH  28  30
ENDBRANCH   1  28
BRANCH   4  31
ATOM     31  O   UNL     1       2.737   6.620  17.929  0.00  0.00    +0.000 OA
BRANCH  31  32
ATOM     32  C   UNL     1       3.982   7.020  17.355  0.00  0.00    +0.000 C 
ATOM     33  C   UNL     1       4.579   5.801  16.682  0.00  0.00    +0.000 C 
ENDBRANCH  31  32
ENDBRANCH   4  31
TORSDOF 10
ENDMDL
MODEL 6
REMARK VINA RESULT:      -6.3      0.761      1.071
REMARK  Name = 
REMARK  15 active torsions:
REMARK  status: ('A' for Active; 'I' for Inactive)
REMARK    1  A    between atoms: C_1  and  C_2
REMARK    2  A    between atoms: C_2  and  O_3
REMARK    3  A    between atoms: O_3  and  C_4
REMARK    4  A    between atoms: C_6  and  N_7
REMARK    5  A    between atoms: C_8  and  C_10
REMARK    6  A    between atoms: C_10  and  C_11
REMARK    7  A    between atoms: C_11  and  C_12
REMARK    8  A    between atoms: C_11  and  C_13
REMARK    9  A    between atoms: C_14  and  O_15
REMARK   10  A    between atoms: O_15  and  C_16
REMARK   11  A    between atoms: C_16  and  C_17
REMARK   12  A    between atoms: C_19  and  N_20
REMARK   13  A    between atoms: C_21  and  S_22
REMARK   14  A    between atoms: N_23  and  C_24
REMARK   15  A    between atoms: C_28  and  C_29
REMARK                            x       y       z     vdW  Elec       q    Type
REMARK                         _______ _______ _______ _____ _____    ______ ____
ROOT
ATOM      1  C   UNL     1      -0.659  11.240  20.408  0.00  0.00    +0.000 A 
ATOM      2  C   UNL     1      -1.780  12.079  20.512  0.00  0.00    +0.000 A 
ATOM      3  C   UNL     1      -2.739  12.128  19.504  0.00  0.00    +0.000 A 
ATOM      4  C   UNL     1      -2.559  11.340  18.358  0.00  0.00    +0.000 A 
ATOM      5  C   UNL     1      -1.500  10.437  18.304  0.00  0.00    +0.000 A 
ATOM      6  C   UNL     1      -0.521  10.384  19.302  0.00  0.00    +0.000 A 
ENDROOT
BRANCH   3   7
ATOM      7  N   UNL     1      -3.942  12.874  19.607  0.00  0.00    +0.000 N 
ATOM      8  C   UNL     1      -4.868  12.825  20.635  0.00  0.00    +0.000 C 
ATOM      9  O   UNL     1      -4.726  12.257  21.710  0.00  0.00    +0.000 OA
ATOM     10  H   UNL     1      -4.178  13.393  18.767  0.00  0.00    +0.000 HD
BRANCH   8  11
ATOM     11  C   UNL     1      -6.164  13.552  20.336  0.00  0.00    +0.000 C 
BRANCH  11  12
ATOM     12  C   UNL     1      -7.376  12.630  20.124  0.00  0.00    +0.000 C 
ATOM     13  C   UNL     1      -7.036  11.403  19.275  0.00  0.00    +0.000 C 
ATOM     14  C   UNL     1      -7.917  12.172  21.482  0.00  0.00    +0.000 C 
ENDBRANCH  11  12
ENDBRANCH   8  11
ENDBRANCH   3   7
BRANCH   6  15
ATOM     15  N   UNL     1       0.451   9.369  19.289  0.00  0.00    +0.000 NA
ATOM     16  C   UNL     1       1.606   9.425  18.706  0.00  0.00    +0.000 C 
ATOM     17  N   UNL     1       2.533   8.419  18.756  0.00  0.00    +0.000 N 
ATOM     18  H   UNL     1       3.498   8.714  18.737  0.00  0.00    +0.000 HD
BRANCH  17  19
ATOM     19  C   UNL     1       2.299   7.070  19.063  0.00  0.00    +0.000 A 
ATOM     20  C   UNL     1       1.952   6.714  20.371  0.00  0.00    +0.000 A 
ATOM     21  C   UNL     1       1.661   5.391  20.700  0.00  0.00    +0.000 A 
ATOM     22  C   UNL     1       1.712   4.397  19.721  0.00  0.00    +0.000 A 
ATOM     23  C   UNL     1       2.072   4.719  18.412  0.00  0.00    +0.000 A 
ATOM     24  C   UNL     1       2.111   3.675  17.335  0.00  0.00    +0.000 C 
ATOM     25  C   UNL     1       2.360   6.054  18.097  0.00  0.00    +0.000 A 
ENDBRANCH  17  19
BRANCH  16  26
ATOM     26  S   UNL     1       2.209  10.796  17.780  0.00  0.00    +0.000 S 
ATOM     27  H   UNL     1       1.270  10.722  16.822  0.00  0.00    +0.000 HD
ENDBRANCH  16  26
ENDBRANCH   6  15
BRANCH   1  28
ATOM     28  O   UNL     1       0.137  11.281  21.523  0.00  0.00    +0.000 OA
BRANCH  28  30
ATOM     29  C   UNL     1      -0.615   9.916  23.317  0.00  0.00    +0.000 C 
ATOM     30  C   UNL     1       0.392  10.044  22.181  0.00  0.00    +0.000 C 
ENDBRANCH  28  30
ENDBRANCH   1  28
BRANCH   4  31
ATOM     31  O   UNL     1      -3.506  11.497  17.370  0.00  0.00    +0.000 OA
BRANCH  31  32
ATOM     32  C   UNL     1      -3.735  10.390  16.495  0.00  0.00    +0.000 C 
ATOM     33  C   UNL     1      -3.185  10.771  15.136  0.00  0.00    +0.000 C 
ENDBRANCH  31  32
ENDBRANCH   4  31
TORSDOF 10
ENDMDL
MODEL 7
REMARK VINA RESULT:      -6.3      0.765      1.408
REMARK  Name = 
REMARK  15 active torsions:
REMARK  status: ('A' for Active; 'I' for Inactive)
REMARK    1  A    between atoms: C_1  and  C_2
REMARK    2  A    between atoms: C_2  and  O_3
REMARK    3  A    between atoms: O_3  and  C_4
REMARK    4  A    between atoms: C_6  and  N_7
REMARK    5  A    between atoms: C_8  and  C_10
REMARK    6  A    between atoms: C_10  and  C_11
REMARK    7  A    between atoms: C_11  and  C_12
REMARK    8  A    between atoms: C_11  and  C_13
REMARK    9  A    between atoms: C_14  and  O_15
REMARK   10  A    between atoms: O_15  and  C_16
REMARK   11  A    between atoms: C_16  and  C_17
REMARK   12  A    between atoms: C_19  and  N_20
REMARK   13  A    between atoms: C_21  and  S_22
REMARK   14  A    between atoms: N_23  and  C_24
REMARK   15  A    between atoms: C_28  and  C_29
REMARK                            x       y       z     vdW  Elec       q    Type
REMARK                         _______ _______ _______ _____ _____    ______ ____
ROOT
ATOM      1  C   UNL     1      -0.504  11.047  20.482  0.00  0.00    +0.000 A 
ATOM      2  C   UNL     1      -1.595  11.916  20.643  0.00  0.00    +0.000 A 
ATOM      3  C   UNL     1      -2.535  12.089  19.630  0.00  0.00    +0.000 A 
ATOM      4  C   UNL     1      -2.364  11.397  18.422  0.00  0.00    +0.000 A 
ATOM      5  C   UNL     1      -1.338  10.463  18.305  0.00  0.00    +0.000 A 
ATOM      6  C   UNL     1      -0.379  10.285  19.307  0.00  0.00    +0.000 A 
ENDROOT
BRANCH   3   7
ATOM      7  N   UNL     1      -3.710  12.870  19.781  0.00  0.00    +0.000 N 
ATOM      8  C   UNL     1      -4.590  12.852  20.850  0.00  0.00    +0.000 C 
ATOM      9  O   UNL     1      -4.416  12.287  21.922  0.00  0.00    +0.000 OA
ATOM     10  H   UNL     1      -3.970  13.390  18.950  0.00  0.00    +0.000 HD
BRANCH   8  11
ATOM     11  C   UNL     1      -5.878  13.614  20.605  0.00  0.00    +0.000 C 
BRANCH  11  12
ATOM     12  C   UNL     1      -6.818  12.958  19.581  0.00  0.00    +0.000 C 
ATOM     13  C   UNL     1      -7.463  11.676  20.115  0.00  0.00    +0.000 C 
ATOM     14  C   UNL     1      -7.916  13.948  19.184  0.00  0.00    +0.000 C 
ENDBRANCH  11  12
ENDBRANCH   8  11
ENDBRANCH   3   7
BRANCH   6  15
ATOM     15  N   UNL     1       0.554   9.239  19.219  0.00  0.00    +0.000 NA
ATOM     16  C   UNL     1       1.728   9.306  18.674  0.00  0.00    +0.000 C 
ATOM     17  N   UNL     1       2.615   8.264  18.648  0.00  0.00    +0.000 N 
ATOM     18  H   UNL     1       3.590   8.521  18.683  0.00  0.00    +0.000 HD
BRANCH  17  19
ATOM     19  C   UNL     1       2.322   6.902  18.814  0.00  0.00    +0.000 A 
ATOM     20  C   UNL     1       1.984   6.130  17.697  0.00  0.00    +0.000 A 
ATOM     21  C   UNL     1       1.739   4.763  17.818  0.00  0.00    +0.000 A 
ATOM     22  C   UNL     1       1.829   4.141  19.065  0.00  0.00    +0.000 A 
ATOM     23  C   UNL     1       2.147   4.889  20.200  0.00  0.00    +0.000 A 
ATOM     24  C   UNL     1       2.275   4.242  21.548  0.00  0.00    +0.000 C 
ATOM     25  C   UNL     1       2.393   6.262  20.062  0.00  0.00    +0.000 A 
ENDBRANCH  17  19
BRANCH  16  26
ATOM     26  S   UNL     1       2.408  10.736  17.904  0.00  0.00    +0.000 S 
ATOM     27  H   UNL     1       1.277  11.459  17.962  0.00  0.00    +0.000 HD
ENDBRANCH  16  26
ENDBRANCH   6  15
BRANCH   1  28
ATOM     28  O   UNL     1       0.274  10.960  21.607  0.00  0.00    +0.000 OA
BRANCH  28  30
ATOM     29  C   UNL     1      -0.333   9.030  22.855  0.00  0.00    +0.000 C 
ATOM     30  C   UNL     1      -0.371  10.553  22.809  0.00  0.00    +0.000 C 
ENDBRANCH  28  30
ENDBRANCH   1  28
BRANCH   4  31
ATOM     31  O   UNL     1      -3.287  11.676  17.439  0.00  0.00    +0.000 OA
BRANCH  31  32
ATOM     32  C   UNL     1      -3.724  10.590  16.619  0.00  0.00    +0.000 C 
ATOM     33  C   UNL     1      -3.193  10.840  15.223  0.00  0.00    +0.000 C 
ENDBRANCH  31  32
ENDBRANCH   4  31
TORSDOF 10
ENDMDL
MODEL 8
REMARK VINA RESULT:      -6.2      3.625      5.077
REMARK  Name = 
REMARK  15 active torsions:
REMARK  status: ('A' for Active; 'I' for Inactive)
REMARK    1  A    between atoms: C_1  and  C_2
REMARK    2  A    between atoms: C_2  and  O_3
REMARK    3  A    between atoms: O_3  and  C_4
REMARK    4  A    between atoms: C_6  and  N_7
REMARK    5  A    between atoms: C_8  and  C_10
REMARK    6  A    between atoms: C_10  and  C_11
REMARK    7  A    between atoms: C_11  and  C_12
REMARK    8  A    between atoms: C_11  and  C_13
REMARK    9  A    between atoms: C_14  and  O_15
REMARK   10  A    between atoms: O_15  and  C_16
REMARK   11  A    between atoms: C_16  and  C_17
REMARK   12  A    between atoms: C_19  and  N_20
REMARK   13  A    between atoms: C_21  and  S_22
REMARK   14  A    between atoms: N_23  and  C_24
REMARK   15  A    between atoms: C_28  and  C_29
REMARK                            x       y       z     vdW  Elec       q    Type
REMARK                         _______ _______ _______ _____ _____    ______ ____
ROOT
ATOM      1  C   UNL     1      -0.612  10.995  19.094  0.00  0.00    +0.000 A 
ATOM      2  C   UNL     1      -0.887  12.333  18.771  0.00  0.00    +0.000 A 
ATOM      3  C   UNL     1       0.040  13.341  19.023  0.00  0.00    +0.000 A 
ATOM      4  C   UNL     1       1.257  13.005  19.635  0.00  0.00    +0.000 A 
ATOM      5  C   UNL     1       1.565  11.665  19.861  0.00  0.00    +0.000 A 
ATOM      6  C   UNL     1       0.640  10.642  19.625  0.00  0.00    +0.000 A 
ENDROOT
BRANCH   3   7
ATOM      7  N   UNL     1      -0.142  14.689  18.619  0.00  0.00    +0.000 N 
ATOM      8  C   UNL     1      -0.678  15.719  19.374  0.00  0.00    +0.000 C 
ATOM      9  O   UNL     1      -0.929  15.685  20.572  0.00  0.00    +0.000 OA
ATOM     10  H   UNL     1       0.031  14.851  17.633  0.00  0.00    +0.000 HD
BRANCH   8  11
ATOM     11  C   UNL     1      -0.970  16.979  18.582  0.00  0.00    +0.000 C 
BRANCH  11  12
ATOM     12  C   UNL     1       0.220  17.505  17.764  0.00  0.00    +0.000 C 
ATOM     13  C   UNL     1      -0.180  18.628  16.804  0.00  0.00    +0.000 C 
ATOM     14  C   UNL     1       1.310  18.014  18.712  0.00  0.00    +0.000 C 
ENDBRANCH  11  12
ENDBRANCH   8  11
ENDBRANCH   3   7
BRANCH   6  15
ATOM     15  N   UNL     1       1.030   9.296  19.728  0.00  0.00    +0.000 NA
ATOM     16  C   UNL     1       1.202   8.633  20.827  0.00  0.00    +0.000 C 
ATOM     17  N   UNL     1       1.548   7.309  20.871  0.00  0.00    +0.000 N 
ATOM     18  H   UNL     1       1.181   6.789  21.654  0.00  0.00    +0.000 HD
BRANCH  17  19
ATOM     19  C   UNL     1       2.143   6.558  19.847  0.00  0.00    +0.000 A 
ATOM     20  C   UNL     1       1.783   5.216  19.682  0.00  0.00    +0.000 A 
ATOM     21  C   UNL     1       2.315   4.454  18.642  0.00  0.00    +0.000 A 
ATOM     22  C   UNL     1       3.219   5.026  17.745  0.00  0.00    +0.000 A 
ATOM     23  C   UNL     1       3.609   6.357  17.895  0.00  0.00    +0.000 A 
ATOM     24  C   UNL     1       4.560   7.003  16.931  0.00  0.00    +0.000 C 
ATOM     25  C   UNL     1       3.065   7.110  18.944  0.00  0.00    +0.000 A 
ENDBRANCH  17  19
BRANCH  16  26
ATOM     26  S   UNL     1       0.999   9.289  22.449  0.00  0.00    +0.000 S 
ATOM     27  H   UNL     1       0.167   8.323  22.871  0.00  0.00    +0.000 HD
ENDBRANCH  16  26
ENDBRANCH   6  15
BRANCH   1  28
ATOM     28  O   UNL     1      -1.615  10.142  18.714  0.00  0.00    +0.000 OA
BRANCH  28  30
ATOM     29  C   UNL     1      -3.344   9.992  17.089  0.00  0.00    +0.000 C 
ATOM     30  C   UNL     1      -1.837   9.988  17.315  0.00  0.00    +0.000 C 
ENDBRANCH  28  30
ENDBRANCH   1  28
BRANCH   4  31
ATOM     31  O   UNL     1       2.092  14.061  19.925  0.00  0.00    +0.000 OA
BRANCH  31  32
ATOM     32  C   UNL     1       3.277  14.198  19.138  0.00  0.00    +0.000 C 
ATOM     33  C   UNL     1       4.247  15.049  19.932  0.00  0.00    +0.000 C 
ENDBRANCH  31  32
ENDBRANCH   4  31
TORSDOF 10
ENDMDL
MODEL 9
REMARK VINA RESULT:      -6.2      3.888      8.840
REMARK  Name = 
REMARK  15 active torsions:
REMARK  status: ('A' for Active; 'I' for Inactive)
REMARK    1  A    between atoms: C_1  and  C_2
REMARK    2  A    between atoms: C_2  and  O_3
REMARK    3  A    between atoms: O_3  and  C_4
REMARK    4  A    between atoms: C_6  and  N_7
REMARK    5  A    between atoms: C_8  and  C_10
REMARK    6  A    between atoms: C_10  and  C_11
REMARK    7  A    between atoms: C_11  and  C_12
REMARK    8  A    between atoms: C_11  and  C_13
REMARK    9  A    between atoms: C_14  and  O_15
REMARK   10  A    between atoms: O_15  and  C_16
REMARK   11  A    between atoms: C_16  and  C_17
REMARK   12  A    between atoms: C_19  and  N_20
REMARK   13  A    between atoms: C_21  and  S_22
REMARK   14  A    between atoms: N_23  and  C_24
REMARK   15  A    between atoms: C_28  and  C_29
REMARK                            x       y       z     vdW  Elec       q    Type
REMARK                         _______ _______ _______ _____ _____    ______ ____
ROOT
ATOM      1  C   UNL     1       1.005   9.463  21.318  0.00  0.00    +0.000 A 
ATOM      2  C   UNL     1       1.440   8.135  21.453  0.00  0.00    +0.000 A 
ATOM      3  C   UNL     1       1.894   7.410  20.354  0.00  0.00    +0.000 A 
ATOM      4  C   UNL     1       1.888   8.019  19.091  0.00  0.00    +0.000 A 
ATOM      5  C   UNL     1       1.550   9.366  18.979  0.00  0.00    +0.000 A 
ATOM      6  C   UNL     1       1.080  10.105  20.070  0.00  0.00    +0.000 A 
ENDROOT
BRANCH   3   7
ATOM      7  N   UNL     1       2.444   6.106  20.453  0.00  0.00    +0.000 N 
ATOM      8  C   UNL     1       1.749   4.917  20.595  0.00  0.00    +0.000 C 
ATOM      9  O   UNL     1       0.538   4.769  20.490  0.00  0.00    +0.000 OA
ATOM     10  H   UNL     1       3.454   6.090  20.552  0.00  0.00    +0.000 HD
BRANCH   8  11
ATOM     11  C   UNL     1       2.624   3.723  20.923  0.00  0.00    +0.000 C 
BRANCH  11  12
ATOM     12  C   UNL     1       3.268   3.053  19.699  0.00  0.00    +0.000 C 
ATOM     13  C   UNL     1       4.510   2.235  20.064  0.00  0.00    +0.000 C 
ATOM     14  C   UNL     1       2.246   2.141  19.015  0.00  0.00    +0.000 C 
ENDBRANCH  11  12
ENDBRANCH   8  11
ENDBRANCH   3   7
BRANCH   6  15
ATOM     15  N   UNL     1       0.885  11.492  19.955  0.00  0.00    +0.000 NA
ATOM     16  C   UNL     1      -0.204  12.081  19.578  0.00  0.00    +0.000 C 
ATOM     17  N   UNL     1      -0.353  13.441  19.519  0.00  0.00    +0.000 N 
ATOM     18  H   UNL     1      -1.281  13.786  19.712  0.00  0.00    +0.000 HD
BRANCH  17  19
ATOM     19  C   UNL     1       0.669  14.399  19.457  0.00  0.00    +0.000 A 
ATOM     20  C   UNL     1       0.487  15.548  18.681  0.00  0.00    +0.000 A 
ATOM     21  C   UNL     1       1.460  16.547  18.639  0.00  0.00    +0.000 A 
ATOM     22  C   UNL     1       2.637  16.411  19.377  0.00  0.00    +0.000 A 
ATOM     23  C   UNL     1       2.854  15.268  20.147  0.00  0.00    +0.000 A 
ATOM     24  C   UNL     1       4.099  15.107  20.969  0.00  0.00    +0.000 C 
ATOM     25  C   UNL     1       1.866  14.274  20.180  0.00  0.00    +0.000 A 
ENDBRANCH  17  19
BRANCH  16  26
ATOM     26  S   UNL     1      -1.689  11.261  19.104  0.00  0.00    +0.000 S 
ATOM     27  H   UNL     1      -2.459  12.359  19.151  0.00  0.00    +0.000 HD
ENDBRANCH  16  26
ENDBRANCH   6  15
BRANCH   1  28
ATOM     28  O   UNL     1       0.656  10.030  22.516  0.00  0.00    +0.000 OA
BRANCH  28  30
ATOM     29  C   UNL     1      -1.275  11.318  23.025  0.00  0.00    +0.000 C 
ATOM     30  C   UNL     1      -0.704   9.910  22.917  0.00  0.00    +0.000 C 
ENDBRANCH  28  30
ENDBRANCH   1  28
BRANCH   4  31
ATOM     31  O   UNL     1       2.277   7.218  18.040  0.00  0.00    +0.000 OA
BRANCH  31  32
ATOM     32  C   UNL     1       3.576   7.440  17.488  0.00  0.00    +0.000 C 
ATOM     33  C   UNL     1       4.245   6.087  17.357  0.00  0.00    +0.000 C 
ENDBRANCH  31  32
ENDBRANCH   4  31
TORSDOF 10
ENDMDL
