MODEL 1
REMARK VINA RESULT:      -5.9      0.000      0.000
REMARK  Name = 
REMARK  6 active torsions:
REMARK  status: ('A' for Active; 'I' for Inactive)
REMARK    1  A    between atoms: C_1  and  C_2
REMARK    2  A    between atoms: C_6  and  O_7
REMARK    3  A    between atoms: O_7  and  P_8
REMARK    4  A    between atoms: P_8  and  N_9
REMARK    5  A    between atoms: P_8  and  N_10
REMARK    6  A    between atoms: C_12  and  C_13
REMARK                            x       y       z     vdW  Elec       q    Type
REMARK                         _______ _______ _______ _____ _____    ______ ____
ROOT
ATOM      1  O   UNL     1       5.260   4.535  18.274  0.00  0.00    +0.000 OA
ENDROOT
BRANCH   1   7
ATOM      2  C   UNL     1       1.930   2.949  21.514  0.00  0.00    +0.000 C 
ATOM      3  C   UNL     1       2.490   4.009  20.604  0.00  0.00    +0.000 A 
ATOM      4  C   UNL     1       1.877   5.270  20.563  0.00  0.00    +0.000 A 
ATOM      5  C   UNL     1       2.375   6.278  19.739  0.00  0.00    +0.000 A 
ATOM      6  C   UNL     1       3.498   6.042  18.946  0.00  0.00    +0.000 A 
ATOM      7  C   UNL     1       4.119   4.795  18.979  0.00  0.00    +0.000 A 
ATOM      8  C   UNL     1       3.622   3.762  19.796  0.00  0.00    +0.000 A 
ATOM      9  C   UNL     1       4.280   2.404  19.810  0.00  0.00    +0.000 C 
ENDBRANCH   1   7
BRANCH   1  10
ATOM     10  P   UNL     1       6.697   5.200  18.528  0.00  0.00    +0.000 P 
ATOM     11  O   UNL     1       7.056   5.405  19.963  0.00  0.00    +0.000 OA
BRANCH  10  12
ATOM     12  N   UNL     1       7.712   4.161  17.777  0.00  0.00    +0.000 NA
ATOM     13  H   UNL     1       7.629   4.268  16.771  0.00  0.00    +0.000 HD
ATOM     14  H   UNL     1       7.385   3.215  17.956  0.00  0.00    +0.000 HD
ENDBRANCH  10  12
BRANCH  10  15
ATOM     15  N   UNL     1       6.816   6.481  17.534  0.00  0.00    +0.000 NA
ATOM     16  H   UNL     1       7.397   7.213  17.922  0.00  0.00    +0.000 HD
ATOM     17  H   UNL     1       5.901   6.893  17.395  0.00  0.00    +0.000 HD
ENDBRANCH  10  15
ENDBRANCH   1  10
TORSDOF 4
ENDMDL
MODEL 2
REMARK VINA RESULT:      -5.9      1.042      1.252
REMARK  Name = 
REMARK  6 active torsions:
REMARK  status: ('A' for Active; 'I' for Inactive)
REMARK    1  A    between atoms: C_1  and  C_2
REMARK    2  A    between atoms: C_6  and  O_7
REMARK    3  A    between atoms: O_7  and  P_8
REMARK    4  A    between atoms: P_8  and  N_9
REMARK    5  A    between atoms: P_8  and  N_10
REMARK    6  A    between atoms: C_12  and  C_13
REMARK                            x       y       z     vdW  Elec       q    Type
REMARK                         _______ _______ _______ _____ _____    ______ ____
ROOT
ATOM      1  O   UNL     1       5.261   4.424  18.166  0.00  0.00    +0.000 OA
ENDROOT
BRANCH   1   7
ATOM      2  C   UNL     1       2.000   3.074  21.580  0.00  0.00    +0.000 C 
ATOM      3  C   UNL     1       2.548   4.072  20.595  0.00  0.00    +0.000 A 
ATOM      4  C   UNL     1       1.950   5.337  20.497  0.00  0.00    +0.000 A 
ATOM      5  C   UNL     1       2.437   6.288  19.602  0.00  0.00    +0.000 A 
ATOM      6  C   UNL     1       3.536   5.992  18.796  0.00  0.00    +0.000 A 
ATOM      7  C   UNL     1       4.142   4.741  18.885  0.00  0.00    +0.000 A 
ATOM      8  C   UNL     1       3.655   3.764  19.773  0.00  0.00    +0.000 A 
ATOM      9  C   UNL     1       4.296   2.399  19.849  0.00  0.00    +0.000 C 
ENDBRANCH   1   7
BRANCH   1  10
ATOM     10  P   UNL     1       6.657   5.211  18.203  0.00  0.00    +0.000 P 
ATOM     11  O   UNL     1       6.660   6.531  17.505  0.00  0.00    +0.000 OA
BRANCH  10  12
ATOM     12  N   UNL     1       6.945   5.357  19.807  0.00  0.00    +0.000 NA
ATOM     13  H   UNL     1       7.239   6.305  20.017  0.00  0.00    +0.000 HD
ATOM     14  H   UNL     1       7.755   4.786  20.035  0.00  0.00    +0.000 HD
ENDBRANCH  10  12
BRANCH  10  15
ATOM     15  N   UNL     1       7.819   4.147  17.803  0.00  0.00    +0.000 NA
ATOM     16  H   UNL     1       8.320   4.424  16.969  0.00  0.00    +0.000 HD
ATOM     17  H   UNL     1       7.402   3.248  17.594  0.00  0.00    +0.000 HD
ENDBRANCH  10  15
ENDBRANCH   1  10
TORSDOF 4
ENDMDL
MODEL 3
REMARK VINA RESULT:      -5.8      1.516      2.237
REMARK  Name = 
REMARK  6 active torsions:
REMARK  status: ('A' for Active; 'I' for Inactive)
REMARK    1  A    between atoms: C_1  and  C_2
REMARK    2  A    between atoms: C_6  and  O_7
REMARK    3  A    between atoms: O_7  and  P_8
REMARK    4  A    between atoms: P_8  and  N_9
REMARK    5  A    between atoms: P_8  and  N_10
REMARK    6  A    between atoms: C_12  and  C_13
REMARK                            x       y       z     vdW  Elec       q    Type
REMARK                         _______ _______ _______ _____ _____    ______ ____
ROOT
ATOM      1  O   UNL     1       5.639   4.927  17.473  0.00  0.00    +0.000 OA
ENDROOT
BRANCH   1   7
ATOM      2  C   UNL     1       1.843   5.419  20.547  0.00  0.00    +0.000 C 
ATOM      3  C   UNL     1       2.700   5.914  19.413  0.00  0.00    +0.000 A 
ATOM      4  C   UNL     1       2.425   7.166  18.843  0.00  0.00    +0.000 A 
ATOM      5  C   UNL     1       3.204   7.660  17.799  0.00  0.00    +0.000 A 
ATOM      6  C   UNL     1       4.275   6.912  17.310  0.00  0.00    +0.000 A 
ATOM      7  C   UNL     1       4.562   5.668  17.869  0.00  0.00    +0.000 A 
ATOM      8  C   UNL     1       3.778   5.148  18.916  0.00  0.00    +0.000 A 
ATOM      9  C   UNL     1       4.073   3.789  19.502  0.00  0.00    +0.000 C 
ENDBRANCH   1   7
BRANCH   1  10
ATOM     10  P   UNL     1       7.165   5.417  17.457  0.00  0.00    +0.000 P 
ATOM     11  O   UNL     1       7.504   6.403  16.388  0.00  0.00    +0.000 OA
BRANCH  10  12
ATOM     12  N   UNL     1       7.358   6.039  18.958  0.00  0.00    +0.000 NA
ATOM     13  H   UNL     1       6.614   5.709  19.564  0.00  0.00    +0.000 HD
ATOM     14  H   UNL     1       7.212   7.044  18.905  0.00  0.00    +0.000 HD
ENDBRANCH  10  12
BRANCH  10  15
ATOM     15  N   UNL     1       8.098   4.091  17.579  0.00  0.00    +0.000 NA
ATOM     16  H   UNL     1       9.083   4.319  17.613  0.00  0.00    +0.000 HD
ATOM     17  H   UNL     1       7.974   3.510  16.759  0.00  0.00    +0.000 HD
ENDBRANCH  10  15
ENDBRANCH   1  10
TORSDOF 4
ENDMDL
MODEL 4
REMARK VINA RESULT:      -5.8      1.614      2.012
REMARK  Name = 
REMARK  6 active torsions:
REMARK  status: ('A' for Active; 'I' for Inactive)
REMARK    1  A    between atoms: C_1  and  C_2
REMARK    2  A    between atoms: C_6  and  O_7
REMARK    3  A    between atoms: O_7  and  P_8
REMARK    4  A    between atoms: P_8  and  N_9
REMARK    5  A    between atoms: P_8  and  N_10
REMARK    6  A    between atoms: C_12  and  C_13
REMARK                            x       y       z     vdW  Elec       q    Type
REMARK                         _______ _______ _______ _____ _____    ______ ____
ROOT
ATOM      1  O   UNL     1       6.089   5.192  18.324  0.00  0.00    +0.000 OA
ENDROOT
BRANCH   1   7
ATOM      2  C   UNL     1       1.481   3.992  19.520  0.00  0.00    +0.000 C 
ATOM      3  C   UNL     1       2.488   4.929  18.908  0.00  0.00    +0.000 A 
ATOM      4  C   UNL     1       2.053   6.158  18.390  0.00  0.00    +0.000 A 
ATOM      5  C   UNL     1       2.959   7.054  17.825  0.00  0.00    +0.000 A 
ATOM      6  C   UNL     1       4.316   6.737  17.775  0.00  0.00    +0.000 A 
ATOM      7  C   UNL     1       4.763   5.521  18.288  0.00  0.00    +0.000 A 
ATOM      8  C   UNL     1       3.860   4.599  18.851  0.00  0.00    +0.000 A 
ATOM      9  C   UNL     1       4.342   3.271  19.382  0.00  0.00    +0.000 C 
ENDBRANCH   1   7
BRANCH   1  10
ATOM     10  P   UNL     1       7.032   4.941  17.052  0.00  0.00    +0.000 P 
ATOM     11  O   UNL     1       7.503   6.176  16.358  0.00  0.00    +0.000 OA
BRANCH  10  12
ATOM     12  N   UNL     1       8.267   4.076  17.687  0.00  0.00    +0.000 NA
ATOM     13  H   UNL     1       8.945   3.865  16.961  0.00  0.00    +0.000 HD
ATOM     14  H   UNL     1       7.906   3.168  17.966  0.00  0.00    +0.000 HD
ENDBRANCH  10  12
BRANCH  10  15
ATOM     15  N   UNL     1       6.321   3.794  16.145  0.00  0.00    +0.000 NA
ATOM     16  H   UNL     1       5.501   4.142  15.664  0.00  0.00    +0.000 HD
ATOM     17  H   UNL     1       5.999   3.040  16.739  0.00  0.00    +0.000 HD
ENDBRANCH  10  15
ENDBRANCH   1  10
TORSDOF 4
ENDMDL
MODEL 5
REMARK VINA RESULT:      -5.8      1.817      1.898
REMARK  Name = 
REMARK  6 active torsions:
REMARK  status: ('A' for Active; 'I' for Inactive)
REMARK    1  A    between atoms: C_1  and  C_2
REMARK    2  A    between atoms: C_6  and  O_7
REMARK    3  A    between atoms: O_7  and  P_8
REMARK    4  A    between atoms: P_8  and  N_9
REMARK    5  A    between atoms: P_8  and  N_10
REMARK    6  A    between atoms: C_12  and  C_13
REMARK                            x       y       z     vdW  Elec       q    Type
REMARK                         _______ _______ _______ _____ _____    ______ ____
ROOT
ATOM      1  O   UNL     1       5.660   5.020  16.946  0.00  0.00    +0.000 OA
ENDROOT
BRANCH   1   7
ATOM      2  C   UNL     1       1.234   3.725  18.631  0.00  0.00    +0.000 C 
ATOM      3  C   UNL     1       2.244   4.767  18.231  0.00  0.00    +0.000 A 
ATOM      4  C   UNL     1       1.926   6.125  18.384  0.00  0.00    +0.000 A 
ATOM      5  C   UNL     1       2.841   7.115  18.032  0.00  0.00    +0.000 A 
ATOM      6  C   UNL     1       4.093   6.763  17.527  0.00  0.00    +0.000 A 
ATOM      7  C   UNL     1       4.424   5.418  17.372  0.00  0.00    +0.000 A 
ATOM      8  C   UNL     1       3.507   4.406  17.711  0.00  0.00    +0.000 A 
ATOM      9  C   UNL     1       3.857   2.950  17.518  0.00  0.00    +0.000 C 
ENDBRANCH   1   7
BRANCH   1  10
ATOM     10  P   UNL     1       7.053   5.332  17.676  0.00  0.00    +0.000 P 
ATOM     11  O   UNL     1       7.007   5.307  19.168  0.00  0.00    +0.000 OA
BRANCH  10  12
ATOM     12  N   UNL     1       8.043   4.181  17.066  0.00  0.00    +0.000 NA
ATOM     13  H   UNL     1       8.108   3.405  17.717  0.00  0.00    +0.000 HD
ATOM     14  H   UNL     1       8.986   4.561  17.033  0.00  0.00    +0.000 HD
ENDBRANCH  10  12
BRANCH  10  15
ATOM     15  N   UNL     1       7.683   6.652  16.966  0.00  0.00    +0.000 NA
ATOM     16  H   UNL     1       6.969   7.248  16.566  0.00  0.00    +0.000 HD
ATOM     17  H   UNL     1       8.280   6.374  16.197  0.00  0.00    +0.000 HD
ENDBRANCH  10  15
ENDBRANCH   1  10
TORSDOF 4
ENDMDL
MODEL 6
REMARK VINA RESULT:      -5.8      1.633      1.853
REMARK  Name = 
REMARK  6 active torsions:
REMARK  status: ('A' for Active; 'I' for Inactive)
REMARK    1  A    between atoms: C_1  and  C_2
REMARK    2  A    between atoms: C_6  and  O_7
REMARK    3  A    between atoms: O_7  and  P_8
REMARK    4  A    between atoms: P_8  and  N_9
REMARK    5  A    between atoms: P_8  and  N_10
REMARK    6  A    between atoms: C_12  and  C_13
REMARK                            x       y       z     vdW  Elec       q    Type
REMARK                         _______ _______ _______ _____ _____    ______ ____
ROOT
ATOM      1  O   UNL     1       5.967   4.746  19.350  0.00  0.00    +0.000 OA
ENDROOT
BRANCH   1   7
ATOM      2  C   UNL     1       1.595   2.576  18.815  0.00  0.00    +0.000 C 
ATOM      3  C   UNL     1       2.525   3.744  18.623  0.00  0.00    +0.000 A 
ATOM      4  C   UNL     1       2.039   4.914  18.019  0.00  0.00    +0.000 A 
ATOM      5  C   UNL     1       2.869   6.018  17.835  0.00  0.00    +0.000 A 
ATOM      6  C   UNL     1       4.198   5.972  18.256  0.00  0.00    +0.000 A 
ATOM      7  C   UNL     1       4.694   4.818  18.859  0.00  0.00    +0.000 A 
ATOM      8  C   UNL     1       3.872   3.690  19.043  0.00  0.00    +0.000 A 
ATOM      9  C   UNL     1       4.418   2.431  19.672  0.00  0.00    +0.000 C 
ENDBRANCH   1   7
BRANCH   1  10
ATOM     10  P   UNL     1       7.276   5.368  18.667  0.00  0.00    +0.000 P 
ATOM     11  O   UNL     1       7.086   6.705  18.031  0.00  0.00    +0.000 OA
BRANCH  10  12
ATOM     12  N   UNL     1       8.341   5.416  19.908  0.00  0.00    +0.000 NA
ATOM     13  H   UNL     1       7.998   6.042  20.629  0.00  0.00    +0.000 HD
ATOM     14  H   UNL     1       9.194   5.859  19.575  0.00  0.00    +0.000 HD
ENDBRANCH  10  12
BRANCH  10  15
ATOM     15  N   UNL     1       7.949   4.196  17.762  0.00  0.00    +0.000 NA
ATOM     16  H   UNL     1       7.343   3.900  17.008  0.00  0.00    +0.000 HD
ATOM     17  H   UNL     1       8.110   3.374  18.332  0.00  0.00    +0.000 HD
ENDBRANCH  10  15
ENDBRANCH   1  10
TORSDOF 4
ENDMDL
MODEL 7
REMARK VINA RESULT:      -5.8      1.548      1.785
REMARK  Name = 
REMARK  6 active torsions:
REMARK  status: ('A' for Active; 'I' for Inactive)
REMARK    1  A    between atoms: C_1  and  C_2
REMARK    2  A    between atoms: C_6  and  O_7
REMARK    3  A    between atoms: O_7  and  P_8
REMARK    4  A    between atoms: P_8  and  N_9
REMARK    5  A    between atoms: P_8  and  N_10
REMARK    6  A    between atoms: C_12  and  C_13
REMARK                            x       y       z     vdW  Elec       q    Type
REMARK                         _______ _______ _______ _____ _____    ______ ____
ROOT
ATOM      1  O   UNL     1       5.444   3.900  18.848  0.00  0.00    +0.000 OA
ENDROOT
BRANCH   1   7
ATOM      2  C   UNL     1       0.796   2.317  18.810  0.00  0.00    +0.000 C 
ATOM      3  C   UNL     1       1.837   3.359  19.124  0.00  0.00    +0.000 A 
ATOM      4  C   UNL     1       1.448   4.542  19.770  0.00  0.00    +0.000 A 
ATOM      5  C   UNL     1       2.386   5.523  20.084  0.00  0.00    +0.000 A 
ATOM      6  C   UNL     1       3.730   5.335  19.763  0.00  0.00    +0.000 A 
ATOM      7  C   UNL     1       4.131   4.163  19.123  0.00  0.00    +0.000 A 
ATOM      8  C   UNL     1       3.195   3.167  18.788  0.00  0.00    +0.000 A 
ATOM      9  C   UNL     1       3.627   1.911  18.071  0.00  0.00    +0.000 C 
ENDBRANCH   1   7
BRANCH   1  10
ATOM     10  P   UNL     1       6.547   4.976  18.408  0.00  0.00    +0.000 P 
ATOM     11  O   UNL     1       6.025   6.139  17.629  0.00  0.00    +0.000 OA
BRANCH  10  12
ATOM     12  N   UNL     1       7.199   5.429  19.838  0.00  0.00    +0.000 NA
ATOM     13  H   UNL     1       6.583   6.090  20.301  0.00  0.00    +0.000 HD
ATOM     14  H   UNL     1       8.042   5.964  19.646  0.00  0.00    +0.000 HD
ENDBRANCH  10  12
BRANCH  10  15
ATOM     15  N   UNL     1       7.798   4.151  17.776  0.00  0.00    +0.000 NA
ATOM     16  H   UNL     1       8.334   4.710  17.125  0.00  0.00    +0.000 HD
ATOM     17  H   UNL     1       7.453   3.359  17.248  0.00  0.00    +0.000 HD
ENDBRANCH  10  15
ENDBRANCH   1  10
TORSDOF 4
ENDMDL
MODEL 8
REMARK VINA RESULT:      -5.8      1.746      1.865
REMARK  Name = 
REMARK  6 active torsions:
REMARK  status: ('A' for Active; 'I' for Inactive)
REMARK    1  A    between atoms: C_1  and  C_2
REMARK    2  A    between atoms: C_6  and  O_7
REMARK    3  A    between atoms: O_7  and  P_8
REMARK    4  A    between atoms: P_8  and  N_9
REMARK    5  A    between atoms: P_8  and  N_10
REMARK    6  A    between atoms: C_12  and  C_13
REMARK                            x       y       z     vdW  Elec       q    Type
REMARK                         _______ _______ _______ _____ _____    ______ ____
ROOT
ATOM      1  O   UNL     1       3.829   4.216  17.217  0.00  0.00    +0.000 OA
ENDROOT
BRANCH   1   7
ATOM      2  C   UNL     1       1.303   2.820  21.188  0.00  0.00    +0.000 C 
ATOM      3  C   UNL     1       1.877   3.884  20.292  0.00  0.00    +0.000 A 
ATOM      4  C   UNL     1       1.728   5.233  20.649  0.00  0.00    +0.000 A 
ATOM      5  C   UNL     1       2.256   6.244  19.847  0.00  0.00    +0.000 A 
ATOM      6  C   UNL     1       2.946   5.922  18.679  0.00  0.00    +0.000 A 
ATOM      7  C   UNL     1       3.104   4.586  18.314  0.00  0.00    +0.000 A 
ATOM      8  C   UNL     1       2.568   3.553  19.105  0.00  0.00    +0.000 A 
ATOM      9  C   UNL     1       2.717   2.108  18.695  0.00  0.00    +0.000 C 
ENDBRANCH   1   7
BRANCH   1  10
ATOM     10  P   UNL     1       5.382   4.524  16.966  0.00  0.00    +0.000 P 
ATOM     11  O   UNL     1       5.705   5.948  16.655  0.00  0.00    +0.000 OA
BRANCH  10  12
ATOM     12  N   UNL     1       6.078   4.020  18.359  0.00  0.00    +0.000 NA
ATOM     13  H   UNL     1       6.455   4.817  18.861  0.00  0.00    +0.000 HD
ATOM     14  H   UNL     1       6.895   3.464  18.120  0.00  0.00    +0.000 HD
ENDBRANCH  10  12
BRANCH  10  15
ATOM     15  N   UNL     1       5.939   3.388  15.945  0.00  0.00    +0.000 NA
ATOM     16  H   UNL     1       6.721   2.876  16.333  0.00  0.00    +0.000 HD
ATOM     17  H   UNL     1       6.284   3.827  15.100  0.00  0.00    +0.000 HD
ENDBRANCH  10  15
ENDBRANCH   1  10
TORSDOF 4
ENDMDL
MODEL 9
REMARK VINA RESULT:      -5.7      1.767      1.897
REMARK  Name = 
REMARK  6 active torsions:
REMARK  status: ('A' for Active; 'I' for Inactive)
REMARK    1  A    between atoms: C_1  and  C_2
REMARK    2  A    between atoms: C_6  and  O_7
REMARK    3  A    between atoms: O_7  and  P_8
REMARK    4  A    between atoms: P_8  and  N_9
REMARK    5  A    between atoms: P_8  and  N_10
REMARK    6  A    between atoms: C_12  and  C_13
REMARK                            x       y       z     vdW  Elec       q    Type
REMARK                         _______ _______ _______ _____ _____    ______ ____
ROOT
ATOM      1  O   UNL     1       4.279   5.147  17.613  0.00  0.00    +0.000 OA
ENDROOT
BRANCH   1   7
ATOM      2  C   UNL     1       0.521   2.391  19.156  0.00  0.00    +0.000 C 
ATOM      3  C   UNL     1       1.406   3.603  19.269  0.00  0.00    +0.000 A 
ATOM      4  C   UNL     1       1.209   4.500  20.330  0.00  0.00    +0.000 A 
ATOM      5  C   UNL     1       2.017   5.627  20.469  0.00  0.00    +0.000 A 
ATOM      6  C   UNL     1       3.039   5.872  19.554  0.00  0.00    +0.000 A 
ATOM      7  C   UNL     1       3.249   4.989  18.497  0.00  0.00    +0.000 A 
ATOM      8  C   UNL     1       2.435   3.852  18.333  0.00  0.00    +0.000 A 
ATOM      9  C   UNL     1       2.646   2.911  17.173  0.00  0.00    +0.000 C 
ENDBRANCH   1   7
BRANCH   1  10
ATOM     10  P   UNL     1       5.831   4.896  17.921  0.00  0.00    +0.000 P 
ATOM     11  O   UNL     1       6.591   6.098  18.376  0.00  0.00    +0.000 OA
BRANCH  10  12
ATOM     12  N   UNL     1       5.786   3.723  19.061  0.00  0.00    +0.000 NA
ATOM     13  H   UNL     1       4.822   3.488  19.273  0.00  0.00    +0.000 HD
ATOM     14  H   UNL     1       6.147   4.112  19.928  0.00  0.00    +0.000 HD
ENDBRANCH  10  12
BRANCH  10  15
ATOM     15  N   UNL     1       6.439   4.052  16.672  0.00  0.00    +0.000 NA
ATOM     16  H   UNL     1       6.326   3.053  16.793  0.00  0.00    +0.000 HD
ATOM     17  H   UNL     1       7.437   4.214  16.602  0.00  0.00    +0.000 HD
ENDBRANCH  10  15
ENDBRANCH   1  10
TORSDOF 4
ENDMDL
