MODEL 1
REMARK VINA RESULT:      -8.9      0.000      0.000
REMARK  Name = 
REMARK  6 active torsions:
REMARK  status: ('A' for Active; 'I' for Inactive)
REMARK    1  A    between atoms: C_2  and  C_4
REMARK    2  A    between atoms: N_8  and  C_9
REMARK    3  A    between atoms: C_9  and  C_10
REMARK    4  A    between atoms: C_10  and  C_12
REMARK    5  A    between atoms: C_15  and  N_16
REMARK    6  A    between atoms: C_17  and  C_19
REMARK                            x       y       z     vdW  Elec       q    Type
REMARK                         _______ _______ _______ _____ _____    ______ ____
ROOT
ATOM      1  C   UNL     1       6.054   5.251  17.674  0.00  0.00    +0.000 A 
ATOM      2  C   UNL     1       6.133   6.401  16.894  0.00  0.00    +0.000 A 
ATOM      3  C   UNL     1       7.042   7.414  17.223  0.00  0.00    +0.000 A 
ATOM      4  C   UNL     1       7.883   7.315  18.335  0.00  0.00    +0.000 A 
ATOM      5  C   UNL     1       7.831   6.147  19.098  0.00  0.00    +0.000 A 
ATOM      6  C   UNL     1       6.922   5.128  18.773  0.00  0.00    +0.000 A 
ENDROOT
BRANCH   4   7
ATOM      7  N   UNL     1       8.792   8.336  18.702  0.00  0.00    +0.000 N 
ATOM      8  C   UNL     1       8.635   9.677  18.389  0.00  0.00    +0.000 C 
ATOM      9  O   UNL     1       7.676  10.157  17.786  0.00  0.00    +0.000 OA
ATOM     10  H   UNL     1       9.505   8.097  19.379  0.00  0.00    +0.000 HD
BRANCH   8  11
ATOM     11  C   UNL     1       9.681  10.624  18.860  0.00  0.00    +0.000 A 
ATOM     12  C   UNL     1      10.613  11.221  18.004  0.00  0.00    +0.000 A 
ATOM     13  C   UNL     1      11.529  12.148  18.518  0.00  0.00    +0.000 A 
ATOM     14  C   UNL     1      11.511  12.481  19.875  0.00  0.00    +0.000 A 
ATOM     15  C   UNL     1      10.579  11.893  20.727  0.00  0.00    +0.000 A 
ATOM     16  C   UNL     1       9.669  10.969  20.220  0.00  0.00    +0.000 A 
ENDBRANCH   8  11
ENDBRANCH   4   7
BRANCH   1  17
ATOM     17  C   UNL     1       5.080   4.143  17.410  0.00  0.00    +0.000 C 
ATOM     18  O   UNL     1       4.670   3.973  16.260  0.00  0.00    +0.000 OA
BRANCH  17  19
ATOM     19  C   UNL     1       4.609   3.219  18.517  0.00  0.00    +0.000 C 
BRANCH  19  24
ATOM     20  C   UNL     1       2.146   5.661  19.944  0.00  0.00    +0.000 A 
ATOM     21  C   UNL     1       1.235   4.824  20.580  0.00  0.00    +0.000 A 
ATOM     22  C   UNL     1       1.428   3.448  20.507  0.00  0.00    +0.000 A 
ATOM     23  C   UNL     1       2.530   2.937  19.822  0.00  0.00    +0.000 A 
ATOM     24  N   UNL     1       3.412   3.768  19.211  0.00  0.00    +0.000 N 
ATOM     25  C   UNL     1       3.209   5.110  19.229  0.00  0.00    +0.000 A 
BRANCH  20  27
ATOM     26  N   UNL     1       1.716   7.706  21.174  0.00  0.00    +0.000 N 
ATOM     27  C   UNL     1       2.076   7.130  19.993  0.00  0.00    +0.000 C 
ATOM     28  O   UNL     1       2.414   7.781  19.016  0.00  0.00    +0.000 OA
ATOM     29  H   UNL     1       1.793   8.716  21.237  0.00  0.00    +0.000 HD
ATOM     30  H   UNL     1       1.616   7.208  22.049  0.00  0.00    +0.000 HD
ENDBRANCH  20  27
ENDBRANCH  19  24
ENDBRANCH  17  19
ENDBRANCH   1  17
TORSDOF 6
ENDMDL
MODEL 2
REMARK VINA RESULT:      -8.8      4.060      7.491
REMARK  Name = 
REMARK  6 active torsions:
REMARK  status: ('A' for Active; 'I' for Inactive)
REMARK    1  A    between atoms: C_2  and  C_4
REMARK    2  A    between atoms: N_8  and  C_9
REMARK    3  A    between atoms: C_9  and  C_10
REMARK    4  A    between atoms: C_10  and  C_12
REMARK    5  A    between atoms: C_15  and  N_16
REMARK    6  A    between atoms: C_17  and  C_19
REMARK                            x       y       z     vdW  Elec       q    Type
REMARK                         _______ _______ _______ _____ _____    ______ ____
ROOT
ATOM      1  C   UNL     1       2.304   5.517  18.880  0.00  0.00    +0.000 A 
ATOM      2  C   UNL     1       2.492   6.736  18.235  0.00  0.00    +0.000 A 
ATOM      3  C   UNL     1       2.151   7.933  18.876  0.00  0.00    +0.000 A 
ATOM      4  C   UNL     1       1.608   7.949  20.164  0.00  0.00    +0.000 A 
ATOM      5  C   UNL     1       1.451   6.730  20.827  0.00  0.00    +0.000 A 
ATOM      6  C   UNL     1       1.791   5.526  20.189  0.00  0.00    +0.000 A 
ENDROOT
BRANCH   4   7
ATOM      7  N   UNL     1       1.232   9.144  20.822  0.00  0.00    +0.000 N 
ATOM      8  C   UNL     1       0.271  10.028  20.359  0.00  0.00    +0.000 C 
ATOM      9  O   UNL     1      -0.401   9.875  19.340  0.00  0.00    +0.000 OA
ATOM     10  H   UNL     1       1.561   9.269  21.772  0.00  0.00    +0.000 HD
BRANCH   8  11
ATOM     11  C   UNL     1      -0.010  11.236  21.180  0.00  0.00    +0.000 A 
ATOM     12  C   UNL     1       0.541  12.493  20.905  0.00  0.00    +0.000 A 
ATOM     13  C   UNL     1       0.179  13.593  21.692  0.00  0.00    +0.000 A 
ATOM     14  C   UNL     1      -0.731  13.442  22.742  0.00  0.00    +0.000 A 
ATOM     15  C   UNL     1      -1.286  12.194  23.012  0.00  0.00    +0.000 A 
ATOM     16  C   UNL     1      -0.926  11.097  22.233  0.00  0.00    +0.000 A 
ENDBRANCH   8  11
ENDBRANCH   4   7
BRANCH   1  17
ATOM     17  C   UNL     1       2.605   4.195  18.245  0.00  0.00    +0.000 C 
ATOM     18  O   UNL     1       1.804   3.729  17.431  0.00  0.00    +0.000 OA
BRANCH  17  19
ATOM     19  C   UNL     1       3.877   3.432  18.562  0.00  0.00    +0.000 C 
BRANCH  19  24
ATOM     20  C   UNL     1       6.612   4.808  16.395  0.00  0.00    +0.000 A 
ATOM     21  C   UNL     1       7.389   5.510  17.312  0.00  0.00    +0.000 A 
ATOM     22  C   UNL     1       6.984   5.546  18.642  0.00  0.00    +0.000 A 
ATOM     23  C   UNL     1       5.830   4.870  19.035  0.00  0.00    +0.000 A 
ATOM     24  N   UNL     1       5.085   4.186  18.130  0.00  0.00    +0.000 N 
ATOM     25  C   UNL     1       5.438   4.185  16.819  0.00  0.00    +0.000 A 
BRANCH  20  27
ATOM     26  N   UNL     1       6.359   3.654  14.279  0.00  0.00    +0.000 N 
ATOM     27  C   UNL     1       6.963   4.656  14.974  0.00  0.00    +0.000 C 
ATOM     28  O   UNL     1       7.710   5.469  14.450  0.00  0.00    +0.000 OA
ATOM     29  H   UNL     1       6.508   3.633  13.275  0.00  0.00    +0.000 HD
ATOM     30  H   UNL     1       5.597   3.088  14.631  0.00  0.00    +0.000 HD
ENDBRANCH  20  27
ENDBRANCH  19  24
ENDBRANCH  17  19
ENDBRANCH   1  17
TORSDOF 6
ENDMDL
MODEL 3
REMARK VINA RESULT:      -8.7      1.543      2.252
REMARK  Name = 
REMARK  6 active torsions:
REMARK  status: ('A' for Active; 'I' for Inactive)
REMARK    1  A    between atoms: C_2  and  C_4
REMARK    2  A    between atoms: N_8  and  C_9
REMARK    3  A    between atoms: C_9  and  C_10
REMARK    4  A    between atoms: C_10  and  C_12
REMARK    5  A    between atoms: C_15  and  N_16
REMARK    6  A    between atoms: C_17  and  C_19
REMARK                            x       y       z     vdW  Elec       q    Type
REMARK                         _______ _______ _______ _____ _____    ______ ____
ROOT
ATOM      1  C   UNL     1       6.121   5.409  17.389  0.00  0.00    +0.000 A 
ATOM      2  C   UNL     1       6.170   6.640  16.739  0.00  0.00    +0.000 A 
ATOM      3  C   UNL     1       7.041   7.640  17.187  0.00  0.00    +0.000 A 
ATOM      4  C   UNL     1       7.874   7.448  18.293  0.00  0.00    +0.000 A 
ATOM      5  C   UNL     1       7.854   6.203  18.925  0.00  0.00    +0.000 A 
ATOM      6  C   UNL     1       6.982   5.196  18.480  0.00  0.00    +0.000 A 
ENDROOT
BRANCH   4   7
ATOM      7  N   UNL     1       8.745   8.452  18.780  0.00  0.00    +0.000 N 
ATOM      8  C   UNL     1       8.703   9.783  18.394  0.00  0.00    +0.000 C 
ATOM      9  O   UNL     1       7.890  10.269  17.610  0.00  0.00    +0.000 OA
ATOM     10  H   UNL     1       9.315   8.218  19.584  0.00  0.00    +0.000 HD
BRANCH   8  11
ATOM     11  C   UNL     1       9.687  10.713  19.011  0.00  0.00    +0.000 A 
ATOM     12  C   UNL     1       9.627  11.108  20.353  0.00  0.00    +0.000 A 
ATOM     13  C   UNL     1      10.626  11.940  20.872  0.00  0.00    +0.000 A 
ATOM     14  C   UNL     1      11.681  12.370  20.062  0.00  0.00    +0.000 A 
ATOM     15  C   UNL     1      11.745  11.972  18.729  0.00  0.00    +0.000 A 
ATOM     16  C   UNL     1      10.752  11.146  18.208  0.00  0.00    +0.000 A 
ENDBRANCH   8  11
ENDBRANCH   4   7
BRANCH   1  17
ATOM     17  C   UNL     1       5.188   4.307  16.995  0.00  0.00    +0.000 C 
ATOM     18  O   UNL     1       5.653   3.189  16.760  0.00  0.00    +0.000 OA
BRANCH  17  19
ATOM     19  C   UNL     1       3.690   4.529  16.901  0.00  0.00    +0.000 C 
BRANCH  19  24
ATOM     20  C   UNL     1       2.206   4.543  20.345  0.00  0.00    +0.000 A 
ATOM     21  C   UNL     1       1.999   5.900  20.571  0.00  0.00    +0.000 A 
ATOM     22  C   UNL     1       2.382   6.807  19.588  0.00  0.00    +0.000 A 
ATOM     23  C   UNL     1       2.941   6.346  18.398  0.00  0.00    +0.000 A 
ATOM     24  N   UNL     1       3.131   5.018  18.190  0.00  0.00    +0.000 N 
ATOM     25  C   UNL     1       2.812   4.124  19.161  0.00  0.00    +0.000 A 
BRANCH  20  27
ATOM     26  N   UNL     1       0.711   2.735  20.957  0.00  0.00    +0.000 N 
ATOM     27  C   UNL     1       1.798   3.487  21.285  0.00  0.00    +0.000 C 
ATOM     28  O   UNL     1       2.480   3.268  22.275  0.00  0.00    +0.000 OA
ATOM     29  H   UNL     1       0.512   1.930  21.544  0.00  0.00    +0.000 HD
ATOM     30  H   UNL     1       0.242   2.763  20.061  0.00  0.00    +0.000 HD
ENDBRANCH  20  27
ENDBRANCH  19  24
ENDBRANCH  17  19
ENDBRANCH   1  17
TORSDOF 6
ENDMDL
MODEL 4
REMARK VINA RESULT:      -8.7      3.864      7.638
REMARK  Name = 
REMARK  6 active torsions:
REMARK  status: ('A' for Active; 'I' for Inactive)
REMARK    1  A    between atoms: C_2  and  C_4
REMARK    2  A    between atoms: N_8  and  C_9
REMARK    3  A    between atoms: C_9  and  C_10
REMARK    4  A    between atoms: C_10  and  C_12
REMARK    5  A    between atoms: C_15  and  N_16
REMARK    6  A    between atoms: C_17  and  C_19
REMARK                            x       y       z     vdW  Elec       q    Type
REMARK                         _______ _______ _______ _____ _____    ______ ____
ROOT
ATOM      1  C   UNL     1       2.559   5.156  19.091  0.00  0.00    +0.000 A 
ATOM      2  C   UNL     1       2.065   5.275  20.388  0.00  0.00    +0.000 A 
ATOM      3  C   UNL     1       1.640   6.520  20.868  0.00  0.00    +0.000 A 
ATOM      4  C   UNL     1       1.704   7.673  20.081  0.00  0.00    +0.000 A 
ATOM      5  C   UNL     1       2.165   7.550  18.769  0.00  0.00    +0.000 A 
ATOM      6  C   UNL     1       2.593   6.305  18.281  0.00  0.00    +0.000 A 
ENDROOT
BRANCH   4   7
ATOM      7  N   UNL     1       1.304   8.946  20.553  0.00  0.00    +0.000 N 
ATOM      8  C   UNL     1       0.146   9.188  21.275  0.00  0.00    +0.000 C 
ATOM      9  O   UNL     1      -0.662   8.330  21.627  0.00  0.00    +0.000 OA
ATOM     10  H   UNL     1       1.990   9.690  20.509  0.00  0.00    +0.000 HD
BRANCH   8  11
ATOM     11  C   UNL     1      -0.121  10.587  21.705  0.00  0.00    +0.000 A 
ATOM     12  C   UNL     1       0.460  11.700  21.087  0.00  0.00    +0.000 A 
ATOM     13  C   UNL     1       0.111  12.987  21.513  0.00  0.00    +0.000 A 
ATOM     14  C   UNL     1      -0.816  13.163  22.544  0.00  0.00    +0.000 A 
ATOM     15  C   UNL     1      -1.400  12.057  23.155  0.00  0.00    +0.000 A 
ATOM     16  C   UNL     1      -1.053  10.775  22.735  0.00  0.00    +0.000 A 
ENDBRANCH   8  11
ENDBRANCH   4   7
BRANCH   1  17
ATOM     17  C   UNL     1       3.069   3.869  18.521  0.00  0.00    +0.000 C 
ATOM     18  O   UNL     1       2.327   3.203  17.795  0.00  0.00    +0.000 OA
BRANCH  17  19
ATOM     19  C   UNL     1       4.479   3.381  18.796  0.00  0.00    +0.000 C 
BRANCH  19  24
ATOM     20  C   UNL     1       6.726   5.033  16.289  0.00  0.00    +0.000 A 
ATOM     21  C   UNL     1       7.453   5.915  17.082  0.00  0.00    +0.000 A 
ATOM     22  C   UNL     1       7.173   5.978  18.443  0.00  0.00    +0.000 A 
ATOM     23  C   UNL     1       6.192   5.151  18.988  0.00  0.00    +0.000 A 
ATOM     24  N   UNL     1       5.496   4.291  18.202  0.00  0.00    +0.000 N 
ATOM     25  C   UNL     1       5.720   4.256  16.864  0.00  0.00    +0.000 A 
BRANCH  20  27
ATOM     26  N   UNL     1       6.125   4.008  14.176  0.00  0.00    +0.000 N 
ATOM     27  C   UNL     1       6.966   4.841  14.850  0.00  0.00    +0.000 C 
ATOM     28  O   UNL     1       7.844   5.485  14.296  0.00  0.00    +0.000 OA
ATOM     29  H   UNL     1       6.216   3.979  13.165  0.00  0.00    +0.000 HD
ATOM     30  H   UNL     1       5.277   3.612  14.561  0.00  0.00    +0.000 HD
ENDBRANCH  20  27
ENDBRANCH  19  24
ENDBRANCH  17  19
ENDBRANCH   1  17
TORSDOF 6
ENDMDL
MODEL 5
REMARK VINA RESULT:      -8.6      3.358      7.217
REMARK  Name = 
REMARK  6 active torsions:
REMARK  status: ('A' for Active; 'I' for Inactive)
REMARK    1  A    between atoms: C_2  and  C_4
REMARK    2  A    between atoms: N_8  and  C_9
REMARK    3  A    between atoms: C_9  and  C_10
REMARK    4  A    between atoms: C_10  and  C_12
REMARK    5  A    between atoms: C_15  and  N_16
REMARK    6  A    between atoms: C_17  and  C_19
REMARK                            x       y       z     vdW  Elec       q    Type
REMARK                         _______ _______ _______ _____ _____    ______ ____
ROOT
ATOM      1  C   UNL     1       2.417   5.060  18.764  0.00  0.00    +0.000 A 
ATOM      2  C   UNL     1       2.636   6.310  18.190  0.00  0.00    +0.000 A 
ATOM      3  C   UNL     1       2.233   7.472  18.858  0.00  0.00    +0.000 A 
ATOM      4  C   UNL     1       1.598   7.424  20.102  0.00  0.00    +0.000 A 
ATOM      5  C   UNL     1       1.409   6.175  20.697  0.00  0.00    +0.000 A 
ATOM      6  C   UNL     1       1.810   5.005  20.032  0.00  0.00    +0.000 A 
ENDROOT
BRANCH   4   7
ATOM      7  N   UNL     1       1.160   8.584  20.784  0.00  0.00    +0.000 N 
ATOM      8  C   UNL     1       0.669   9.722  20.164  0.00  0.00    +0.000 C 
ATOM      9  O   UNL     1       0.519   9.860  18.952  0.00  0.00    +0.000 OA
ATOM     10  H   UNL     1       1.036   8.509  21.787  0.00  0.00    +0.000 HD
BRANCH   8  11
ATOM     11  C   UNL     1       0.242  10.852  21.032  0.00  0.00    +0.000 A 
ATOM     12  C   UNL     1       0.541  12.190  20.749  0.00  0.00    +0.000 A 
ATOM     13  C   UNL     1       0.051  13.199  21.586  0.00  0.00    +0.000 A 
ATOM     14  C   UNL     1      -0.738  12.878  22.694  0.00  0.00    +0.000 A 
ATOM     15  C   UNL     1      -1.043  11.549  22.973  0.00  0.00    +0.000 A 
ATOM     16  C   UNL     1      -0.555  10.542  22.144  0.00  0.00    +0.000 A 
ENDBRANCH   8  11
ENDBRANCH   4   7
BRANCH   1  17
ATOM     17  C   UNL     1       2.781   3.771  18.094  0.00  0.00    +0.000 C 
ATOM     18  O   UNL     1       1.946   3.218  17.375  0.00  0.00    +0.000 OA
BRANCH  17  19
ATOM     19  C   UNL     1       4.154   3.149  18.262  0.00  0.00    +0.000 C 
BRANCH  19  24
ATOM     20  C   UNL     1       7.074   5.477  17.915  0.00  0.00    +0.000 A 
ATOM     21  C   UNL     1       7.146   5.655  16.537  0.00  0.00    +0.000 A 
ATOM     22  C   UNL     1       6.241   4.977  15.727  0.00  0.00    +0.000 A 
ATOM     23  C   UNL     1       5.275   4.154  16.303  0.00  0.00    +0.000 A 
ATOM     24  N   UNL     1       5.214   3.995  17.650  0.00  0.00    +0.000 N 
ATOM     25  C   UNL     1       6.123   4.608  18.450  0.00  0.00    +0.000 A 
BRANCH  20  27
ATOM     26  N   UNL     1       8.403   5.468  19.942  0.00  0.00    +0.000 N 
ATOM     27  C   UNL     1       7.941   6.177  18.875  0.00  0.00    +0.000 C 
ATOM     28  O   UNL     1       8.280   7.329  18.649  0.00  0.00    +0.000 OA
ATOM     29  H   UNL     1       9.099   5.918  20.529  0.00  0.00    +0.000 HD
ATOM     30  H   UNL     1       8.299   4.468  20.056  0.00  0.00    +0.000 HD
ENDBRANCH  20  27
ENDBRANCH  19  24
ENDBRANCH  17  19
ENDBRANCH   1  17
TORSDOF 6
ENDMDL
MODEL 6
REMARK VINA RESULT:      -8.6      0.739      1.537
REMARK  Name = 
REMARK  6 active torsions:
REMARK  status: ('A' for Active; 'I' for Inactive)
REMARK    1  A    between atoms: C_2  and  C_4
REMARK    2  A    between atoms: N_8  and  C_9
REMARK    3  A    between atoms: C_9  and  C_10
REMARK    4  A    between atoms: C_10  and  C_12
REMARK    5  A    between atoms: C_15  and  N_16
REMARK    6  A    between atoms: C_17  and  C_19
REMARK                            x       y       z     vdW  Elec       q    Type
REMARK                         _______ _______ _______ _____ _____    ______ ____
ROOT
ATOM      1  C   UNL     1       6.195   5.149  17.279  0.00  0.00    +0.000 A 
ATOM      2  C   UNL     1       6.706   5.060  18.571  0.00  0.00    +0.000 A 
ATOM      3  C   UNL     1       7.519   6.079  19.080  0.00  0.00    +0.000 A 
ATOM      4  C   UNL     1       7.852   7.203  18.318  0.00  0.00    +0.000 A 
ATOM      5  C   UNL     1       7.312   7.313  17.035  0.00  0.00    +0.000 A 
ATOM      6  C   UNL     1       6.497   6.293  16.520  0.00  0.00    +0.000 A 
ENDROOT
BRANCH   4   7
ATOM      7  N   UNL     1       8.692   8.235  18.802  0.00  0.00    +0.000 N 
ATOM      8  C   UNL     1       8.586   9.569  18.441  0.00  0.00    +0.000 C 
ATOM      9  O   UNL     1       7.733  10.034  17.686  0.00  0.00    +0.000 OA
ATOM     10  H   UNL     1       9.291   8.011  19.587  0.00  0.00    +0.000 HD
BRANCH   8  11
ATOM     11  C   UNL     1       9.545  10.528  19.051  0.00  0.00    +0.000 A 
ATOM     12  C   UNL     1       9.458  10.954  20.382  0.00  0.00    +0.000 A 
ATOM     13  C   UNL     1      10.436  11.813  20.897  0.00  0.00    +0.000 A 
ATOM     14  C   UNL     1      11.496  12.241  20.094  0.00  0.00    +0.000 A 
ATOM     15  C   UNL     1      11.587  11.813  18.772  0.00  0.00    +0.000 A 
ATOM     16  C   UNL     1      10.616  10.960  18.255  0.00  0.00    +0.000 A 
ENDBRANCH   8  11
ENDBRANCH   4   7
BRANCH   1  17
ATOM     17  C   UNL     1       5.354   4.081  16.651  0.00  0.00    +0.000 C 
ATOM     18  O   UNL     1       5.913   3.122  16.113  0.00  0.00    +0.000 OA
BRANCH  17  19
ATOM     19  C   UNL     1       3.838   4.142  16.683  0.00  0.00    +0.000 C 
BRANCH  19  24
ATOM     20  C   UNL     1       2.469   5.984  19.648  0.00  0.00    +0.000 A 
ATOM     21  C   UNL     1       2.472   5.001  20.633  0.00  0.00    +0.000 A 
ATOM     22  C   UNL     1       2.902   3.721  20.298  0.00  0.00    +0.000 A 
ATOM     23  C   UNL     1       3.337   3.452  19.001  0.00  0.00    +0.000 A 
ATOM     24  N   UNL     1       3.334   4.424  18.054  0.00  0.00    +0.000 N 
ATOM     25  C   UNL     1       2.867   5.663  18.351  0.00  0.00    +0.000 A 
BRANCH  20  27
ATOM     26  N   UNL     1       1.753   7.733  21.167  0.00  0.00    +0.000 N 
ATOM     27  C   UNL     1       2.085   7.383  19.893  0.00  0.00    +0.000 C 
ATOM     28  O   UNL     1       2.152   8.193  18.981  0.00  0.00    +0.000 OA
ATOM     29  H   UNL     1       1.613   8.721  21.352  0.00  0.00    +0.000 HD
ATOM     30  H   UNL     1       1.871   7.137  21.976  0.00  0.00    +0.000 HD
ENDBRANCH  20  27
ENDBRANCH  19  24
ENDBRANCH  17  19
ENDBRANCH   1  17
TORSDOF 6
ENDMDL
MODEL 7
REMARK VINA RESULT:      -8.5      0.924      1.378
REMARK  Name = 
REMARK  6 active torsions:
REMARK  status: ('A' for Active; 'I' for Inactive)
REMARK    1  A    between atoms: C_2  and  C_4
REMARK    2  A    between atoms: N_8  and  C_9
REMARK    3  A    between atoms: C_9  and  C_10
REMARK    4  A    between atoms: C_10  and  C_12
REMARK    5  A    between atoms: C_15  and  N_16
REMARK    6  A    between atoms: C_17  and  C_19
REMARK                            x       y       z     vdW  Elec       q    Type
REMARK                         _______ _______ _______ _____ _____    ______ ____
ROOT
ATOM      1  C   UNL     1       6.145   5.282  17.391  0.00  0.00    +0.000 A 
ATOM      2  C   UNL     1       6.947   5.051  18.505  0.00  0.00    +0.000 A 
ATOM      3  C   UNL     1       7.805   6.052  18.976  0.00  0.00    +0.000 A 
ATOM      4  C   UNL     1       7.895   7.299  18.350  0.00  0.00    +0.000 A 
ATOM      5  C   UNL     1       7.066   7.547  17.255  0.00  0.00    +0.000 A 
ATOM      6  C   UNL     1       6.204   6.546  16.777  0.00  0.00    +0.000 A 
ENDROOT
BRANCH   4   7
ATOM      7  N   UNL     1       8.772   8.317  18.793  0.00  0.00    +0.000 N 
ATOM      8  C   UNL     1       8.667   9.653  18.440  0.00  0.00    +0.000 C 
ATOM      9  O   UNL     1       7.785  10.132  17.729  0.00  0.00    +0.000 OA
ATOM     10  H   UNL     1       9.406   8.083  19.548  0.00  0.00    +0.000 HD
BRANCH   8  11
ATOM     11  C   UNL     1       9.669  10.598  19.004  0.00  0.00    +0.000 A 
ATOM     12  C   UNL     1      10.698  11.164  18.243  0.00  0.00    +0.000 A 
ATOM     13  C   UNL     1      11.565  12.091  18.835  0.00  0.00    +0.000 A 
ATOM     14  C   UNL     1      11.403  12.455  20.174  0.00  0.00    +0.000 A 
ATOM     15  C   UNL     1      10.375  11.898  20.930  0.00  0.00    +0.000 A 
ATOM     16  C   UNL     1       9.512  10.974  20.346  0.00  0.00    +0.000 A 
ENDBRANCH   8  11
ENDBRANCH   4   7
BRANCH   1  17
ATOM     17  C   UNL     1       5.235   4.249  16.803  0.00  0.00    +0.000 C 
ATOM     18  O   UNL     1       5.328   3.987  15.602  0.00  0.00    +0.000 OA
BRANCH  17  19
ATOM     19  C   UNL     1       4.222   3.506  17.654  0.00  0.00    +0.000 C 
BRANCH  19  24
ATOM     20  C   UNL     1       2.472   6.595  18.861  0.00  0.00    +0.000 A 
ATOM     21  C   UNL     1       2.087   6.232  20.148  0.00  0.00    +0.000 A 
ATOM     22  C   UNL     1       2.387   4.951  20.599  0.00  0.00    +0.000 A 
ATOM     23  C   UNL     1       3.077   4.067  19.770  0.00  0.00    +0.000 A 
ATOM     24  N   UNL     1       3.449   4.439  18.519  0.00  0.00    +0.000 N 
ATOM     25  C   UNL     1       3.118   5.667  18.046  0.00  0.00    +0.000 A 
BRANCH  20  27
ATOM     26  N   UNL     1       1.585   8.844  19.053  0.00  0.00    +0.000 N 
ATOM     27  C   UNL     1       2.256   7.935  18.292  0.00  0.00    +0.000 C 
ATOM     28  O   UNL     1       2.747   8.214  17.208  0.00  0.00    +0.000 OA
ATOM     29  H   UNL     1       1.551   9.799  18.710  0.00  0.00    +0.000 HD
ATOM     30  H   UNL     1       1.335   8.707  20.025  0.00  0.00    +0.000 HD
ENDBRANCH  20  27
ENDBRANCH  19  24
ENDBRANCH  17  19
ENDBRANCH   1  17
TORSDOF 6
ENDMDL
MODEL 8
REMARK VINA RESULT:      -8.5      1.543      2.059
REMARK  Name = 
REMARK  6 active torsions:
REMARK  status: ('A' for Active; 'I' for Inactive)
REMARK    1  A    between atoms: C_2  and  C_4
REMARK    2  A    between atoms: N_8  and  C_9
REMARK    3  A    between atoms: C_9  and  C_10
REMARK    4  A    between atoms: C_10  and  C_12
REMARK    5  A    between atoms: C_15  and  N_16
REMARK    6  A    between atoms: C_17  and  C_19
REMARK                            x       y       z     vdW  Elec       q    Type
REMARK                         _______ _______ _______ _____ _____    ______ ____
ROOT
ATOM      1  C   UNL     1       6.366   5.365  17.144  0.00  0.00    +0.000 A 
ATOM      2  C   UNL     1       7.049   5.109  18.330  0.00  0.00    +0.000 A 
ATOM      3  C   UNL     1       7.846   6.101  18.913  0.00  0.00    +0.000 A 
ATOM      4  C   UNL     1       7.994   7.363  18.329  0.00  0.00    +0.000 A 
ATOM      5  C   UNL     1       7.282   7.635  17.159  0.00  0.00    +0.000 A 
ATOM      6  C   UNL     1       6.481   6.644  16.570  0.00  0.00    +0.000 A 
ENDROOT
BRANCH   4   7
ATOM      7  N   UNL     1       8.814   8.373  18.886  0.00  0.00    +0.000 N 
ATOM      8  C   UNL     1       8.743   9.716  18.551  0.00  0.00    +0.000 C 
ATOM      9  O   UNL     1       7.943  10.208  17.757  0.00  0.00    +0.000 OA
ATOM     10  H   UNL     1       9.362   8.125  19.701  0.00  0.00    +0.000 HD
BRANCH   8  11
ATOM     11  C   UNL     1       9.674  10.650  19.240  0.00  0.00    +0.000 A 
ATOM     12  C   UNL     1      10.839  11.147  18.643  0.00  0.00    +0.000 A 
ATOM     13  C   UNL     1      11.631  12.069  19.338  0.00  0.00    +0.000 A 
ATOM     14  C   UNL     1      11.262  12.498  20.616  0.00  0.00    +0.000 A 
ATOM     15  C   UNL     1      10.100  12.010  21.207  0.00  0.00    +0.000 A 
ATOM     16  C   UNL     1       9.310  11.091  20.521  0.00  0.00    +0.000 A 
ENDBRANCH   8  11
ENDBRANCH   4   7
BRANCH   1  17
ATOM     17  C   UNL     1       5.528   4.343  16.439  0.00  0.00    +0.000 C 
ATOM     18  O   UNL     1       6.090   3.457  15.791  0.00  0.00    +0.000 OA
BRANCH  17  19
ATOM     19  C   UNL     1       4.014   4.361  16.525  0.00  0.00    +0.000 C 
BRANCH  19  24
ATOM     20  C   UNL     1       2.713   3.426  19.916  0.00  0.00    +0.000 A 
ATOM     21  C   UNL     1       2.690   2.037  19.850  0.00  0.00    +0.000 A 
ATOM     22  C   UNL     1       3.081   1.417  18.667  0.00  0.00    +0.000 A 
ATOM     23  C   UNL     1       3.502   2.189  17.586  0.00  0.00    +0.000 A 
ATOM     24  N   UNL     1       3.524   3.544  17.668  0.00  0.00    +0.000 N 
ATOM     25  C   UNL     1       3.096   4.165  18.797  0.00  0.00    +0.000 A 
BRANCH  20  27
ATOM     26  N   UNL     1       2.232   5.540  21.000  0.00  0.00    +0.000 N 
ATOM     27  C   UNL     1       2.372   4.192  21.126  0.00  0.00    +0.000 C 
ATOM     28  O   UNL     1       2.150   3.597  22.170  0.00  0.00    +0.000 OA
ATOM     29  H   UNL     1       1.874   6.044  21.806  0.00  0.00    +0.000 HD
ATOM     30  H   UNL     1       2.220   6.038  20.119  0.00  0.00    +0.000 HD
ENDBRANCH  20  27
ENDBRANCH  19  24
ENDBRANCH  17  19
ENDBRANCH   1  17
TORSDOF 6
ENDMDL
MODEL 9
REMARK VINA RESULT:      -8.4      3.835      7.441
REMARK  Name = 
REMARK  6 active torsions:
REMARK  status: ('A' for Active; 'I' for Inactive)
REMARK    1  A    between atoms: C_2  and  C_4
REMARK    2  A    between atoms: N_8  and  C_9
REMARK    3  A    between atoms: C_9  and  C_10
REMARK    4  A    between atoms: C_10  and  C_12
REMARK    5  A    between atoms: C_15  and  N_16
REMARK    6  A    between atoms: C_17  and  C_19
REMARK                            x       y       z     vdW  Elec       q    Type
REMARK                         _______ _______ _______ _____ _____    ______ ____
ROOT
ATOM      1  C   UNL     1       2.460   5.236  19.141  0.00  0.00    +0.000 A 
ATOM      2  C   UNL     1       1.774   5.253  20.352  0.00  0.00    +0.000 A 
ATOM      3  C   UNL     1       1.353   6.467  20.908  0.00  0.00    +0.000 A 
ATOM      4  C   UNL     1       1.612   7.691  20.283  0.00  0.00    +0.000 A 
ATOM      5  C   UNL     1       2.268   7.675  19.051  0.00  0.00    +0.000 A 
ATOM      6  C   UNL     1       2.692   6.460  18.489  0.00  0.00    +0.000 A 
ENDROOT
BRANCH   4   7
ATOM      7  N   UNL     1       1.219   8.932  20.838  0.00  0.00    +0.000 N 
ATOM      8  C   UNL     1       0.528   9.917  20.149  0.00  0.00    +0.000 C 
ATOM      9  O   UNL     1       0.140   9.829  18.985  0.00  0.00    +0.000 OA
ATOM     10  H   UNL     1       1.294   9.032  21.842  0.00  0.00    +0.000 HD
BRANCH   8  11
ATOM     11  C   UNL     1       0.183  11.162  20.885  0.00  0.00    +0.000 A 
ATOM     12  C   UNL     1      -0.737  11.197  21.940  0.00  0.00    +0.000 A 
ATOM     13  C   UNL     1      -0.963  12.399  22.621  0.00  0.00    +0.000 A 
ATOM     14  C   UNL     1      -0.271  13.558  22.257  0.00  0.00    +0.000 A 
ATOM     15  C   UNL     1       0.650  13.523  21.214  0.00  0.00    +0.000 A 
ATOM     16  C   UNL     1       0.875  12.330  20.533  0.00  0.00    +0.000 A 
ENDBRANCH   8  11
ENDBRANCH   4   7
BRANCH   1  17
ATOM     17  C   UNL     1       2.977   3.983  18.505  0.00  0.00    +0.000 C 
ATOM     18  O   UNL     1       2.258   3.382  17.703  0.00  0.00    +0.000 OA
BRANCH  17  19
ATOM     19  C   UNL     1       4.366   3.453  18.807  0.00  0.00    +0.000 C 
BRANCH  19  24
ATOM     20  C   UNL     1       6.730   4.977  16.327  0.00  0.00    +0.000 A 
ATOM     21  C   UNL     1       7.447   5.872  17.115  0.00  0.00    +0.000 A 
ATOM     22  C   UNL     1       7.122   5.985  18.463  0.00  0.00    +0.000 A 
ATOM     23  C   UNL     1       6.107   5.195  19.000  0.00  0.00    +0.000 A 
ATOM     24  N   UNL     1       5.420   4.323  18.219  0.00  0.00    +0.000 N 
ATOM     25  C   UNL     1       5.690   4.239  16.892  0.00  0.00    +0.000 A 
BRANCH  20  27
ATOM     26  N   UNL     1       6.355   3.709  14.295  0.00  0.00    +0.000 N 
ATOM     27  C   UNL     1       7.015   4.733  14.904  0.00  0.00    +0.000 C 
ATOM     28  O   UNL     1       7.760   5.491  14.302  0.00  0.00    +0.000 OA
ATOM     29  H   UNL     1       6.459   3.626  13.289  0.00  0.00    +0.000 HD
ATOM     30  H   UNL     1       5.595   3.187  14.712  0.00  0.00    +0.000 HD
ENDBRANCH  20  27
ENDBRANCH  19  24
ENDBRANCH  17  19
ENDBRANCH   1  17
TORSDOF 6
ENDMDL
