MODEL 1
REMARK VINA RESULT:      -8.2      0.000      0.000
REMARK  Name = 
REMARK  6 active torsions:
REMARK  status: ('A' for Active; 'I' for Inactive)
REMARK    1  A    between atoms: C_1  and  O_2
REMARK    2  A    between atoms: O_2  and  C_3
REMARK    3  A    between atoms: C_3  and  C_5
REMARK    4  A    between atoms: C_8  and  N_9
REMARK    5  A    between atoms: C_10  and  C_12
REMARK    6  A    between atoms: C_12  and  C_14
REMARK                            x       y       z     vdW  Elec       q    Type
REMARK                         _______ _______ _______ _____ _____    ______ ____
ROOT
ATOM      1  N   UNL     1       3.162   6.091  17.743  0.00  0.00    +0.000 N 
ATOM      2  C   UNL     1       4.380   5.443  18.049  0.00  0.00    +0.000 C 
ATOM      3  O   UNL     1       5.090   5.635  19.018  0.00  0.00    +0.000 OA
ATOM      4  H   UNL     1       2.712   5.755  16.896  0.00  0.00    +0.000 HD
ENDROOT
BRANCH   1   8
ATOM      5  C   UNL     1       1.206   9.191  19.979  0.00  0.00    +0.000 A 
ATOM      6  C   UNL     1       1.493   9.339  18.620  0.00  0.00    +0.000 A 
ATOM      7  C   UNL     1       2.138   8.330  17.889  0.00  0.00    +0.000 A 
ATOM      8  C   UNL     1       2.520   7.128  18.479  0.00  0.00    +0.000 A 
ATOM      9  C   UNL     1       2.231   6.967  19.850  0.00  0.00    +0.000 A 
ATOM     10  C   UNL     1       1.583   7.991  20.595  0.00  0.00    +0.000 A 
BRANCH   5  11
ATOM     11  C   UNL     1       0.502  10.323  20.659  0.00  0.00    +0.000 C 
ATOM     12  O   UNL     1       1.091  11.097  21.410  0.00  0.00    +0.000 OA
BRANCH  11  14
ATOM     13  C   UNL     1      -1.241  11.421  19.539  0.00  0.00    +0.000 C 
ATOM     14  O   UNL     1      -0.828  10.339  20.388  0.00  0.00    +0.000 OA
ENDBRANCH  11  14
ENDBRANCH   5  11
ENDBRANCH   1   8
BRANCH   2  15
ATOM     15  C   UNL     1       4.814   4.399  17.020  0.00  0.00    +0.000 C 
ATOM     16  O   UNL     1       4.256   3.304  17.175  0.00  0.00    +0.000 OA
BRANCH  15  17
ATOM     17  C   UNL     1       5.820   4.557  15.933  0.00  0.00    +0.000 A 
ATOM     18  C   UNL     1       7.089   5.024  16.278  0.00  0.00    +0.000 A 
ATOM     19  N   UNL     1       7.613   5.595  15.161  0.00  0.00    +0.000 N 
ATOM     20  C   UNL     1       7.147   4.898  14.081  0.00  0.00    +0.000 A 
ATOM     21  C   UNL     1       7.701   4.805  12.796  0.00  0.00    +0.000 A 
ATOM     22  C   UNL     1       7.025   4.027  11.866  0.00  0.00    +0.000 A 
ATOM     23  C   UNL     1       5.801   3.450  12.199  0.00  0.00    +0.000 A 
ATOM     24  C   UNL     1       5.237   3.596  13.490  0.00  0.00    +0.000 A 
ATOM     25  C   UNL     1       5.949   4.286  14.502  0.00  0.00    +0.000 A 
ATOM     26  H   UNL     1       8.339   6.298  15.135  0.00  0.00    +0.000 HD
ENDBRANCH  15  17
ENDBRANCH   2  15
TORSDOF 5
ENDMDL
MODEL 2
REMARK VINA RESULT:      -8.2      0.393      1.052
REMARK  Name = 
REMARK  6 active torsions:
REMARK  status: ('A' for Active; 'I' for Inactive)
REMARK    1  A    between atoms: C_1  and  O_2
REMARK    2  A    between atoms: O_2  and  C_3
REMARK    3  A    between atoms: C_3  and  C_5
REMARK    4  A    between atoms: C_8  and  N_9
REMARK    5  A    between atoms: C_10  and  C_12
REMARK    6  A    between atoms: C_12  and  C_14
REMARK                            x       y       z     vdW  Elec       q    Type
REMARK                         _______ _______ _______ _____ _____    ______ ____
ROOT
ATOM      1  N   UNL     1       3.201   6.053  17.690  0.00  0.00    +0.000 N 
ATOM      2  C   UNL     1       4.234   5.205  18.150  0.00  0.00    +0.000 C 
ATOM      3  O   UNL     1       4.728   5.188  19.262  0.00  0.00    +0.000 OA
ATOM      4  H   UNL     1       2.915   5.877  16.730  0.00  0.00    +0.000 HD
ENDROOT
BRANCH   1   8
ATOM      5  C   UNL     1       1.237   9.204  19.845  0.00  0.00    +0.000 A 
ATOM      6  C   UNL     1       1.580   8.000  20.463  0.00  0.00    +0.000 A 
ATOM      7  C   UNL     1       2.215   6.966  19.758  0.00  0.00    +0.000 A 
ATOM      8  C   UNL     1       2.542   7.089  18.410  0.00  0.00    +0.000 A 
ATOM      9  C   UNL     1       2.203   8.304  17.779  0.00  0.00    +0.000 A 
ATOM     10  C   UNL     1       1.553   9.352  18.488  0.00  0.00    +0.000 A 
BRANCH   5  11
ATOM     11  C   UNL     1       0.575  10.245  20.692  0.00  0.00    +0.000 C 
ATOM     12  O   UNL     1       0.989  10.530  21.814  0.00  0.00    +0.000 OA
BRANCH  11  14
ATOM     13  C   UNL     1      -1.208  11.755  20.887  0.00  0.00    +0.000 C 
ATOM     14  O   UNL     1      -0.529  10.765  20.098  0.00  0.00    +0.000 OA
ENDBRANCH  11  14
ENDBRANCH   5  11
ENDBRANCH   1   8
BRANCH   2  15
ATOM     15  C   UNL     1       4.757   4.222  17.102  0.00  0.00    +0.000 C 
ATOM     16  O   UNL     1       4.270   3.089  17.214  0.00  0.00    +0.000 OA
BRANCH  15  17
ATOM     17  C   UNL     1       5.773   4.479  16.043  0.00  0.00    +0.000 A 
ATOM     18  C   UNL     1       6.997   5.026  16.428  0.00  0.00    +0.000 A 
ATOM     19  N   UNL     1       7.502   5.660  15.337  0.00  0.00    +0.000 N 
ATOM     20  C   UNL     1       7.111   4.959  14.231  0.00  0.00    +0.000 A 
ATOM     21  C   UNL     1       7.698   4.937  12.957  0.00  0.00    +0.000 A 
ATOM     22  C   UNL     1       7.099   4.136  11.994  0.00  0.00    +0.000 A 
ATOM     23  C   UNL     1       5.913   3.466  12.285  0.00  0.00    +0.000 A 
ATOM     24  C   UNL     1       5.312   3.539  13.566  0.00  0.00    +0.000 A 
ATOM     25  C   UNL     1       5.951   4.253  14.609  0.00  0.00    +0.000 A 
ATOM     26  H   UNL     1       8.176   6.414  15.344  0.00  0.00    +0.000 HD
ENDBRANCH  15  17
ENDBRANCH   2  15
TORSDOF 5
ENDMDL
MODEL 3
REMARK VINA RESULT:      -8.1      0.689      1.032
REMARK  Name = 
REMARK  6 active torsions:
REMARK  status: ('A' for Active; 'I' for Inactive)
REMARK    1  A    between atoms: C_1  and  O_2
REMARK    2  A    between atoms: O_2  and  C_3
REMARK    3  A    between atoms: C_3  and  C_5
REMARK    4  A    between atoms: C_8  and  N_9
REMARK    5  A    between atoms: C_10  and  C_12
REMARK    6  A    between atoms: C_12  and  C_14
REMARK                            x       y       z     vdW  Elec       q    Type
REMARK                         _______ _______ _______ _____ _____    ______ ____
ROOT
ATOM      1  N   UNL     1       3.246   5.960  17.696  0.00  0.00    +0.000 N 
ATOM      2  C   UNL     1       4.106   4.949  18.181  0.00  0.00    +0.000 C 
ATOM      3  O   UNL     1       4.424   4.749  19.338  0.00  0.00    +0.000 OA
ATOM      4  H   UNL     1       3.089   5.928  16.692  0.00  0.00    +0.000 HD
ENDROOT
BRANCH   1   8
ATOM      5  C   UNL     1       1.268   9.014  19.975  0.00  0.00    +0.000 A 
ATOM      6  C   UNL     1       1.495   9.156  18.604  0.00  0.00    +0.000 A 
ATOM      7  C   UNL     1       2.148   8.162  17.859  0.00  0.00    +0.000 A 
ATOM      8  C   UNL     1       2.597   6.982  18.446  0.00  0.00    +0.000 A 
ATOM      9  C   UNL     1       2.368   6.828  19.828  0.00  0.00    +0.000 A 
ATOM     10  C   UNL     1       1.713   7.836  20.588  0.00  0.00    +0.000 A 
BRANCH   5  11
ATOM     11  C   UNL     1       0.550  10.128  20.670  0.00  0.00    +0.000 C 
ATOM     12  O   UNL     1      -0.160  10.925  20.059  0.00  0.00    +0.000 OA
BRANCH  11  14
ATOM     13  C   UNL     1      -0.323  10.005  22.842  0.00  0.00    +0.000 C 
ATOM     14  O   UNL     1       0.827  10.168  21.998  0.00  0.00    +0.000 OA
ENDBRANCH  11  14
ENDBRANCH   5  11
ENDBRANCH   1   8
BRANCH   2  15
ATOM     15  C   UNL     1       4.676   4.033  17.098  0.00  0.00    +0.000 C 
ATOM     16  O   UNL     1       4.201   2.889  17.131  0.00  0.00    +0.000 OA
BRANCH  15  17
ATOM     17  C   UNL     1       5.721   4.360  16.088  0.00  0.00    +0.000 A 
ATOM     18  C   UNL     1       6.929   4.889  16.542  0.00  0.00    +0.000 A 
ATOM     19  N   UNL     1       7.462   5.592  15.509  0.00  0.00    +0.000 N 
ATOM     20  C   UNL     1       7.109   4.959  14.350  0.00  0.00    +0.000 A 
ATOM     21  C   UNL     1       7.734   5.020  13.096  0.00  0.00    +0.000 A 
ATOM     22  C   UNL     1       7.170   4.279  12.067  0.00  0.00    +0.000 A 
ATOM     23  C   UNL     1       5.980   3.585  12.279  0.00  0.00    +0.000 A 
ATOM     24  C   UNL     1       5.340   3.575  13.544  0.00  0.00    +0.000 A 
ATOM     25  C   UNL     1       5.943   4.226  14.648  0.00  0.00    +0.000 A 
ATOM     26  H   UNL     1       8.130   6.347  15.583  0.00  0.00    +0.000 HD
ENDBRANCH  15  17
ENDBRANCH   2  15
TORSDOF 5
ENDMDL
MODEL 4
REMARK VINA RESULT:      -8.1      0.908      1.278
REMARK  Name = 
REMARK  6 active torsions:
REMARK  status: ('A' for Active; 'I' for Inactive)
REMARK    1  A    between atoms: C_1  and  O_2
REMARK    2  A    between atoms: O_2  and  C_3
REMARK    3  A    between atoms: C_3  and  C_5
REMARK    4  A    between atoms: C_8  and  N_9
REMARK    5  A    between atoms: C_10  and  C_12
REMARK    6  A    between atoms: C_12  and  C_14
REMARK                            x       y       z     vdW  Elec       q    Type
REMARK                         _______ _______ _______ _____ _____    ______ ____
ROOT
ATOM      1  N   UNL     1       3.635   6.231  17.991  0.00  0.00    +0.000 N 
ATOM      2  C   UNL     1       3.265   4.955  17.512  0.00  0.00    +0.000 C 
ATOM      3  O   UNL     1       2.137   4.514  17.394  0.00  0.00    +0.000 OA
ATOM      4  H   UNL     1       4.636   6.408  17.976  0.00  0.00    +0.000 HD
ENDROOT
BRANCH   1   8
ATOM      5  C   UNL     1       1.027   9.310  19.459  0.00  0.00    +0.000 A 
ATOM      6  C   UNL     1       1.503   9.319  18.146  0.00  0.00    +0.000 A 
ATOM      7  C   UNL     1       2.361   8.318  17.667  0.00  0.00    +0.000 A 
ATOM      8  C   UNL     1       2.778   7.261  18.472  0.00  0.00    +0.000 A 
ATOM      9  C   UNL     1       2.299   7.241  19.798  0.00  0.00    +0.000 A 
ATOM     10  C   UNL     1       1.434   8.258  20.290  0.00  0.00    +0.000 A 
BRANCH   5  11
ATOM     11  C   UNL     1       0.106  10.418  19.864  0.00  0.00    +0.000 C 
ATOM     12  O   UNL     1      -0.925  10.665  19.241  0.00  0.00    +0.000 OA
BRANCH  11  14
ATOM     13  C   UNL     1       1.431  12.215  20.579  0.00  0.00    +0.000 C 
ATOM     14  O   UNL     1       0.576  11.115  20.928  0.00  0.00    +0.000 OA
ENDBRANCH  11  14
ENDBRANCH   5  11
ENDBRANCH   1   8
BRANCH   2  15
ATOM     15  C   UNL     1       4.443   4.066  17.112  0.00  0.00    +0.000 C 
ATOM     16  O   UNL     1       4.470   2.991  17.728  0.00  0.00    +0.000 OA
BRANCH  15  17
ATOM     17  C   UNL     1       5.522   4.373  16.132  0.00  0.00    +0.000 A 
ATOM     18  C   UNL     1       6.719   4.899  16.619  0.00  0.00    +0.000 A 
ATOM     19  N   UNL     1       7.291   5.585  15.595  0.00  0.00    +0.000 N 
ATOM     20  C   UNL     1       6.970   4.940  14.433  0.00  0.00    +0.000 A 
ATOM     21  C   UNL     1       7.635   4.981  13.199  0.00  0.00    +0.000 A 
ATOM     22  C   UNL     1       7.099   4.231  12.161  0.00  0.00    +0.000 A 
ATOM     23  C   UNL     1       5.898   3.548  12.344  0.00  0.00    +0.000 A 
ATOM     24  C   UNL     1       5.218   3.559  13.587  0.00  0.00    +0.000 A 
ATOM     25  C   UNL     1       5.790   4.219  14.703  0.00  0.00    +0.000 A 
ATOM     26  H   UNL     1       7.962   6.336  15.681  0.00  0.00    +0.000 HD
ENDBRANCH  15  17
ENDBRANCH   2  15
TORSDOF 5
ENDMDL
MODEL 5
REMARK VINA RESULT:      -8.0      0.828      1.489
REMARK  Name = 
REMARK  6 active torsions:
REMARK  status: ('A' for Active; 'I' for Inactive)
REMARK    1  A    between atoms: C_1  and  O_2
REMARK    2  A    between atoms: O_2  and  C_3
REMARK    3  A    between atoms: C_3  and  C_5
REMARK    4  A    between atoms: C_8  and  N_9
REMARK    5  A    between atoms: C_10  and  C_12
REMARK    6  A    between atoms: C_12  and  C_14
REMARK                            x       y       z     vdW  Elec       q    Type
REMARK                         _______ _______ _______ _____ _____    ______ ____
ROOT
ATOM      1  N   UNL     1       3.058   6.115  17.954  0.00  0.00    +0.000 N 
ATOM      2  C   UNL     1       4.405   6.094  17.529  0.00  0.00    +0.000 C 
ATOM      3  O   UNL     1       5.249   6.948  17.726  0.00  0.00    +0.000 OA
ATOM      4  H   UNL     1       2.530   5.281  17.709  0.00  0.00    +0.000 HD
ENDROOT
BRANCH   1   8
ATOM      5  C   UNL     1       1.059   9.258  20.091  0.00  0.00    +0.000 A 
ATOM      6  C   UNL     1       1.467   8.084  20.729  0.00  0.00    +0.000 A 
ATOM      7  C   UNL     1       2.114   7.053  20.031  0.00  0.00    +0.000 A 
ATOM      8  C   UNL     1       2.387   7.149  18.669  0.00  0.00    +0.000 A 
ATOM      9  C   UNL     1       1.983   8.332  18.017  0.00  0.00    +0.000 A 
ATOM     10  C   UNL     1       1.321   9.376  18.720  0.00  0.00    +0.000 A 
BRANCH   5  11
ATOM     11  C   UNL     1       0.391  10.299  20.932  0.00  0.00    +0.000 C 
ATOM     12  O   UNL     1      -0.291  11.195  20.437  0.00  0.00    +0.000 OA
BRANCH  11  14
ATOM     13  C   UNL     1      -0.480  10.068  23.097  0.00  0.00    +0.000 C 
ATOM     14  O   UNL     1       0.677  10.157  22.251  0.00  0.00    +0.000 OA
ENDBRANCH  11  14
ENDBRANCH   5  11
ENDBRANCH   1   8
BRANCH   2  15
ATOM     15  C   UNL     1       4.798   4.846  16.739  0.00  0.00    +0.000 C 
ATOM     16  O   UNL     1       4.226   3.821  17.135  0.00  0.00    +0.000 OA
BRANCH  15  17
ATOM     17  C   UNL     1       5.781   4.749  15.624  0.00  0.00    +0.000 A 
ATOM     18  C   UNL     1       7.109   5.082  15.891  0.00  0.00    +0.000 A 
ATOM     19  N   UNL     1       7.666   5.450  14.706  0.00  0.00    +0.000 N 
ATOM     20  C   UNL     1       7.081   4.703  13.723  0.00  0.00    +0.000 A 
ATOM     21  C   UNL     1       7.577   4.394  12.448  0.00  0.00    +0.000 A 
ATOM     22  C   UNL     1       6.778   3.612  11.625  0.00  0.00    +0.000 A 
ATOM     23  C   UNL     1       5.502   3.241  12.044  0.00  0.00    +0.000 A 
ATOM     24  C   UNL     1       5.002   3.603  13.319  0.00  0.00    +0.000 A 
ATOM     25  C   UNL     1       5.829   4.304  14.232  0.00  0.00    +0.000 A 
ATOM     26  H   UNL     1       8.474   6.045  14.587  0.00  0.00    +0.000 HD
ENDBRANCH  15  17
ENDBRANCH   2  15
TORSDOF 5
ENDMDL
MODEL 6
REMARK VINA RESULT:      -7.9      2.737      9.012
REMARK  Name = 
REMARK  6 active torsions:
REMARK  status: ('A' for Active; 'I' for Inactive)
REMARK    1  A    between atoms: C_1  and  O_2
REMARK    2  A    between atoms: O_2  and  C_3
REMARK    3  A    between atoms: C_3  and  C_5
REMARK    4  A    between atoms: C_8  and  N_9
REMARK    5  A    between atoms: C_10  and  C_12
REMARK    6  A    between atoms: C_12  and  C_14
REMARK                            x       y       z     vdW  Elec       q    Type
REMARK                         _______ _______ _______ _____ _____    ______ ____
ROOT
ATOM      1  N   UNL     1       2.434   7.526  18.704  0.00  0.00    +0.000 N 
ATOM      2  C   UNL     1       1.879   8.768  18.321  0.00  0.00    +0.000 C 
ATOM      3  O   UNL     1       2.098   9.383  17.294  0.00  0.00    +0.000 OA
ATOM      4  H   UNL     1       2.090   7.172  19.593  0.00  0.00    +0.000 HD
ENDROOT
BRANCH   1   8
ATOM      5  C   UNL     1       5.319   5.147  16.593  0.00  0.00    +0.000 A 
ATOM      6  C   UNL     1       5.497   6.520  16.777  0.00  0.00    +0.000 A 
ATOM      7  C   UNL     1       4.552   7.301  17.460  0.00  0.00    +0.000 A 
ATOM      8  C   UNL     1       3.392   6.746  17.995  0.00  0.00    +0.000 A 
ATOM      9  C   UNL     1       3.205   5.360  17.819  0.00  0.00    +0.000 A 
ATOM     10  C   UNL     1       4.158   4.567  17.121  0.00  0.00    +0.000 A 
BRANCH   5  11
ATOM     11  C   UNL     1       6.394   4.407  15.862  0.00  0.00    +0.000 C 
ATOM     12  O   UNL     1       7.587   4.624  16.068  0.00  0.00    +0.000 OA
BRANCH  11  14
ATOM     13  C   UNL     1       6.221   3.878  13.585  0.00  0.00    +0.000 C 
ATOM     14  O   UNL     1       5.892   3.545  14.943  0.00  0.00    +0.000 OA
ENDBRANCH  11  14
ENDBRANCH   5  11
ENDBRANCH   1   8
BRANCH   2  15
ATOM     15  C   UNL     1       0.906   9.365  19.338  0.00  0.00    +0.000 C 
ATOM     16  O   UNL     1       1.172   9.049  20.506  0.00  0.00    +0.000 OA
BRANCH  15  17
ATOM     17  C   UNL     1      -0.288  10.212  19.065  0.00  0.00    +0.000 A 
ATOM     18  C   UNL     1      -0.469  11.358  19.839  0.00  0.00    +0.000 A 
ATOM     19  N   UNL     1      -1.799  11.639  19.818  0.00  0.00    +0.000 N 
ATOM     20  C   UNL     1      -2.283  11.263  18.595  0.00  0.00    +0.000 A 
ATOM     21  C   UNL     1      -3.434  11.716  17.935  0.00  0.00    +0.000 A 
ATOM     22  C   UNL     1      -3.712  11.168  16.690  0.00  0.00    +0.000 A 
ATOM     23  C   UNL     1      -2.909  10.147  16.185  0.00  0.00    +0.000 A 
ATOM     24  C   UNL     1      -1.776   9.672  16.891  0.00  0.00    +0.000 A 
ATOM     25  C   UNL     1      -1.394  10.283  18.111  0.00  0.00    +0.000 A 
ATOM     26  H   UNL     1      -2.307  12.173  20.509  0.00  0.00    +0.000 HD
ENDBRANCH  15  17
ENDBRANCH   2  15
TORSDOF 5
ENDMDL
MODEL 7
REMARK VINA RESULT:      -7.7      2.478      9.175
REMARK  Name = 
REMARK  6 active torsions:
REMARK  status: ('A' for Active; 'I' for Inactive)
REMARK    1  A    between atoms: C_1  and  O_2
REMARK    2  A    between atoms: O_2  and  C_3
REMARK    3  A    between atoms: C_3  and  C_5
REMARK    4  A    between atoms: C_8  and  N_9
REMARK    5  A    between atoms: C_10  and  C_12
REMARK    6  A    between atoms: C_12  and  C_14
REMARK                            x       y       z     vdW  Elec       q    Type
REMARK                         _______ _______ _______ _____ _____    ______ ____
ROOT
ATOM      1  N   UNL     1       3.232   6.252  18.946  0.00  0.00    +0.000 N 
ATOM      2  C   UNL     1       2.332   7.338  19.029  0.00  0.00    +0.000 C 
ATOM      3  O   UNL     1       2.090   8.158  18.163  0.00  0.00    +0.000 OA
ATOM      4  H   UNL     1       3.258   5.667  19.777  0.00  0.00    +0.000 HD
ENDROOT
BRANCH   1   8
ATOM      5  C   UNL     1       5.763   5.234  15.630  0.00  0.00    +0.000 A 
ATOM      6  C   UNL     1       4.868   4.312  16.177  0.00  0.00    +0.000 A 
ATOM      7  C   UNL     1       4.045   4.640  17.265  0.00  0.00    +0.000 A 
ATOM      8  C   UNL     1       4.074   5.903  17.851  0.00  0.00    +0.000 A 
ATOM      9  C   UNL     1       4.972   6.842  17.303  0.00  0.00    +0.000 A 
ATOM     10  C   UNL     1       5.812   6.510  16.204  0.00  0.00    +0.000 A 
BRANCH   5  11
ATOM     11  C   UNL     1       6.583   4.785  14.462  0.00  0.00    +0.000 C 
ATOM     12  O   UNL     1       7.673   5.290  14.200  0.00  0.00    +0.000 OA
BRANCH  11  14
ATOM     13  C   UNL     1       6.545   3.593  12.443  0.00  0.00    +0.000 C 
ATOM     14  O   UNL     1       5.959   3.826  13.733  0.00  0.00    +0.000 OA
ENDBRANCH  11  14
ENDBRANCH   5  11
ENDBRANCH   1   8
BRANCH   2  15
ATOM     15  C   UNL     1       1.609   7.456  20.371  0.00  0.00    +0.000 C 
ATOM     16  O   UNL     1       1.557   6.384  20.990  0.00  0.00    +0.000 OA
BRANCH  15  17
ATOM     17  C   UNL     1       0.963   8.666  20.951  0.00  0.00    +0.000 A 
ATOM     18  C   UNL     1       1.314   9.038  22.249  0.00  0.00    +0.000 A 
ATOM     19  N   UNL     1       0.273   9.758  22.745  0.00  0.00    +0.000 N 
ATOM     20  C   UNL     1      -0.287  10.447  21.707  0.00  0.00    +0.000 A 
ATOM     21  C   UNL     1      -1.067  11.612  21.751  0.00  0.00    +0.000 A 
ATOM     22  C   UNL     1      -1.525  12.118  20.543  0.00  0.00    +0.000 A 
ATOM     23  C   UNL     1      -1.280  11.424  19.359  0.00  0.00    +0.000 A 
ATOM     24  C   UNL     1      -0.528  10.224  19.343  0.00  0.00    +0.000 A 
ATOM     25  C   UNL     1       0.053   9.735  20.539  0.00  0.00    +0.000 A 
ATOM     26  H   UNL     1       0.052   9.890  23.723  0.00  0.00    +0.000 HD
ENDBRANCH  15  17
ENDBRANCH   2  15
TORSDOF 5
ENDMDL
MODEL 8
REMARK VINA RESULT:      -7.6      3.768      8.981
REMARK  Name = 
REMARK  6 active torsions:
REMARK  status: ('A' for Active; 'I' for Inactive)
REMARK    1  A    between atoms: C_1  and  O_2
REMARK    2  A    between atoms: O_2  and  C_3
REMARK    3  A    between atoms: C_3  and  C_5
REMARK    4  A    between atoms: C_8  and  N_9
REMARK    5  A    between atoms: C_10  and  C_12
REMARK    6  A    between atoms: C_12  and  C_14
REMARK                            x       y       z     vdW  Elec       q    Type
REMARK                         _______ _______ _______ _____ _____    ______ ____
ROOT
ATOM      1  N   UNL     1       1.519   8.656  19.422  0.00  0.00    +0.000 N 
ATOM      2  C   UNL     1       1.477   9.781  18.570  0.00  0.00    +0.000 C 
ATOM      3  O   UNL     1       2.039   9.911  17.498  0.00  0.00    +0.000 OA
ATOM      4  H   UNL     1       0.948   8.745  20.259  0.00  0.00    +0.000 HD
ENDROOT
BRANCH   1   8
ATOM      5  C   UNL     1       3.717   5.017  18.816  0.00  0.00    +0.000 A 
ATOM      6  C   UNL     1       2.968   5.234  19.975  0.00  0.00    +0.000 A 
ATOM      7  C   UNL     1       2.255   6.426  20.178  0.00  0.00    +0.000 A 
ATOM      8  C   UNL     1       2.252   7.449  19.234  0.00  0.00    +0.000 A 
ATOM      9  C   UNL     1       3.002   7.237  18.059  0.00  0.00    +0.000 A 
ATOM     10  C   UNL     1       3.732   6.033  17.852  0.00  0.00    +0.000 A 
BRANCH   5  11
ATOM     11  C   UNL     1       4.427   3.706  18.695  0.00  0.00    +0.000 C 
ATOM     12  O   UNL     1       5.317   3.374  19.476  0.00  0.00    +0.000 OA
BRANCH  11  14
ATOM     13  C   UNL     1       2.962   2.056  17.902  0.00  0.00    +0.000 C 
ATOM     14  O   UNL     1       4.012   2.993  17.617  0.00  0.00    +0.000 OA
ENDBRANCH  11  14
ENDBRANCH   5  11
ENDBRANCH   1   8
BRANCH   2  15
ATOM     15  C   UNL     1       0.623  10.937  19.092  0.00  0.00    +0.000 C 
ATOM     16  O   UNL     1       1.166  11.563  20.013  0.00  0.00    +0.000 OA
BRANCH  15  17
ATOM     17  C   UNL     1      -0.742  11.332  18.646  0.00  0.00    +0.000 A 
ATOM     18  C   UNL     1      -1.265  12.533  19.124  0.00  0.00    +0.000 A 
ATOM     19  N   UNL     1      -2.619  12.423  19.063  0.00  0.00    +0.000 N 
ATOM     20  C   UNL     1      -2.923  11.649  17.977  0.00  0.00    +0.000 A 
ATOM     21  C   UNL     1      -4.122  11.596  17.251  0.00  0.00    +0.000 A 
ATOM     22  C   UNL     1      -4.180  10.714  16.181  0.00  0.00    +0.000 A 
ATOM     23  C   UNL     1      -3.106   9.864  15.922  0.00  0.00    +0.000 A 
ATOM     24  C   UNL     1      -1.922   9.902  16.698  0.00  0.00    +0.000 A 
ATOM     25  C   UNL     1      -1.779  10.866  17.727  0.00  0.00    +0.000 A 
ATOM     26  H   UNL     1      -3.286  12.945  19.615  0.00  0.00    +0.000 HD
ENDBRANCH  15  17
ENDBRANCH   2  15
TORSDOF 5
ENDMDL
MODEL 9
REMARK VINA RESULT:      -7.6      3.967      8.900
REMARK  Name = 
REMARK  6 active torsions:
REMARK  status: ('A' for Active; 'I' for Inactive)
REMARK    1  A    between atoms: C_1  and  O_2
REMARK    2  A    between atoms: O_2  and  C_3
REMARK    3  A    between atoms: C_3  and  C_5
REMARK    4  A    between atoms: C_8  and  N_9
REMARK    5  A    between atoms: C_10  and  C_12
REMARK    6  A    between atoms: C_12  and  C_14
REMARK                            x       y       z     vdW  Elec       q    Type
REMARK                         _______ _______ _______ _____ _____    ______ ____
ROOT
ATOM      1  N   UNL     1       1.457   8.553  19.645  0.00  0.00    +0.000 N 
ATOM      2  C   UNL     1       1.376   9.560  18.658  0.00  0.00    +0.000 C 
ATOM      3  O   UNL     1       1.849   9.529  17.537  0.00  0.00    +0.000 OA
ATOM      4  H   UNL     1       0.962   8.771  20.506  0.00  0.00    +0.000 HD
ENDROOT
BRANCH   1   8
ATOM      5  C   UNL     1       3.507   4.787  19.421  0.00  0.00    +0.000 A 
ATOM      6  C   UNL     1       3.756   5.810  18.504  0.00  0.00    +0.000 A 
ATOM      7  C   UNL     1       3.082   7.039  18.571  0.00  0.00    +0.000 A 
ATOM      8  C   UNL     1       2.135   7.304  19.558  0.00  0.00    +0.000 A 
ATOM      9  C   UNL     1       1.881   6.277  20.491  0.00  0.00    +0.000 A 
ATOM     10  C   UNL     1       2.557   5.028  20.422  0.00  0.00    +0.000 A 
BRANCH   5  11
ATOM     11  C   UNL     1       4.291   3.522  19.267  0.00  0.00    +0.000 C 
ATOM     12  O   UNL     1       5.510   3.529  19.099  0.00  0.00    +0.000 OA
BRANCH  11  14
ATOM     13  C   UNL     1       2.876   2.131  18.019  0.00  0.00    +0.000 C 
ATOM     14  O   UNL     1       3.499   2.421  19.280  0.00  0.00    +0.000 OA
ENDBRANCH  11  14
ENDBRANCH   5  11
ENDBRANCH   1   8
BRANCH   2  15
ATOM     15  C   UNL     1       0.604  10.807  19.091  0.00  0.00    +0.000 C 
ATOM     16  O   UNL     1       1.199  11.472  19.951  0.00  0.00    +0.000 OA
BRANCH  15  17
ATOM     17  C   UNL     1      -0.742  11.249  18.629  0.00  0.00    +0.000 A 
ATOM     18  C   UNL     1      -1.219  12.479  19.081  0.00  0.00    +0.000 A 
ATOM     19  N   UNL     1      -2.575  12.423  19.013  0.00  0.00    +0.000 N 
ATOM     20  C   UNL     1      -2.904  11.643  17.939  0.00  0.00    +0.000 A 
ATOM     21  C   UNL     1      -4.098  11.626  17.205  0.00  0.00    +0.000 A 
ATOM     22  C   UNL     1      -4.185  10.727  16.150  0.00  0.00    +0.000 A 
ATOM     23  C   UNL     1      -3.146   9.830  15.913  0.00  0.00    +0.000 A 
ATOM     24  C   UNL     1      -1.966   9.834  16.697  0.00  0.00    +0.000 A 
ATOM     25  C   UNL     1      -1.791  10.809  17.710  0.00  0.00    +0.000 A 
ATOM     26  H   UNL     1      -3.223  12.981  19.550  0.00  0.00    +0.000 HD
ENDBRANCH  15  17
ENDBRANCH   2  15
TORSDOF 5
ENDMDL
