MODEL 1
REMARK VINA RESULT:      -7.4      0.000      0.000
REMARK  Name = 
REMARK  4 active torsions:
REMARK  status: ('A' for Active; 'I' for Inactive)
REMARK    1  A    between atoms: C_2  and  C_4
REMARK    2  A    between atoms: N_7  and  C_8
REMARK    3  A    between atoms: C_8  and  C_9
REMARK    4  A    between atoms: C_14  and  O_15
REMARK                            x       y       z     vdW  Elec       q    Type
REMARK                         _______ _______ _______ _____ _____    ______ ____
ROOT
ATOM      1  C   UNL     1       6.094   5.168  15.845  0.00  0.00    +0.000 C 
ATOM      2  C   UNL     1       5.183   6.386  15.674  0.00  0.00    +0.000 C 
ATOM      3  C   UNL     1       4.409   6.698  16.955  0.00  0.00    +0.000 C 
ATOM      4  N   UNL     1       3.619   5.549  17.431  0.00  0.00    +0.000 NA
ATOM      5  C   UNL     1       4.465   4.356  17.616  0.00  0.00    +0.000 C 
ATOM      6  C   UNL     1       5.262   3.994  16.359  0.00  0.00    +0.000 C 
ENDROOT
BRANCH   1   8
ATOM      7  N   UNL     1       7.905   4.347  17.271  0.00  0.00    +0.000 N 
ATOM      8  C   UNL     1       7.293   5.449  16.750  0.00  0.00    +0.000 C 
ATOM      9  O   UNL     1       7.691   6.566  17.054  0.00  0.00    +0.000 OA
ATOM     10  H   UNL     1       8.663   4.508  17.922  0.00  0.00    +0.000 HD
ATOM     11  H   UNL     1       7.532   3.414  17.183  0.00  0.00    +0.000 HD
ENDBRANCH   1   8
BRANCH   4  12
ATOM     12  C   UNL     1       2.969   5.929  18.716  0.00  0.00    +0.000 C 
BRANCH  12  13
ATOM     13  C   UNL     1       2.356   4.767  19.471  0.00  0.00    +0.000 A 
ATOM     14  C   UNL     1       2.690   4.553  20.819  0.00  0.00    +0.000 A 
ATOM     15  C   UNL     1       2.072   3.540  21.552  0.00  0.00    +0.000 A 
ATOM     16  C   UNL     1       1.117   2.723  20.950  0.00  0.00    +0.000 A 
ATOM     17  C   UNL     1       0.793   2.904  19.607  0.00  0.00    +0.000 A 
ATOM     18  C   UNL     1       1.415   3.916  18.876  0.00  0.00    +0.000 A 
BRANCH  18  19
ATOM     19  O   UNL     1       1.092   4.098  17.560  0.00  0.00    +0.000 OA
ATOM     20  H   UNL     1       0.212   3.722  17.399  0.00  0.00    +0.000 HD
ENDBRANCH  18  19
ENDBRANCH  12  13
ENDBRANCH   4  12
TORSDOF 4
ENDMDL
MODEL 2
REMARK VINA RESULT:      -7.4      1.721      2.451
REMARK  Name = 
REMARK  4 active torsions:
REMARK  status: ('A' for Active; 'I' for Inactive)
REMARK    1  A    between atoms: C_2  and  C_4
REMARK    2  A    between atoms: N_7  and  C_8
REMARK    3  A    between atoms: C_8  and  C_9
REMARK    4  A    between atoms: C_14  and  O_15
REMARK                            x       y       z     vdW  Elec       q    Type
REMARK                         _______ _______ _______ _____ _____    ______ ____
ROOT
ATOM      1  C   UNL     1       7.077   5.359  17.127  0.00  0.00    +0.000 C 
ATOM      2  C   UNL     1       6.368   4.525  18.197  0.00  0.00    +0.000 C 
ATOM      3  C   UNL     1       4.848   4.584  18.044  0.00  0.00    +0.000 C 
ATOM      4  N   UNL     1       4.332   5.964  18.065  0.00  0.00    +0.000 NA
ATOM      5  C   UNL     1       4.986   6.797  17.040  0.00  0.00    +0.000 C 
ATOM      6  C   UNL     1       6.513   6.780  17.149  0.00  0.00    +0.000 C 
ENDROOT
BRANCH   1   8
ATOM      7  N   UNL     1       7.591   5.439  14.736  0.00  0.00    +0.000 N 
ATOM      8  C   UNL     1       6.983   4.736  15.734  0.00  0.00    +0.000 C 
ATOM      9  O   UNL     1       6.379   3.705  15.470  0.00  0.00    +0.000 OA
ATOM     10  H   UNL     1       7.491   5.079  13.795  0.00  0.00    +0.000 HD
ATOM     11  H   UNL     1       7.969   6.366  14.862  0.00  0.00    +0.000 HD
ENDBRANCH   1   8
BRANCH   4  12
ATOM     12  C   UNL     1       2.861   5.916  17.834  0.00  0.00    +0.000 C 
BRANCH  12  13
ATOM     13  C   UNL     1       2.129   4.898  18.686  0.00  0.00    +0.000 A 
ATOM     14  C   UNL     1       1.538   3.775  18.082  0.00  0.00    +0.000 A 
ATOM     15  C   UNL     1       0.934   2.787  18.860  0.00  0.00    +0.000 A 
ATOM     16  C   UNL     1       0.906   2.907  20.248  0.00  0.00    +0.000 A 
ATOM     17  C   UNL     1       1.464   4.028  20.861  0.00  0.00    +0.000 A 
ATOM     18  C   UNL     1       2.066   5.015  20.081  0.00  0.00    +0.000 A 
BRANCH  18  19
ATOM     19  O   UNL     1       2.619   6.111  20.682  0.00  0.00    +0.000 OA
ATOM     20  H   UNL     1       2.539   6.871  20.083  0.00  0.00    +0.000 HD
ENDBRANCH  18  19
ENDBRANCH  12  13
ENDBRANCH   4  12
TORSDOF 4
ENDMDL
MODEL 3
REMARK VINA RESULT:      -7.3      1.612      2.056
REMARK  Name = 
REMARK  4 active torsions:
REMARK  status: ('A' for Active; 'I' for Inactive)
REMARK    1  A    between atoms: C_2  and  C_4
REMARK    2  A    between atoms: N_7  and  C_8
REMARK    3  A    between atoms: C_8  and  C_9
REMARK    4  A    between atoms: C_14  and  O_15
REMARK                            x       y       z     vdW  Elec       q    Type
REMARK                         _______ _______ _______ _____ _____    ______ ____
ROOT
ATOM      1  C   UNL     1       7.223   5.782  17.015  0.00  0.00    +0.000 C 
ATOM      2  C   UNL     1       6.162   6.020  15.938  0.00  0.00    +0.000 C 
ATOM      3  C   UNL     1       4.816   6.415  16.547  0.00  0.00    +0.000 C 
ATOM      4  N   UNL     1       4.324   5.424  17.519  0.00  0.00    +0.000 NA
ATOM      5  C   UNL     1       5.317   5.174  18.580  0.00  0.00    +0.000 C 
ATOM      6  C   UNL     1       6.686   4.769  18.026  0.00  0.00    +0.000 C 
ENDROOT
BRANCH   1   8
ATOM      7  N   UNL     1       8.248   6.919  18.924  0.00  0.00    +0.000 N 
ATOM      8  C   UNL     1       7.673   7.074  17.697  0.00  0.00    +0.000 C 
ATOM      9  O   UNL     1       7.515   8.197  17.237  0.00  0.00    +0.000 OA
ATOM     10  H   UNL     1       8.498   7.764  19.423  0.00  0.00    +0.000 HD
ATOM     11  H   UNL     1       8.265   6.041  19.420  0.00  0.00    +0.000 HD
ENDBRANCH   1   8
BRANCH   4  12
ATOM     12  C   UNL     1       3.055   5.936  18.106  0.00  0.00    +0.000 C 
BRANCH  12  13
ATOM     13  C   UNL     1       2.201   4.873  18.766  0.00  0.00    +0.000 A 
ATOM     14  C   UNL     1       1.714   3.794  18.009  0.00  0.00    +0.000 A 
ATOM     15  C   UNL     1       0.997   2.764  18.618  0.00  0.00    +0.000 A 
ATOM     16  C   UNL     1       0.752   2.798  19.989  0.00  0.00    +0.000 A 
ATOM     17  C   UNL     1       1.204   3.873  20.751  0.00  0.00    +0.000 A 
ATOM     18  C   UNL     1       1.918   4.903  20.139  0.00  0.00    +0.000 A 
BRANCH  18  19
ATOM     19  O   UNL     1       2.368   5.955  20.887  0.00  0.00    +0.000 OA
ATOM     20  H   UNL     1       1.680   6.200  21.528  0.00  0.00    +0.000 HD
ENDBRANCH  18  19
ENDBRANCH  12  13
ENDBRANCH   4  12
TORSDOF 4
ENDMDL
MODEL 4
REMARK VINA RESULT:      -7.3      2.159      2.727
REMARK  Name = 
REMARK  4 active torsions:
REMARK  status: ('A' for Active; 'I' for Inactive)
REMARK    1  A    between atoms: C_2  and  C_4
REMARK    2  A    between atoms: N_7  and  C_8
REMARK    3  A    between atoms: C_8  and  C_9
REMARK    4  A    between atoms: C_14  and  O_15
REMARK                            x       y       z     vdW  Elec       q    Type
REMARK                         _______ _______ _______ _____ _____    ______ ____
ROOT
ATOM      1  C   UNL     1       7.692   5.896  18.020  0.00  0.00    +0.000 C 
ATOM      2  C   UNL     1       7.500   4.659  17.140  0.00  0.00    +0.000 C 
ATOM      3  C   UNL     1       6.023   4.294  16.991  0.00  0.00    +0.000 C 
ATOM      4  N   UNL     1       5.358   4.089  18.290  0.00  0.00    +0.000 NA
ATOM      5  C   UNL     1       5.513   5.266  19.164  0.00  0.00    +0.000 C 
ATOM      6  C   UNL     1       6.977   5.674  19.353  0.00  0.00    +0.000 C 
ENDROOT
BRANCH   1   8
ATOM      7  N   UNL     1       7.869   8.320  17.734  0.00  0.00    +0.000 N 
ATOM      8  C   UNL     1       7.226   7.184  17.340  0.00  0.00    +0.000 C 
ATOM      9  O   UNL     1       6.316   7.252  16.524  0.00  0.00    +0.000 OA
ATOM     10  H   UNL     1       7.538   9.193  17.343  0.00  0.00    +0.000 HD
ATOM     11  H   UNL     1       8.515   8.350  18.508  0.00  0.00    +0.000 HD
ENDBRANCH   1   8
BRANCH   4  12
ATOM     12  C   UNL     1       3.916   3.815  18.039  0.00  0.00    +0.000 C 
BRANCH  12  13
ATOM     13  C   UNL     1       3.106   3.544  19.290  0.00  0.00    +0.000 A 
ATOM     14  C   UNL     1       1.861   4.170  19.469  0.00  0.00    +0.000 A 
ATOM     15  C   UNL     1       1.066   3.867  20.575  0.00  0.00    +0.000 A 
ATOM     16  C   UNL     1       1.503   2.939  21.519  0.00  0.00    +0.000 A 
ATOM     17  C   UNL     1       2.747   2.328  21.370  0.00  0.00    +0.000 A 
ATOM     18  C   UNL     1       3.540   2.636  20.265  0.00  0.00    +0.000 A 
BRANCH  18  19
ATOM     19  O   UNL     1       4.758   2.031  20.116  0.00  0.00    +0.000 OA
ATOM     20  H   UNL     1       4.728   1.456  19.334  0.00  0.00    +0.000 HD
ENDBRANCH  18  19
ENDBRANCH  12  13
ENDBRANCH   4  12
TORSDOF 4
ENDMDL
MODEL 5
REMARK VINA RESULT:      -7.3      1.255      1.330
REMARK  Name = 
REMARK  4 active torsions:
REMARK  status: ('A' for Active; 'I' for Inactive)
REMARK    1  A    between atoms: C_2  and  C_4
REMARK    2  A    between atoms: N_7  and  C_8
REMARK    3  A    between atoms: C_8  and  C_9
REMARK    4  A    between atoms: C_14  and  O_15
REMARK                            x       y       z     vdW  Elec       q    Type
REMARK                         _______ _______ _______ _____ _____    ______ ____
ROOT
ATOM      1  C   UNL     1       6.948   5.845  16.878  0.00  0.00    +0.000 C 
ATOM      2  C   UNL     1       5.781   6.422  16.073  0.00  0.00    +0.000 C 
ATOM      3  C   UNL     1       4.569   6.709  16.960  0.00  0.00    +0.000 C 
ATOM      4  N   UNL     1       4.120   5.520  17.704  0.00  0.00    +0.000 NA
ATOM      5  C   UNL     1       5.217   4.939  18.500  0.00  0.00    +0.000 C 
ATOM      6  C   UNL     1       6.458   4.626  17.660  0.00  0.00    +0.000 C 
ENDROOT
BRANCH   1   8
ATOM      7  N   UNL     1       7.670   8.146  17.296  0.00  0.00    +0.000 N 
ATOM      8  C   UNL     1       7.601   6.878  17.796  0.00  0.00    +0.000 C 
ATOM      9  O   UNL     1       8.083   6.630  18.894  0.00  0.00    +0.000 OA
ATOM     10  H   UNL     1       8.153   8.835  17.859  0.00  0.00    +0.000 HD
ATOM     11  H   UNL     1       7.433   8.379  16.344  0.00  0.00    +0.000 HD
ENDBRANCH   1   8
BRANCH   4  12
ATOM     12  C   UNL     1       2.991   5.920  18.589  0.00  0.00    +0.000 C 
BRANCH  12  13
ATOM     13  C   UNL     1       2.357   4.773  19.349  0.00  0.00    +0.000 A 
ATOM     14  C   UNL     1       2.521   4.679  20.741  0.00  0.00    +0.000 A 
ATOM     15  C   UNL     1       1.876   3.677  21.466  0.00  0.00    +0.000 A 
ATOM     16  C   UNL     1       1.062   2.753  20.813  0.00  0.00    +0.000 A 
ATOM     17  C   UNL     1       0.910   2.816  19.429  0.00  0.00    +0.000 A 
ATOM     18  C   UNL     1       1.559   3.817  18.707  0.00  0.00    +0.000 A 
BRANCH  18  19
ATOM     19  O   UNL     1       1.404   3.883  17.350  0.00  0.00    +0.000 OA
ATOM     20  H   UNL     1       1.774   3.078  16.954  0.00  0.00    +0.000 HD
ENDBRANCH  18  19
ENDBRANCH  12  13
ENDBRANCH   4  12
TORSDOF 4
ENDMDL
MODEL 6
REMARK VINA RESULT:      -7.3      1.335      1.750
REMARK  Name = 
REMARK  4 active torsions:
REMARK  status: ('A' for Active; 'I' for Inactive)
REMARK    1  A    between atoms: C_2  and  C_4
REMARK    2  A    between atoms: N_7  and  C_8
REMARK    3  A    between atoms: C_8  and  C_9
REMARK    4  A    between atoms: C_14  and  O_15
REMARK                            x       y       z     vdW  Elec       q    Type
REMARK                         _______ _______ _______ _____ _____    ______ ____
ROOT
ATOM      1  C   UNL     1       5.739   6.551  16.517  0.00  0.00    +0.000 C 
ATOM      2  C   UNL     1       4.637   6.595  17.578  0.00  0.00    +0.000 C 
ATOM      3  C   UNL     1       4.387   5.216  18.190  0.00  0.00    +0.000 C 
ATOM      4  N   UNL     1       4.061   4.199  17.176  0.00  0.00    +0.000 NA
ATOM      5  C   UNL     1       5.106   4.121  16.140  0.00  0.00    +0.000 C 
ATOM      6  C   UNL     1       5.395   5.476  15.487  0.00  0.00    +0.000 C 
ENDROOT
BRANCH   1   8
ATOM      7  N   UNL     1       7.689   7.425  17.711  0.00  0.00    +0.000 N 
ATOM      8  C   UNL     1       7.129   6.333  17.117  0.00  0.00    +0.000 C 
ATOM      9  O   UNL     1       7.757   5.284  17.058  0.00  0.00    +0.000 OA
ATOM     10  H   UNL     1       8.633   7.324  18.061  0.00  0.00    +0.000 HD
ATOM     11  H   UNL     1       7.290   8.351  17.656  0.00  0.00    +0.000 HD
ENDBRANCH   1   8
BRANCH   4  12
ATOM     12  C   UNL     1       3.911   2.886  17.863  0.00  0.00    +0.000 C 
BRANCH  12  13
ATOM     13  C   UNL     1       2.955   2.902  19.038  0.00  0.00    +0.000 A 
ATOM     14  C   UNL     1       3.422   2.588  20.326  0.00  0.00    +0.000 A 
ATOM     15  C   UNL     1       2.575   2.680  21.430  0.00  0.00    +0.000 A 
ATOM     16  C   UNL     1       1.250   3.081  21.266  0.00  0.00    +0.000 A 
ATOM     17  C   UNL     1       0.764   3.371  19.993  0.00  0.00    +0.000 A 
ATOM     18  C   UNL     1       1.613   3.276  18.890  0.00  0.00    +0.000 A 
BRANCH  18  19
ATOM     19  O   UNL     1       1.137   3.568  17.642  0.00  0.00    +0.000 OA
ATOM     20  H   UNL     1       0.183   3.735  17.702  0.00  0.00    +0.000 HD
ENDBRANCH  18  19
ENDBRANCH  12  13
ENDBRANCH   4  12
TORSDOF 4
ENDMDL
MODEL 7
REMARK VINA RESULT:      -7.3      1.816      2.371
REMARK  Name = 
REMARK  4 active torsions:
REMARK  status: ('A' for Active; 'I' for Inactive)
REMARK    1  A    between atoms: C_2  and  C_4
REMARK    2  A    between atoms: N_7  and  C_8
REMARK    3  A    between atoms: C_8  and  C_9
REMARK    4  A    between atoms: C_14  and  O_15
REMARK                            x       y       z     vdW  Elec       q    Type
REMARK                         _______ _______ _______ _____ _____    ______ ____
ROOT
ATOM      1  C   UNL     1       5.656   6.518  16.306  0.00  0.00    +0.000 C 
ATOM      2  C   UNL     1       4.536   6.581  17.347  0.00  0.00    +0.000 C 
ATOM      3  C   UNL     1       4.308   5.224  18.015  0.00  0.00    +0.000 C 
ATOM      4  N   UNL     1       4.024   4.156  17.042  0.00  0.00    +0.000 NA
ATOM      5  C   UNL     1       5.088   4.059  16.026  0.00  0.00    +0.000 C 
ATOM      6  C   UNL     1       5.356   5.391  15.319  0.00  0.00    +0.000 C 
ENDROOT
BRANCH   1   8
ATOM      7  N   UNL     1       7.659   7.524  17.290  0.00  0.00    +0.000 N 
ATOM      8  C   UNL     1       7.040   6.361  16.936  0.00  0.00    +0.000 C 
ATOM      9  O   UNL     1       7.617   5.293  17.096  0.00  0.00    +0.000 OA
ATOM     10  H   UNL     1       8.601   7.450  17.652  0.00  0.00    +0.000 HD
ATOM     11  H   UNL     1       7.305   8.436  17.044  0.00  0.00    +0.000 HD
ENDBRANCH   1   8
BRANCH   4  12
ATOM     12  C   UNL     1       3.894   2.871  17.783  0.00  0.00    +0.000 C 
BRANCH  12  13
ATOM     13  C   UNL     1       3.018   2.948  19.016  0.00  0.00    +0.000 A 
ATOM     14  C   UNL     1       1.671   3.331  18.896  0.00  0.00    +0.000 A 
ATOM     15  C   UNL     1       0.829   3.326  20.008  0.00  0.00    +0.000 A 
ATOM     16  C   UNL     1       1.319   2.944  21.256  0.00  0.00    +0.000 A 
ATOM     17  C   UNL     1       2.659   2.588  21.398  0.00  0.00    +0.000 A 
ATOM     18  C   UNL     1       3.498   2.596  20.284  0.00  0.00    +0.000 A 
BRANCH  18  19
ATOM     19  O   UNL     1       4.811   2.239  20.423  0.00  0.00    +0.000 OA
ATOM     20  H   UNL     1       5.348   3.045  20.498  0.00  0.00    +0.000 HD
ENDBRANCH  18  19
ENDBRANCH  12  13
ENDBRANCH   4  12
TORSDOF 4
ENDMDL
MODEL 8
REMARK VINA RESULT:      -7.2      1.373      1.921
REMARK  Name = 
REMARK  4 active torsions:
REMARK  status: ('A' for Active; 'I' for Inactive)
REMARK    1  A    between atoms: C_2  and  C_4
REMARK    2  A    between atoms: N_7  and  C_8
REMARK    3  A    between atoms: C_8  and  C_9
REMARK    4  A    between atoms: C_14  and  O_15
REMARK                            x       y       z     vdW  Elec       q    Type
REMARK                         _______ _______ _______ _____ _____    ______ ____
ROOT
ATOM      1  C   UNL     1       7.143   5.376  17.037  0.00  0.00    +0.000 C 
ATOM      2  C   UNL     1       6.560   4.529  18.171  0.00  0.00    +0.000 C 
ATOM      3  C   UNL     1       5.032   4.553  18.167  0.00  0.00    +0.000 C 
ATOM      4  N   UNL     1       4.488   5.920  18.238  0.00  0.00    +0.000 NA
ATOM      5  C   UNL     1       5.020   6.766  17.153  0.00  0.00    +0.000 C 
ATOM      6  C   UNL     1       6.551   6.783  17.113  0.00  0.00    +0.000 C 
ENDROOT
BRANCH   1   8
ATOM      7  N   UNL     1       7.505   5.411  14.617  0.00  0.00    +0.000 N 
ATOM      8  C   UNL     1       6.928   4.748  15.660  0.00  0.00    +0.000 C 
ATOM      9  O   UNL     1       6.258   3.746  15.447  0.00  0.00    +0.000 OA
ATOM     10  H   UNL     1       7.326   5.049  13.689  0.00  0.00    +0.000 HD
ATOM     11  H   UNL     1       7.936   6.319  14.709  0.00  0.00    +0.000 HD
ENDBRANCH   1   8
BRANCH   4  12
ATOM     12  C   UNL     1       3.003   5.838  18.151  0.00  0.00    +0.000 C 
BRANCH  12  13
ATOM     13  C   UNL     1       2.381   4.810  19.074  0.00  0.00    +0.000 A 
ATOM     14  C   UNL     1       2.619   4.875  20.457  0.00  0.00    +0.000 A 
ATOM     15  C   UNL     1       1.987   3.987  21.328  0.00  0.00    +0.000 A 
ATOM     16  C   UNL     1       1.114   3.020  20.833  0.00  0.00    +0.000 A 
ATOM     17  C   UNL     1       0.887   2.925  19.461  0.00  0.00    +0.000 A 
ATOM     18  C   UNL     1       1.523   3.812  18.592  0.00  0.00    +0.000 A 
BRANCH  18  19
ATOM     19  O   UNL     1       1.295   3.723  17.247  0.00  0.00    +0.000 OA
ATOM     20  H   UNL     1       1.452   2.808  16.963  0.00  0.00    +0.000 HD
ENDBRANCH  18  19
ENDBRANCH  12  13
ENDBRANCH   4  12
TORSDOF 4
ENDMDL
MODEL 9
REMARK VINA RESULT:      -7.1      1.477      2.266
REMARK  Name = 
REMARK  4 active torsions:
REMARK  status: ('A' for Active; 'I' for Inactive)
REMARK    1  A    between atoms: C_2  and  C_4
REMARK    2  A    between atoms: N_7  and  C_8
REMARK    3  A    between atoms: C_8  and  C_9
REMARK    4  A    between atoms: C_14  and  O_15
REMARK                            x       y       z     vdW  Elec       q    Type
REMARK                         _______ _______ _______ _____ _____    ______ ____
ROOT
ATOM      1  C   UNL     1       7.004   6.289  17.791  0.00  0.00    +0.000 C 
ATOM      2  C   UNL     1       6.396   5.502  18.954  0.00  0.00    +0.000 C 
ATOM      3  C   UNL     1       4.998   4.982  18.616  0.00  0.00    +0.000 C 
ATOM      4  N   UNL     1       4.079   6.058  18.209  0.00  0.00    +0.000 NA
ATOM      5  C   UNL     1       4.627   6.835  17.082  0.00  0.00    +0.000 C 
ATOM      6  C   UNL     1       6.027   7.386  17.368  0.00  0.00    +0.000 C 
ENDROOT
BRANCH   1   8
ATOM      7  N   UNL     1       7.887   4.169  16.945  0.00  0.00    +0.000 N 
ATOM      8  C   UNL     1       7.393   5.396  16.613  0.00  0.00    +0.000 C 
ATOM      9  O   UNL     1       7.327   5.726  15.436  0.00  0.00    +0.000 OA
ATOM     10  H   UNL     1       8.209   3.582  16.185  0.00  0.00    +0.000 HD
ATOM     11  H   UNL     1       8.110   3.899  17.892  0.00  0.00    +0.000 HD
ENDBRANCH   1   8
BRANCH   4  12
ATOM     12  C   UNL     1       2.777   5.442  17.830  0.00  0.00    +0.000 C 
BRANCH  12  13
ATOM     13  C   UNL     1       2.205   4.502  18.872  0.00  0.00    +0.000 A 
ATOM     14  C   UNL     1       1.870   3.184  18.518  0.00  0.00    +0.000 A 
ATOM     15  C   UNL     1       1.422   2.282  19.483  0.00  0.00    +0.000 A 
ATOM     16  C   UNL     1       1.297   2.682  20.812  0.00  0.00    +0.000 A 
ATOM     17  C   UNL     1       1.600   3.993  21.176  0.00  0.00    +0.000 A 
ATOM     18  C   UNL     1       2.046   4.894  20.208  0.00  0.00    +0.000 A 
BRANCH  18  19
ATOM     19  O   UNL     1       2.350   6.178  20.565  0.00  0.00    +0.000 OA
ATOM     20  H   UNL     1       3.268   6.206  20.879  0.00  0.00    +0.000 HD
ENDBRANCH  18  19
ENDBRANCH  12  13
ENDBRANCH   4  12
TORSDOF 4
ENDMDL
