MODEL 1
REMARK VINA RESULT:      -6.4      0.000      0.000
REMARK  Name = 
REMARK  8 active torsions:
REMARK  status: ('A' for Active; 'I' for Inactive)
REMARK    1  A    between atoms: C_1  and  C_2
REMARK    2  A    between atoms: C_2  and  N_3
REMARK    3  A    between atoms: N_3  and  C_4
REMARK    4  A    between atoms: N_3  and  C_6
REMARK    5  A    between atoms: C_4  and  C_5
REMARK    6  A    between atoms: C_9  and  C_10
REMARK    7  A    between atoms: C_11  and  C_12
REMARK    8  A    between atoms: C_11  and  C_14
REMARK                            x       y       z     vdW  Elec       q    Type
REMARK                         _______ _______ _______ _____ _____    ______ ____
ROOT
ATOM      1  C   UNL     1       2.501   4.793  18.897  0.00  0.00    +0.000 A 
ATOM      2  C   UNL     1       2.694   3.623  18.151  0.00  0.00    +0.000 A 
ATOM      3  C   UNL     1       3.563   3.587  17.058  0.00  0.00    +0.000 A 
ATOM      4  C   UNL     1       4.258   4.734  16.676  0.00  0.00    +0.000 A 
ATOM      5  C   UNL     1       4.096   5.908  17.414  0.00  0.00    +0.000 A 
ATOM      6  C   UNL     1       3.222   5.934  18.510  0.00  0.00    +0.000 A 
ENDROOT
BRANCH   4   7
ATOM      7  C   UNL     1       5.085   4.700  15.467  0.00  0.00    +0.000 C 
ATOM      8  C   UNL     1       6.433   4.654  15.494  0.00  0.00    +0.000 C 
BRANCH   8   9
ATOM      9  C   UNL     1       7.158   4.698  14.189  0.00  0.00    +0.000 C 
ATOM     10  N   UNL     1       6.792   3.783  13.246  0.00  0.00    +0.000 N 
ATOM     11  O   UNL     1       8.053   5.502  13.950  0.00  0.00    +0.000 OA
ATOM     12  H   UNL     1       6.075   3.080  13.356  0.00  0.00    +0.000 HD
ATOM     13  H   UNL     1       7.292   3.803  12.362  0.00  0.00    +0.000 HD
ENDBRANCH   8   9
BRANCH   8  14
ATOM     14  C   UNL     1       7.174   4.590  16.707  0.00  0.00    +0.000 C 
ATOM     15  N   UNL     1       7.722   4.519  17.724  0.00  0.00    +0.000 NA
ENDBRANCH   8  14
ENDBRANCH   4   7
BRANCH   1  16
ATOM     16  N   UNL     1       1.624   4.854  19.996  0.00  0.00    +0.000 N 
BRANCH  16  18
ATOM     17  C   UNL     1       1.239   7.096  20.983  0.00  0.00    +0.000 C 
ATOM     18  C   UNL     1       1.995   5.780  21.079  0.00  0.00    +0.000 C 
ENDBRANCH  16  18
BRANCH  16  19
ATOM     19  C   UNL     1       1.051   3.545  20.375  0.00  0.00    +0.000 C 
ATOM     20  C   UNL     1       1.733   2.909  21.584  0.00  0.00    +0.000 C 
ENDBRANCH  16  19
ENDBRANCH   1  16
TORSDOF 6
ENDMDL
MODEL 2
REMARK VINA RESULT:      -6.3      0.750      2.013
REMARK  Name = 
REMARK  8 active torsions:
REMARK  status: ('A' for Active; 'I' for Inactive)
REMARK    1  A    between atoms: C_1  and  C_2
REMARK    2  A    between atoms: C_2  and  N_3
REMARK    3  A    between atoms: N_3  and  C_4
REMARK    4  A    between atoms: N_3  and  C_6
REMARK    5  A    between atoms: C_4  and  C_5
REMARK    6  A    between atoms: C_9  and  C_10
REMARK    7  A    between atoms: C_11  and  C_12
REMARK    8  A    between atoms: C_11  and  C_14
REMARK                            x       y       z     vdW  Elec       q    Type
REMARK                         _______ _______ _______ _____ _____    ______ ____
ROOT
ATOM      1  C   UNL     1       3.273   4.530  19.269  0.00  0.00    +0.000 A 
ATOM      2  C   UNL     1       4.273   5.476  19.012  0.00  0.00    +0.000 A 
ATOM      3  C   UNL     1       4.866   5.590  17.752  0.00  0.00    +0.000 A 
ATOM      4  C   UNL     1       4.475   4.745  16.715  0.00  0.00    +0.000 A 
ATOM      5  C   UNL     1       3.469   3.804  16.941  0.00  0.00    +0.000 A 
ATOM      6  C   UNL     1       2.879   3.699  18.209  0.00  0.00    +0.000 A 
ENDROOT
BRANCH   4   7
ATOM      7  C   UNL     1       5.181   4.813  15.432  0.00  0.00    +0.000 C 
ATOM      8  C   UNL     1       6.519   4.685  15.317  0.00  0.00    +0.000 C 
BRANCH   8   9
ATOM      9  C   UNL     1       7.120   4.848  13.959  0.00  0.00    +0.000 C 
ATOM     10  N   UNL     1       6.622   4.062  12.962  0.00  0.00    +0.000 N 
ATOM     11  O   UNL     1       8.028   5.638  13.722  0.00  0.00    +0.000 OA
ATOM     12  H   UNL     1       5.884   3.379  13.066  0.00  0.00    +0.000 HD
ATOM     13  H   UNL     1       7.037   4.162  12.041  0.00  0.00    +0.000 HD
ENDBRANCH   8   9
BRANCH   8  14
ATOM     14  C   UNL     1       7.364   4.428  16.432  0.00  0.00    +0.000 C 
ATOM     15  N   UNL     1       8.080   4.277  17.330  0.00  0.00    +0.000 NA
ENDBRANCH   8  14
ENDBRANCH   4   7
BRANCH   1  16
ATOM     16  N   UNL     1       2.668   4.393  20.534  0.00  0.00    +0.000 N 
BRANCH  16  18
ATOM     17  C   UNL     1       1.454   2.566  21.690  0.00  0.00    +0.000 C 
ATOM     18  C   UNL     1       2.792   3.075  21.179  0.00  0.00    +0.000 C 
ENDBRANCH  16  18
BRANCH  16  19
ATOM     19  C   UNL     1       1.377   5.100  20.656  0.00  0.00    +0.000 C 
ATOM     20  C   UNL     1       1.500   6.618  20.541  0.00  0.00    +0.000 C 
ENDBRANCH  16  19
ENDBRANCH   1  16
TORSDOF 6
ENDMDL
MODEL 3
REMARK VINA RESULT:      -6.3      1.564      1.686
REMARK  Name = 
REMARK  8 active torsions:
REMARK  status: ('A' for Active; 'I' for Inactive)
REMARK    1  A    between atoms: C_1  and  C_2
REMARK    2  A    between atoms: C_2  and  N_3
REMARK    3  A    between atoms: N_3  and  C_4
REMARK    4  A    between atoms: N_3  and  C_6
REMARK    5  A    between atoms: C_4  and  C_5
REMARK    6  A    between atoms: C_9  and  C_10
REMARK    7  A    between atoms: C_11  and  C_12
REMARK    8  A    between atoms: C_11  and  C_14
REMARK                            x       y       z     vdW  Elec       q    Type
REMARK                         _______ _______ _______ _____ _____    ______ ____
ROOT
ATOM      1  C   UNL     1       2.602   4.069  18.999  0.00  0.00    +0.000 A 
ATOM      2  C   UNL     1       2.228   3.754  17.686  0.00  0.00    +0.000 A 
ATOM      3  C   UNL     1       3.177   3.602  16.672  0.00  0.00    +0.000 A 
ATOM      4  C   UNL     1       4.532   3.772  16.948  0.00  0.00    +0.000 A 
ATOM      5  C   UNL     1       4.932   4.070  18.252  0.00  0.00    +0.000 A 
ATOM      6  C   UNL     1       3.972   4.220  19.263  0.00  0.00    +0.000 A 
ENDROOT
BRANCH   4   7
ATOM      7  C   UNL     1       5.500   3.708  15.849  0.00  0.00    +0.000 C 
ATOM      8  C   UNL     1       5.859   4.782  15.117  0.00  0.00    +0.000 C 
BRANCH   8   9
ATOM      9  C   UNL     1       6.801   4.565  13.978  0.00  0.00    +0.000 C 
ATOM     10  N   UNL     1       7.903   5.366  13.923  0.00  0.00    +0.000 N 
ATOM     11  O   UNL     1       6.614   3.719  13.109  0.00  0.00    +0.000 OA
ATOM     12  H   UNL     1       8.135   6.092  14.586  0.00  0.00    +0.000 HD
ATOM     13  H   UNL     1       8.539   5.228  13.143  0.00  0.00    +0.000 HD
ENDBRANCH   8   9
BRANCH   8  14
ATOM     14  C   UNL     1       5.361   6.089  15.376  0.00  0.00    +0.000 C 
ATOM     15  N   UNL     1       5.007   7.163  15.623  0.00  0.00    +0.000 NA
ENDBRANCH   8  14
ENDBRANCH   4   7
BRANCH   1  16
ATOM     16  N   UNL     1       1.662   4.235  20.034  0.00  0.00    +0.000 N 
BRANCH  16  18
ATOM     17  C   UNL     1       1.574   6.646  20.606  0.00  0.00    +0.000 C 
ATOM     18  C   UNL     1       1.982   5.251  21.051  0.00  0.00    +0.000 C 
ENDBRANCH  16  18
BRANCH  16  19
ATOM     19  C   UNL     1       1.050   2.971  20.492  0.00  0.00    +0.000 C 
ATOM     20  C   UNL     1       1.582   2.490  21.840  0.00  0.00    +0.000 C 
ENDBRANCH  16  19
ENDBRANCH   1  16
TORSDOF 6
ENDMDL
MODEL 4
REMARK VINA RESULT:      -6.2      0.744      1.739
REMARK  Name = 
REMARK  8 active torsions:
REMARK  status: ('A' for Active; 'I' for Inactive)
REMARK    1  A    between atoms: C_1  and  C_2
REMARK    2  A    between atoms: C_2  and  N_3
REMARK    3  A    between atoms: N_3  and  C_4
REMARK    4  A    between atoms: N_3  and  C_6
REMARK    5  A    between atoms: C_4  and  C_5
REMARK    6  A    between atoms: C_9  and  C_10
REMARK    7  A    between atoms: C_11  and  C_12
REMARK    8  A    between atoms: C_11  and  C_14
REMARK                            x       y       z     vdW  Elec       q    Type
REMARK                         _______ _______ _______ _____ _____    ______ ____
ROOT
ATOM      1  C   UNL     1       3.130   4.803  19.598  0.00  0.00    +0.000 A 
ATOM      2  C   UNL     1       2.674   4.003  18.542  0.00  0.00    +0.000 A 
ATOM      3  C   UNL     1       3.349   3.952  17.320  0.00  0.00    +0.000 A 
ATOM      4  C   UNL     1       4.499   4.713  17.122  0.00  0.00    +0.000 A 
ATOM      5  C   UNL     1       4.984   5.505  18.165  0.00  0.00    +0.000 A 
ATOM      6  C   UNL     1       4.299   5.549  19.388  0.00  0.00    +0.000 A 
ENDROOT
BRANCH   4   7
ATOM      7  C   UNL     1       5.133   4.722  15.800  0.00  0.00    +0.000 C 
ATOM      8  C   UNL     1       6.462   4.589  15.616  0.00  0.00    +0.000 C 
BRANCH   8   9
ATOM      9  C   UNL     1       6.986   4.689  14.221  0.00  0.00    +0.000 C 
ATOM     10  N   UNL     1       6.528   3.774  13.319  0.00  0.00    +0.000 N 
ATOM     11  O   UNL     1       7.800   5.538  13.873  0.00  0.00    +0.000 OA
ATOM     12  H   UNL     1       5.866   3.036  13.517  0.00  0.00    +0.000 HD
ATOM     13  H   UNL     1       6.892   3.832  12.374  0.00  0.00    +0.000 HD
ENDBRANCH   8   9
BRANCH   8  14
ATOM     14  C   UNL     1       7.369   4.383  16.693  0.00  0.00    +0.000 C 
ATOM     15  N   UNL     1       8.115   4.281  17.573  0.00  0.00    +0.000 NA
ENDBRANCH   8  14
ENDBRANCH   4   7
BRANCH   1  16
ATOM     16  N   UNL     1       2.460   4.876  20.835  0.00  0.00    +0.000 N 
BRANCH  16  18
ATOM     17  C   UNL     1       1.162   2.853  21.444  0.00  0.00    +0.000 C 
ATOM     18  C   UNL     1       2.444   3.646  21.644  0.00  0.00    +0.000 C 
ENDBRANCH  16  18
BRANCH  16  19
ATOM     19  C   UNL     1       1.230   5.693  20.799  0.00  0.00    +0.000 C 
ATOM     20  C   UNL     1       1.495   7.196  20.813  0.00  0.00    +0.000 C 
ENDBRANCH  16  19
ENDBRANCH   1  16
TORSDOF 6
ENDMDL
MODEL 5
REMARK VINA RESULT:      -6.2      1.459      2.218
REMARK  Name = 
REMARK  8 active torsions:
REMARK  status: ('A' for Active; 'I' for Inactive)
REMARK    1  A    between atoms: C_1  and  C_2
REMARK    2  A    between atoms: C_2  and  N_3
REMARK    3  A    between atoms: N_3  and  C_4
REMARK    4  A    between atoms: N_3  and  C_6
REMARK    5  A    between atoms: C_4  and  C_5
REMARK    6  A    between atoms: C_9  and  C_10
REMARK    7  A    between atoms: C_11  and  C_12
REMARK    8  A    between atoms: C_11  and  C_14
REMARK                            x       y       z     vdW  Elec       q    Type
REMARK                         _______ _______ _______ _____ _____    ______ ____
ROOT
ATOM      1  C   UNL     1       3.144   4.617  19.620  0.00  0.00    +0.000 A 
ATOM      2  C   UNL     1       2.505   4.614  18.374  0.00  0.00    +0.000 A 
ATOM      3  C   UNL     1       3.210   4.381  17.190  0.00  0.00    +0.000 A 
ATOM      4  C   UNL     1       4.585   4.154  17.227  0.00  0.00    +0.000 A 
ATOM      5  C   UNL     1       5.242   4.134  18.459  0.00  0.00    +0.000 A 
ATOM      6  C   UNL     1       4.525   4.369  19.641  0.00  0.00    +0.000 A 
ENDROOT
BRANCH   4   7
ATOM      7  C   UNL     1       5.320   4.013  15.967  0.00  0.00    +0.000 C 
ATOM      8  C   UNL     1       6.213   4.923  15.527  0.00  0.00    +0.000 C 
BRANCH   8   9
ATOM      9  C   UNL     1       6.839   4.694  14.190  0.00  0.00    +0.000 C 
ATOM     10  N   UNL     1       7.868   5.517  13.837  0.00  0.00    +0.000 N 
ATOM     11  O   UNL     1       6.461   3.819  13.417  0.00  0.00    +0.000 OA
ATOM     12  H   UNL     1       8.240   6.268  14.404  0.00  0.00    +0.000 HD
ATOM     13  H   UNL     1       8.287   5.371  12.925  0.00  0.00    +0.000 HD
ENDBRANCH   8   9
BRANCH   8  14
ATOM     14  C   UNL     1       6.554   6.086  16.271  0.00  0.00    +0.000 C 
ATOM     15  N   UNL     1       6.774   7.059  16.859  0.00  0.00    +0.000 NA
ENDBRANCH   8  14
ENDBRANCH   4   7
BRANCH   1  16
ATOM     16  N   UNL     1       2.454   4.858  20.824  0.00  0.00    +0.000 N 
BRANCH  16  18
ATOM     17  C   UNL     1       1.242   2.698  20.942  0.00  0.00    +0.000 C 
ATOM     18  C   UNL     1       2.158   3.680  21.656  0.00  0.00    +0.000 C 
ENDBRANCH  16  18
BRANCH  16  19
ATOM     19  C   UNL     1       1.415   5.903  20.716  0.00  0.00    +0.000 C 
ATOM     20  C   UNL     1       1.975   7.289  20.408  0.00  0.00    +0.000 C 
ENDBRANCH  16  19
ENDBRANCH   1  16
TORSDOF 6
ENDMDL
MODEL 6
REMARK VINA RESULT:      -6.2      1.473      2.291
REMARK  Name = 
REMARK  8 active torsions:
REMARK  status: ('A' for Active; 'I' for Inactive)
REMARK    1  A    between atoms: C_1  and  C_2
REMARK    2  A    between atoms: C_2  and  N_3
REMARK    3  A    between atoms: N_3  and  C_4
REMARK    4  A    between atoms: N_3  and  C_6
REMARK    5  A    between atoms: C_4  and  C_5
REMARK    6  A    between atoms: C_9  and  C_10
REMARK    7  A    between atoms: C_11  and  C_12
REMARK    8  A    between atoms: C_11  and  C_14
REMARK                            x       y       z     vdW  Elec       q    Type
REMARK                         _______ _______ _______ _____ _____    ______ ____
ROOT
ATOM      1  C   UNL     1       2.760   4.159  19.360  0.00  0.00    +0.000 A 
ATOM      2  C   UNL     1       2.275   3.929  18.066  0.00  0.00    +0.000 A 
ATOM      3  C   UNL     1       3.138   3.739  16.984  0.00  0.00    +0.000 A 
ATOM      4  C   UNL     1       4.518   3.785  17.172  0.00  0.00    +0.000 A 
ATOM      5  C   UNL     1       5.027   3.995  18.455  0.00  0.00    +0.000 A 
ATOM      6  C   UNL     1       4.153   4.184  19.534  0.00  0.00    +0.000 A 
ENDROOT
BRANCH   4   7
ATOM      7  C   UNL     1       5.402   3.684  16.007  0.00  0.00    +0.000 C 
ATOM      8  C   UNL     1       5.777   4.749  15.269  0.00  0.00    +0.000 C 
BRANCH   8   9
ATOM      9  C   UNL     1       6.623   4.498  14.064  0.00  0.00    +0.000 C 
ATOM     10  N   UNL     1       6.437   3.316  13.410  0.00  0.00    +0.000 N 
ATOM     11  O   UNL     1       7.463   5.297  13.661  0.00  0.00    +0.000 OA
ATOM     12  H   UNL     1       5.777   2.597  13.674  0.00  0.00    +0.000 HD
ATOM     13  H   UNL     1       7.019   3.138  12.598  0.00  0.00    +0.000 HD
ENDBRANCH   8   9
BRANCH   8  14
ATOM     14  C   UNL     1       5.380   6.078  15.584  0.00  0.00    +0.000 C 
ATOM     15  N   UNL     1       5.103   7.182  15.799  0.00  0.00    +0.000 NA
ENDBRANCH   8  14
ENDBRANCH   4   7
BRANCH   1  16
ATOM     16  N   UNL     1       1.908   4.361  20.463  0.00  0.00    +0.000 N 
BRANCH  16  18
ATOM     17  C   UNL     1       1.880   2.344  21.904  0.00  0.00    +0.000 C 
ATOM     18  C   UNL     1       1.120   3.198  20.902  0.00  0.00    +0.000 C 
ENDBRANCH  16  18
BRANCH  16  19
ATOM     19  C   UNL     1       1.249   5.683  20.472  0.00  0.00    +0.000 C 
ATOM     20  C   UNL     1       2.205   6.843  20.203  0.00  0.00    +0.000 C 
ENDBRANCH  16  19
ENDBRANCH   1  16
TORSDOF 6
ENDMDL
MODEL 7
REMARK VINA RESULT:      -6.1      2.534      3.558
REMARK  Name = 
REMARK  8 active torsions:
REMARK  status: ('A' for Active; 'I' for Inactive)
REMARK    1  A    between atoms: C_1  and  C_2
REMARK    2  A    between atoms: C_2  and  N_3
REMARK    3  A    between atoms: N_3  and  C_4
REMARK    4  A    between atoms: N_3  and  C_6
REMARK    5  A    between atoms: C_4  and  C_5
REMARK    6  A    between atoms: C_9  and  C_10
REMARK    7  A    between atoms: C_11  and  C_12
REMARK    8  A    between atoms: C_11  and  C_14
REMARK                            x       y       z     vdW  Elec       q    Type
REMARK                         _______ _______ _______ _____ _____    ______ ____
ROOT
ATOM      1  C   UNL     1       1.970   8.137  19.166  0.00  0.00    +0.000 A 
ATOM      2  C   UNL     1       2.353   6.961  19.823  0.00  0.00    +0.000 A 
ATOM      3  C   UNL     1       3.251   6.059  19.245  0.00  0.00    +0.000 A 
ATOM      4  C   UNL     1       3.783   6.311  17.982  0.00  0.00    +0.000 A 
ATOM      5  C   UNL     1       3.430   7.485  17.314  0.00  0.00    +0.000 A 
ATOM      6  C   UNL     1       2.529   8.384  17.902  0.00  0.00    +0.000 A 
ENDROOT
BRANCH   4   7
ATOM      7  C   UNL     1       4.642   5.304  17.354  0.00  0.00    +0.000 C 
ATOM      8  C   UNL     1       5.914   5.549  16.977  0.00  0.00    +0.000 C 
BRANCH   8   9
ATOM      9  C   UNL     1       6.657   4.456  16.281  0.00  0.00    +0.000 C 
ATOM     10  N   UNL     1       5.940   3.355  15.913  0.00  0.00    +0.000 N 
ATOM     11  O   UNL     1       7.859   4.512  16.045  0.00  0.00    +0.000 OA
ATOM     12  H   UNL     1       4.952   3.218  16.074  0.00  0.00    +0.000 HD
ATOM     13  H   UNL     1       6.445   2.606  15.450  0.00  0.00    +0.000 HD
ENDBRANCH   8   9
BRANCH   8  14
ATOM     14  C   UNL     1       6.552   6.801  17.198  0.00  0.00    +0.000 C 
ATOM     15  N   UNL     1       7.113   7.806  17.329  0.00  0.00    +0.000 NA
ENDBRANCH   8  14
ENDBRANCH   4   7
BRANCH   1  16
ATOM     16  N   UNL     1       1.061   9.054  19.726  0.00  0.00    +0.000 N 
BRANCH  16  18
ATOM     17  C   UNL     1      -0.491  10.597  18.559  0.00  0.00    +0.000 C 
ATOM     18  C   UNL     1       0.931  10.350  19.038  0.00  0.00    +0.000 C 
ENDBRANCH  16  18
BRANCH  16  19
ATOM     19  C   UNL     1       1.048   9.055  21.203  0.00  0.00    +0.000 C 
ATOM     20  C   UNL     1      -0.322   8.743  21.801  0.00  0.00    +0.000 C 
ENDBRANCH  16  19
ENDBRANCH   1  16
TORSDOF 6
ENDMDL
MODEL 8
REMARK VINA RESULT:      -6.1      3.195      5.171
REMARK  Name = 
REMARK  8 active torsions:
REMARK  status: ('A' for Active; 'I' for Inactive)
REMARK    1  A    between atoms: C_1  and  C_2
REMARK    2  A    between atoms: C_2  and  N_3
REMARK    3  A    between atoms: N_3  and  C_4
REMARK    4  A    between atoms: N_3  and  C_6
REMARK    5  A    between atoms: C_4  and  C_5
REMARK    6  A    between atoms: C_9  and  C_10
REMARK    7  A    between atoms: C_11  and  C_12
REMARK    8  A    between atoms: C_11  and  C_14
REMARK                            x       y       z     vdW  Elec       q    Type
REMARK                         _______ _______ _______ _____ _____    ______ ____
ROOT
ATOM      1  C   UNL     1       1.195   9.238  19.308  0.00  0.00    +0.000 A 
ATOM      2  C   UNL     1       1.803   9.194  18.047  0.00  0.00    +0.000 A 
ATOM      3  C   UNL     1       2.671   8.159  17.689  0.00  0.00    +0.000 A 
ATOM      4  C   UNL     1       2.960   7.141  18.596  0.00  0.00    +0.000 A 
ATOM      5  C   UNL     1       2.353   7.153  19.853  0.00  0.00    +0.000 A 
ATOM      6  C   UNL     1       1.483   8.196  20.203  0.00  0.00    +0.000 A 
ENDROOT
BRANCH   4   7
ATOM      7  C   UNL     1       3.950   6.123  18.236  0.00  0.00    +0.000 C 
ATOM      8  C   UNL     1       3.619   4.876  17.843  0.00  0.00    +0.000 C 
BRANCH   8   9
ATOM      9  C   UNL     1       4.728   3.912  17.575  0.00  0.00    +0.000 C 
ATOM     10  N   UNL     1       5.282   3.289  18.654  0.00  0.00    +0.000 N 
ATOM     11  O   UNL     1       5.150   3.677  16.448  0.00  0.00    +0.000 OA
ATOM     12  H   UNL     1       5.006   3.425  19.617  0.00  0.00    +0.000 HD
ATOM     13  H   UNL     1       6.043   2.642  18.476  0.00  0.00    +0.000 HD
ENDBRANCH   8   9
BRANCH   8  14
ATOM     14  C   UNL     1       2.269   4.450  17.698  0.00  0.00    +0.000 C 
ATOM     15  N   UNL     1       1.181   4.098  17.517  0.00  0.00    +0.000 NA
ENDBRANCH   8  14
ENDBRANCH   4   7
BRANCH   1  16
ATOM     16  N   UNL     1       0.324  10.276  19.692  0.00  0.00    +0.000 N 
BRANCH  16  18
ATOM     17  C   UNL     1      -0.476  11.386  21.760  0.00  0.00    +0.000 C 
ATOM     18  C   UNL     1      -0.391  10.092  20.966  0.00  0.00    +0.000 C 
ENDBRANCH  16  18
BRANCH  16  19
ATOM     19  C   UNL     1      -0.419  10.878  18.566  0.00  0.00    +0.000 C 
ATOM     20  C   UNL     1      -1.749  10.187  18.274  0.00  0.00    +0.000 C 
ENDBRANCH  16  19
ENDBRANCH   1  16
TORSDOF 6
ENDMDL
MODEL 9
REMARK VINA RESULT:      -6.0      3.646      5.647
REMARK  Name = 
REMARK  8 active torsions:
REMARK  status: ('A' for Active; 'I' for Inactive)
REMARK    1  A    between atoms: C_1  and  C_2
REMARK    2  A    between atoms: C_2  and  N_3
REMARK    3  A    between atoms: N_3  and  C_4
REMARK    4  A    between atoms: N_3  and  C_6
REMARK    5  A    between atoms: C_4  and  C_5
REMARK    6  A    between atoms: C_9  and  C_10
REMARK    7  A    between atoms: C_11  and  C_12
REMARK    8  A    between atoms: C_11  and  C_14
REMARK                            x       y       z     vdW  Elec       q    Type
REMARK                         _______ _______ _______ _____ _____    ______ ____
ROOT
ATOM      1  C   UNL     1       1.254   9.374  18.846  0.00  0.00    +0.000 A 
ATOM      2  C   UNL     1       2.088   8.965  17.798  0.00  0.00    +0.000 A 
ATOM      3  C   UNL     1       2.854   7.800  17.884  0.00  0.00    +0.000 A 
ATOM      4  C   UNL     1       2.809   7.016  19.036  0.00  0.00    +0.000 A 
ATOM      5  C   UNL     1       1.973   7.393  20.088  0.00  0.00    +0.000 A 
ATOM      6  C   UNL     1       1.207   8.564  19.991  0.00  0.00    +0.000 A 
ENDROOT
BRANCH   4   7
ATOM      7  C   UNL     1       3.696   5.854  19.145  0.00  0.00    +0.000 C 
ATOM      8  C   UNL     1       3.380   4.634  18.665  0.00  0.00    +0.000 C 
BRANCH   8   9
ATOM      9  C   UNL     1       4.343   3.519  18.908  0.00  0.00    +0.000 C 
ATOM     10  N   UNL     1       5.669   3.838  18.933  0.00  0.00    +0.000 N 
ATOM     11  O   UNL     1       3.989   2.355  19.070  0.00  0.00    +0.000 OA
ATOM     12  H   UNL     1       6.052   4.764  18.801  0.00  0.00    +0.000 HD
ATOM     13  H   UNL     1       6.326   3.080  19.086  0.00  0.00    +0.000 HD
ENDBRANCH   8   9
BRANCH   8  14
ATOM     14  C   UNL     1       2.167   4.375  17.967  0.00  0.00    +0.000 C 
ATOM     15  N   UNL     1       1.156   4.139  17.455  0.00  0.00    +0.000 NA
ENDBRANCH   8  14
ENDBRANCH   4   7
BRANCH   1  16
ATOM     16  N   UNL     1       0.480  10.549  18.783  0.00  0.00    +0.000 N 
BRANCH  16  18
ATOM     17  C   UNL     1       0.899  12.254  20.534  0.00  0.00    +0.000 C 
ATOM     18  C   UNL     1       1.173  11.807  19.107  0.00  0.00    +0.000 C 
ENDBRANCH  16  18
BRANCH  16  19
ATOM     19  C   UNL     1      -0.903  10.379  19.274  0.00  0.00    +0.000 C 
ATOM     20  C   UNL     1      -1.964  10.640  18.207  0.00  0.00    +0.000 C 
ENDBRANCH  16  19
ENDBRANCH   1  16
TORSDOF 6
ENDMDL
