MODEL 1
REMARK VINA RESULT:      -7.0      0.000      0.000
REMARK  Name = 
REMARK  9 active torsions:
REMARK  status: ('A' for Active; 'I' for Inactive)
REMARK    1  A    between atoms: C_1  and  C_2
REMARK    2  A    between atoms: C_2  and  C_3
REMARK    3  A    between atoms: C_2  and  N_4
REMARK    4  A    between atoms: C_8  and  C_9
REMARK    5  A    between atoms: C_9  and  N_10
REMARK    6  A    between atoms: N_10  and  C_11
REMARK    7  A    between atoms: C_12  and  C_14
REMARK    8  A    between atoms: N_18  and  C_19
REMARK    9  A    between atoms: N_22  and  C_23
REMARK                            x       y       z     vdW  Elec       q    Type
REMARK                         _______ _______ _______ _____ _____    ______ ____
ROOT
ATOM      1  N   UNL     1       1.731   8.363  18.914  0.00  0.00    +0.000 N 
ATOM      2  C   UNL     1       2.216   9.067  17.729  0.00  0.00    +0.000 C 
ATOM      3  C   UNL     1       2.251   7.101  19.230  0.00  0.00    +0.000 C 
ATOM      4  O   UNL     1       2.244   6.696  20.393  0.00  0.00    +0.000 OA
ENDROOT
BRANCH   3   5
ATOM      5  C   UNL     1       2.715   6.208  18.060  0.00  0.00    +0.000 C 
ATOM      6  C   UNL     1       2.319   4.754  18.301  0.00  0.00    +0.000 C 
ATOM      7  C   UNL     1       3.264   4.077  19.287  0.00  0.00    +0.000 C 
ATOM      8  C   UNL     1       4.741   4.279  18.920  0.00  0.00    +0.000 C 
ATOM      9  N   UNL     1       5.089   5.702  18.797  0.00  0.00    +0.000 NA
ATOM     10  C   UNL     1       4.218   6.338  17.788  0.00  0.00    +0.000 C 
BRANCH   9  11
ATOM     11  C   UNL     1       6.523   5.978  18.506  0.00  0.00    +0.000 C 
ATOM     12  C   UNL     1       6.812   7.038  17.420  0.00  0.00    +0.000 C 
ATOM     13  C   UNL     1       6.477   6.554  16.008  0.00  0.00    +0.000 C 
ATOM     14  N   UNL     1       7.228   5.334  15.682  0.00  0.00    +0.000 NA
ATOM     15  C   UNL     1       6.930   4.902  14.316  0.00  0.00    +0.000 C 
ATOM     16  C   UNL     1       6.898   4.265  16.637  0.00  0.00    +0.000 C 
ATOM     17  C   UNL     1       7.254   4.685  18.064  0.00  0.00    +0.000 C 
ENDBRANCH   9  11
ENDBRANCH   3   5
BRANCH   1  18
ATOM     18  C   UNL     1       1.266   9.172  20.049  0.00  0.00    +0.000 C 
BRANCH  18  23
ATOM     19  N   UNL     1       0.541  11.573  19.475  0.00  0.00    +0.000 N 
ATOM     20  C   UNL     1      -0.653  12.122  19.092  0.00  0.00    +0.000 A 
ATOM     21  N   UNL     1      -1.570  11.191  19.009  0.00  0.00    +0.000 NA
ATOM     22  N   UNL     1      -0.978  10.002  19.339  0.00  0.00    +0.000 NA
ATOM     23  C   UNL     1       0.288  10.228  19.645  0.00  0.00    +0.000 A 
BRANCH  19  25
ATOM     24  C   UNL     1       2.355  12.803  18.314  0.00  0.00    +0.000 C 
ATOM     25  C   UNL     1       1.784  12.306  19.649  0.00  0.00    +0.000 C 
ATOM     26  C   UNL     1       1.603  13.471  20.622  0.00  0.00    +0.000 C 
ENDBRANCH  19  25
ENDBRANCH  18  23
ENDBRANCH   1  18
TORSDOF 5
ENDMDL
MODEL 2
REMARK VINA RESULT:      -7.0      1.253      1.639
REMARK  Name = 
REMARK  9 active torsions:
REMARK  status: ('A' for Active; 'I' for Inactive)
REMARK    1  A    between atoms: C_1  and  C_2
REMARK    2  A    between atoms: C_2  and  C_3
REMARK    3  A    between atoms: C_2  and  N_4
REMARK    4  A    between atoms: C_8  and  C_9
REMARK    5  A    between atoms: C_9  and  N_10
REMARK    6  A    between atoms: N_10  and  C_11
REMARK    7  A    between atoms: C_12  and  C_14
REMARK    8  A    between atoms: N_18  and  C_19
REMARK    9  A    between atoms: N_22  and  C_23
REMARK                            x       y       z     vdW  Elec       q    Type
REMARK                         _______ _______ _______ _____ _____    ______ ____
ROOT
ATOM      1  N   UNL     1       1.815   8.210  19.000  0.00  0.00    +0.000 N 
ATOM      2  C   UNL     1       2.345   8.961  17.865  0.00  0.00    +0.000 C 
ATOM      3  C   UNL     1       2.302   6.924  19.266  0.00  0.00    +0.000 C 
ATOM      4  O   UNL     1       2.257   6.462  20.408  0.00  0.00    +0.000 OA
ENDROOT
BRANCH   3   5
ATOM      5  C   UNL     1       2.779   6.080  18.066  0.00  0.00    +0.000 C 
ATOM      6  C   UNL     1       2.418   4.611  18.261  0.00  0.00    +0.000 C 
ATOM      7  C   UNL     1       3.384   3.924  19.221  0.00  0.00    +0.000 C 
ATOM      8  C   UNL     1       4.854   4.171  18.853  0.00  0.00    +0.000 C 
ATOM      9  N   UNL     1       5.169   5.605  18.774  0.00  0.00    +0.000 NA
ATOM     10  C   UNL     1       4.277   6.253  17.790  0.00  0.00    +0.000 C 
BRANCH   9  11
ATOM     11  C   UNL     1       6.594   5.923  18.483  0.00  0.00    +0.000 C 
ATOM     12  C   UNL     1       6.853   7.013  17.420  0.00  0.00    +0.000 C 
ATOM     13  C   UNL     1       6.525   6.551  15.999  0.00  0.00    +0.000 C 
ATOM     14  N   UNL     1       7.305   5.357  15.644  0.00  0.00    +0.000 NA
ATOM     15  C   UNL     1       7.013   4.948  14.271  0.00  0.00    +0.000 C 
ATOM     16  C   UNL     1       7.006   4.261  16.577  0.00  0.00    +0.000 C 
ATOM     17  C   UNL     1       7.356   4.659  18.012  0.00  0.00    +0.000 C 
ENDBRANCH   9  11
ENDBRANCH   3   5
BRANCH   1  18
ATOM     18  C   UNL     1       1.337   8.972  20.163  0.00  0.00    +0.000 C 
BRANCH  18  23
ATOM     19  N   UNL     1      -0.431  10.769  20.676  0.00  0.00    +0.000 N 
ATOM     20  C   UNL     1      -1.385  11.387  19.913  0.00  0.00    +0.000 A 
ATOM     21  N   UNL     1      -1.336  10.940  18.683  0.00  0.00    +0.000 NA
ATOM     22  N   UNL     1      -0.331  10.013  18.625  0.00  0.00    +0.000 NA
ATOM     23  C   UNL     1       0.203   9.886  19.828  0.00  0.00    +0.000 A 
BRANCH  19  25
ATOM     24  C   UNL     1      -0.832  12.342  22.552  0.00  0.00    +0.000 C 
ATOM     25  C   UNL     1      -0.184  11.032  22.084  0.00  0.00    +0.000 C 
ATOM     26  C   UNL     1      -0.652   9.863  22.952  0.00  0.00    +0.000 C 
ENDBRANCH  19  25
ENDBRANCH  18  23
ENDBRANCH   1  18
TORSDOF 5
ENDMDL
MODEL 3
REMARK VINA RESULT:      -7.0      1.719      2.499
REMARK  Name = 
REMARK  9 active torsions:
REMARK  status: ('A' for Active; 'I' for Inactive)
REMARK    1  A    between atoms: C_1  and  C_2
REMARK    2  A    between atoms: C_2  and  C_3
REMARK    3  A    between atoms: C_2  and  N_4
REMARK    4  A    between atoms: C_8  and  C_9
REMARK    5  A    between atoms: C_9  and  N_10
REMARK    6  A    between atoms: N_10  and  C_11
REMARK    7  A    between atoms: C_12  and  C_14
REMARK    8  A    between atoms: N_18  and  C_19
REMARK    9  A    between atoms: N_22  and  C_23
REMARK                            x       y       z     vdW  Elec       q    Type
REMARK                         _______ _______ _______ _____ _____    ______ ____
ROOT
ATOM      1  N   UNL     1       1.990   7.400  18.698  0.00  0.00    +0.000 N 
ATOM      2  C   UNL     1       2.342   7.502  17.283  0.00  0.00    +0.000 C 
ATOM      3  C   UNL     1       2.232   6.205  19.386  0.00  0.00    +0.000 C 
ATOM      4  O   UNL     1       2.401   6.209  20.607  0.00  0.00    +0.000 OA
ENDROOT
BRANCH   3   5
ATOM      5  C   UNL     1       2.161   4.891  18.580  0.00  0.00    +0.000 C 
ATOM      6  C   UNL     1       2.111   3.686  19.515  0.00  0.00    +0.000 C 
ATOM      7  C   UNL     1       3.493   3.356  20.069  0.00  0.00    +0.000 C 
ATOM      8  C   UNL     1       4.560   3.260  18.970  0.00  0.00    +0.000 C 
ATOM      9  N   UNL     1       4.631   4.487  18.163  0.00  0.00    +0.000 NA
ATOM     10  C   UNL     1       3.307   4.764  17.569  0.00  0.00    +0.000 C 
BRANCH   9  11
ATOM     11  C   UNL     1       5.690   4.493  17.116  0.00  0.00    +0.000 C 
ATOM     12  C   UNL     1       7.150   4.560  17.614  0.00  0.00    +0.000 C 
ATOM     13  C   UNL     1       7.522   5.926  18.192  0.00  0.00    +0.000 C 
ATOM     14  N   UNL     1       7.320   6.987  17.197  0.00  0.00    +0.000 NA
ATOM     15  C   UNL     1       7.716   8.284  17.746  0.00  0.00    +0.000 C 
ATOM     16  C   UNL     1       5.912   7.023  16.772  0.00  0.00    +0.000 C 
ATOM     17  C   UNL     1       5.500   5.688  16.148  0.00  0.00    +0.000 C 
ENDBRANCH   9  11
ENDBRANCH   3   5
BRANCH   1  18
ATOM     18  C   UNL     1       2.032   8.628  19.504  0.00  0.00    +0.000 C 
BRANCH  18  23
ATOM     19  N   UNL     1       0.044  10.065  20.281  0.00  0.00    +0.000 N 
ATOM     20  C   UNL     1      -0.919  10.771  19.610  0.00  0.00    +0.000 A 
ATOM     21  N   UNL     1      -0.736  10.664  18.318  0.00  0.00    +0.000 NA
ATOM     22  N   UNL     1       0.368   9.878  18.125  0.00  0.00    +0.000 NA
ATOM     23  C   UNL     1       0.829   9.493  19.303  0.00  0.00    +0.000 A 
BRANCH  19  25
ATOM     24  C   UNL     1      -0.493  11.167  22.438  0.00  0.00    +0.000 C 
ATOM     25  C   UNL     1       0.163   9.976  21.727  0.00  0.00    +0.000 C 
ATOM     26  C   UNL     1      -0.414   8.658  22.246  0.00  0.00    +0.000 C 
ENDBRANCH  19  25
ENDBRANCH  18  23
ENDBRANCH   1  18
TORSDOF 5
ENDMDL
MODEL 4
REMARK VINA RESULT:      -6.9      1.539      2.451
REMARK  Name = 
REMARK  9 active torsions:
REMARK  status: ('A' for Active; 'I' for Inactive)
REMARK    1  A    between atoms: C_1  and  C_2
REMARK    2  A    between atoms: C_2  and  C_3
REMARK    3  A    between atoms: C_2  and  N_4
REMARK    4  A    between atoms: C_8  and  C_9
REMARK    5  A    between atoms: C_9  and  N_10
REMARK    6  A    between atoms: N_10  and  C_11
REMARK    7  A    between atoms: C_12  and  C_14
REMARK    8  A    between atoms: N_18  and  C_19
REMARK    9  A    between atoms: N_22  and  C_23
REMARK                            x       y       z     vdW  Elec       q    Type
REMARK                         _______ _______ _______ _____ _____    ______ ____
ROOT
ATOM      1  N   UNL     1       2.114   7.352  19.048  0.00  0.00    +0.000 N 
ATOM      2  C   UNL     1       2.237   7.785  17.658  0.00  0.00    +0.000 C 
ATOM      3  C   UNL     1       2.408   6.025  19.388  0.00  0.00    +0.000 C 
ATOM      4  O   UNL     1       2.771   5.738  20.530  0.00  0.00    +0.000 OA
ENDROOT
BRANCH   3   5
ATOM      5  C   UNL     1       2.147   4.941  18.321  0.00  0.00    +0.000 C 
ATOM      6  C   UNL     1       1.878   3.591  18.978  0.00  0.00    +0.000 C 
ATOM      7  C   UNL     1       3.173   2.929  19.437  0.00  0.00    +0.000 C 
ATOM      8  C   UNL     1       4.240   2.896  18.335  0.00  0.00    +0.000 C 
ATOM      9  N   UNL     1       4.529   4.237  17.806  0.00  0.00    +0.000 NA
ATOM     10  C   UNL     1       3.284   4.846  17.297  0.00  0.00    +0.000 C 
BRANCH   9  11
ATOM     11  C   UNL     1       5.602   4.292  16.776  0.00  0.00    +0.000 C 
ATOM     12  C   UNL     1       7.055   4.341  17.297  0.00  0.00    +0.000 C 
ATOM     13  C   UNL     1       7.414   5.683  17.938  0.00  0.00    +0.000 C 
ATOM     14  N   UNL     1       7.221   6.785  16.986  0.00  0.00    +0.000 NA
ATOM     15  C   UNL     1       7.605   8.058  17.596  0.00  0.00    +0.000 C 
ATOM     16  C   UNL     1       5.820   6.834  16.544  0.00  0.00    +0.000 C 
ATOM     17  C   UNL     1       5.422   5.526  15.858  0.00  0.00    +0.000 C 
ENDBRANCH   9  11
ENDBRANCH   3   5
BRANCH   1  18
ATOM     18  C   UNL     1       2.341   8.353  20.100  0.00  0.00    +0.000 C 
BRANCH  18  23
ATOM     19  N   UNL     1       0.174   9.739  20.149  0.00  0.00    +0.000 N 
ATOM     20  C   UNL     1      -0.829   9.874  21.071  0.00  0.00    +0.000 A 
ATOM     21  N   UNL     1      -0.589   9.115  22.111  0.00  0.00    +0.000 NA
ATOM     22  N   UNL     1       0.592   8.462  21.877  0.00  0.00    +0.000 NA
ATOM     23  C   UNL     1       1.070   8.852  20.708  0.00  0.00    +0.000 A 
BRANCH  19  25
ATOM     24  C   UNL     1      -1.111  10.356  18.119  0.00  0.00    +0.000 C 
ATOM     25  C   UNL     1       0.229  10.417  18.864  0.00  0.00    +0.000 C 
ATOM     26  C   UNL     1       0.686  11.867  19.027  0.00  0.00    +0.000 C 
ENDBRANCH  19  25
ENDBRANCH  18  23
ENDBRANCH   1  18
TORSDOF 5
ENDMDL
MODEL 5
REMARK VINA RESULT:      -6.9      1.969      4.189
REMARK  Name = 
REMARK  9 active torsions:
REMARK  status: ('A' for Active; 'I' for Inactive)
REMARK    1  A    between atoms: C_1  and  C_2
REMARK    2  A    between atoms: C_2  and  C_3
REMARK    3  A    between atoms: C_2  and  N_4
REMARK    4  A    between atoms: C_8  and  C_9
REMARK    5  A    between atoms: C_9  and  N_10
REMARK    6  A    between atoms: N_10  and  C_11
REMARK    7  A    between atoms: C_12  and  C_14
REMARK    8  A    between atoms: N_18  and  C_19
REMARK    9  A    between atoms: N_22  and  C_23
REMARK                            x       y       z     vdW  Elec       q    Type
REMARK                         _______ _______ _______ _____ _____    ______ ____
ROOT
ATOM      1  N   UNL     1       2.751   7.646  18.435  0.00  0.00    +0.000 N 
ATOM      2  C   UNL     1       2.494   6.852  19.634  0.00  0.00    +0.000 C 
ATOM      3  C   UNL     1       3.733   7.228  17.528  0.00  0.00    +0.000 C 
ATOM      4  O   UNL     1       3.669   7.558  16.342  0.00  0.00    +0.000 OA
ENDROOT
BRANCH   3   5
ATOM      5  C   UNL     1       4.941   6.450  18.091  0.00  0.00    +0.000 C 
ATOM      6  C   UNL     1       6.130   6.536  17.139  0.00  0.00    +0.000 C 
ATOM      7  C   UNL     1       5.969   5.577  15.963  0.00  0.00    +0.000 C 
ATOM      8  C   UNL     1       5.617   4.152  16.410  0.00  0.00    +0.000 C 
ATOM      9  N   UNL     1       4.407   4.119  17.245  0.00  0.00    +0.000 NA
ATOM     10  C   UNL     1       4.594   4.994  18.420  0.00  0.00    +0.000 C 
BRANCH   9  11
ATOM     11  C   UNL     1       3.966   2.760  17.663  0.00  0.00    +0.000 C 
ATOM     12  C   UNL     1       2.482   2.412  17.419  0.00  0.00    +0.000 C 
ATOM     13  C   UNL     1       1.531   3.159  18.357  0.00  0.00    +0.000 C 
ATOM     14  N   UNL     1       1.853   2.873  19.762  0.00  0.00    +0.000 NA
ATOM     15  C   UNL     1       0.914   3.560  20.649  0.00  0.00    +0.000 C 
ATOM     16  C   UNL     1       3.231   3.288  20.061  0.00  0.00    +0.000 C 
ATOM     17  C   UNL     1       4.227   2.538  19.174  0.00  0.00    +0.000 C 
ENDBRANCH   9  11
ENDBRANCH   3   5
BRANCH   1  18
ATOM     18  C   UNL     1       1.634   8.413  17.869  0.00  0.00    +0.000 C 
BRANCH  18  23
ATOM     19  N   UNL     1       1.016  10.569  19.131  0.00  0.00    +0.000 N 
ATOM     20  C   UNL     1       1.450  11.864  19.037  0.00  0.00    +0.000 A 
ATOM     21  N   UNL     1       2.369  11.964  18.111  0.00  0.00    +0.000 NA
ATOM     22  N   UNL     1       2.553  10.716  17.580  0.00  0.00    +0.000 NA
ATOM     23  C   UNL     1       1.723   9.874  18.172  0.00  0.00    +0.000 A 
BRANCH  19  25
ATOM     24  C   UNL     1       0.642   9.518  21.346  0.00  0.00    +0.000 C 
ATOM     25  C   UNL     1       0.014  10.085  20.066  0.00  0.00    +0.000 C 
ATOM     26  C   UNL     1      -0.996  11.182  20.406  0.00  0.00    +0.000 C 
ENDBRANCH  19  25
ENDBRANCH  18  23
ENDBRANCH   1  18
TORSDOF 5
ENDMDL
MODEL 6
REMARK VINA RESULT:      -6.9      0.963      1.969
REMARK  Name = 
REMARK  9 active torsions:
REMARK  status: ('A' for Active; 'I' for Inactive)
REMARK    1  A    between atoms: C_1  and  C_2
REMARK    2  A    between atoms: C_2  and  C_3
REMARK    3  A    between atoms: C_2  and  N_4
REMARK    4  A    between atoms: C_8  and  C_9
REMARK    5  A    between atoms: C_9  and  N_10
REMARK    6  A    between atoms: N_10  and  C_11
REMARK    7  A    between atoms: C_12  and  C_14
REMARK    8  A    between atoms: N_18  and  C_19
REMARK    9  A    between atoms: N_22  and  C_23
REMARK                            x       y       z     vdW  Elec       q    Type
REMARK                         _______ _______ _______ _____ _____    ______ ____
ROOT
ATOM      1  N   UNL     1       1.607   8.586  18.770  0.00  0.00    +0.000 N 
ATOM      2  C   UNL     1       2.040   9.269  17.553  0.00  0.00    +0.000 C 
ATOM      3  C   UNL     1       2.173   7.350  19.107  0.00  0.00    +0.000 C 
ATOM      4  O   UNL     1       2.210   6.979  20.282  0.00  0.00    +0.000 OA
ENDROOT
BRANCH   3   5
ATOM      5  C   UNL     1       2.632   6.436  17.951  0.00  0.00    +0.000 C 
ATOM      6  C   UNL     1       2.148   5.006  18.169  0.00  0.00    +0.000 C 
ATOM      7  C   UNL     1       3.016   4.275  19.187  0.00  0.00    +0.000 C 
ATOM      8  C   UNL     1       4.514   4.396  18.877  0.00  0.00    +0.000 C 
ATOM      9  N   UNL     1       4.945   5.798  18.775  0.00  0.00    +0.000 NA
ATOM     10  C   UNL     1       4.149   6.484  17.737  0.00  0.00    +0.000 C 
BRANCH   9  11
ATOM     11  C   UNL     1       6.401   5.995  18.540  0.00  0.00    +0.000 C 
ATOM     12  C   UNL     1       6.790   7.038  17.470  0.00  0.00    +0.000 C 
ATOM     13  C   UNL     1       6.484   6.575  16.045  0.00  0.00    +0.000 C 
ATOM     14  N   UNL     1       7.179   5.316  15.744  0.00  0.00    +0.000 NA
ATOM     15  C   UNL     1       6.911   4.902  14.366  0.00  0.00    +0.000 C 
ATOM     16  C   UNL     1       6.755   4.266  16.682  0.00  0.00    +0.000 C 
ATOM     17  C   UNL     1       7.077   4.665  18.123  0.00  0.00    +0.000 C 
ENDBRANCH   9  11
ENDBRANCH   3   5
BRANCH   1  18
ATOM     18  C   UNL     1       1.150   9.414  19.895  0.00  0.00    +0.000 C 
BRANCH  18  23
ATOM     19  N   UNL     1      -0.332  11.313  18.989  0.00  0.00    +0.000 N 
ATOM     20  C   UNL     1      -0.119  12.650  18.788  0.00  0.00    +0.000 A 
ATOM     21  N   UNL     1       1.095  12.972  19.156  0.00  0.00    +0.000 NA
ATOM     22  N   UNL     1       1.701  11.833  19.613  0.00  0.00    +0.000 NA
ATOM     23  C   UNL     1       0.855  10.823  19.492  0.00  0.00    +0.000 A 
BRANCH  19  25
ATOM     24  C   UNL     1      -2.797  11.530  18.821  0.00  0.00    +0.000 C 
ATOM     25  C   UNL     1      -1.574  10.610  18.712  0.00  0.00    +0.000 C 
ATOM     26  C   UNL     1      -1.530   9.938  17.339  0.00  0.00    +0.000 C 
ENDBRANCH  19  25
ENDBRANCH  18  23
ENDBRANCH   1  18
TORSDOF 5
ENDMDL
MODEL 7
REMARK VINA RESULT:      -6.8      2.049      8.054
REMARK  Name = 
REMARK  9 active torsions:
REMARK  status: ('A' for Active; 'I' for Inactive)
REMARK    1  A    between atoms: C_1  and  C_2
REMARK    2  A    between atoms: C_2  and  C_3
REMARK    3  A    between atoms: C_2  and  N_4
REMARK    4  A    between atoms: C_8  and  C_9
REMARK    5  A    between atoms: C_9  and  N_10
REMARK    6  A    between atoms: N_10  and  C_11
REMARK    7  A    between atoms: C_12  and  C_14
REMARK    8  A    between atoms: N_18  and  C_19
REMARK    9  A    between atoms: N_22  and  C_23
REMARK                            x       y       z     vdW  Elec       q    Type
REMARK                         _______ _______ _______ _____ _____    ______ ____
ROOT
ATOM      1  N   UNL     1       1.844   8.161  19.110  0.00  0.00    +0.000 N 
ATOM      2  C   UNL     1       1.895   7.648  20.477  0.00  0.00    +0.000 C 
ATOM      3  C   UNL     1       1.323   9.438  18.870  0.00  0.00    +0.000 C 
ATOM      4  O   UNL     1       1.674  10.081  17.878  0.00  0.00    +0.000 OA
ENDROOT
BRANCH   3   5
ATOM      5  C   UNL     1       0.220   9.949  19.821  0.00  0.00    +0.000 C 
ATOM      6  C   UNL     1      -1.092  10.149  19.068  0.00  0.00    +0.000 C 
ATOM      7  C   UNL     1      -1.080  11.447  18.267  0.00  0.00    +0.000 C 
ATOM      8  C   UNL     1      -0.644  12.653  19.108  0.00  0.00    +0.000 C 
ATOM      9  N   UNL     1       0.672  12.445  19.731  0.00  0.00    +0.000 NA
ATOM     10  C   UNL     1       0.636  11.225  20.563  0.00  0.00    +0.000 C 
BRANCH   9  11
ATOM     11  C   UNL     1       1.191  13.600  20.511  0.00  0.00    +0.000 C 
ATOM     12  C   UNL     1       0.728  15.002  20.057  0.00  0.00    +0.000 C 
ATOM     13  C   UNL     1       1.356  15.439  18.733  0.00  0.00    +0.000 C 
ATOM     14  N   UNL     1       2.823  15.440  18.825  0.00  0.00    +0.000 NA
ATOM     15  C   UNL     1       3.412  15.897  17.567  0.00  0.00    +0.000 C 
ATOM     16  C   UNL     1       3.310  14.092  19.156  0.00  0.00    +0.000 C 
ATOM     17  C   UNL     1       2.740  13.624  20.497  0.00  0.00    +0.000 C 
ENDBRANCH   9  11
ENDBRANCH   3   5
BRANCH   1  18
ATOM     18  C   UNL     1       2.867   7.693  18.164  0.00  0.00    +0.000 C 
BRANCH  18  23
ATOM     19  N   UNL     1       3.843   5.401  17.520  0.00  0.00    +0.000 N 
ATOM     20  C   UNL     1       3.314   4.139  17.473  0.00  0.00    +0.000 A 
ATOM     21  N   UNL     1       2.061   4.163  17.851  0.00  0.00    +0.000 NA
ATOM     22  N   UNL     1       1.750   5.461  18.157  0.00  0.00    +0.000 NA
ATOM     23  C   UNL     1       2.812   6.217  17.936  0.00  0.00    +0.000 A 
BRANCH  19  25
ATOM     24  C   UNL     1       6.189   4.598  17.474  0.00  0.00    +0.000 C 
ATOM     25  C   UNL     1       5.215   5.748  17.187  0.00  0.00    +0.000 C 
ATOM     26  C   UNL     1       5.331   6.198  15.730  0.00  0.00    +0.000 C 
ENDBRANCH  19  25
ENDBRANCH  18  23
ENDBRANCH   1  18
TORSDOF 5
ENDMDL
MODEL 8
REMARK VINA RESULT:      -6.7      2.725      8.383
REMARK  Name = 
REMARK  9 active torsions:
REMARK  status: ('A' for Active; 'I' for Inactive)
REMARK    1  A    between atoms: C_1  and  C_2
REMARK    2  A    between atoms: C_2  and  C_3
REMARK    3  A    between atoms: C_2  and  N_4
REMARK    4  A    between atoms: C_8  and  C_9
REMARK    5  A    between atoms: C_9  and  N_10
REMARK    6  A    between atoms: N_10  and  C_11
REMARK    7  A    between atoms: C_12  and  C_14
REMARK    8  A    between atoms: N_18  and  C_19
REMARK    9  A    between atoms: N_22  and  C_23
REMARK                            x       y       z     vdW  Elec       q    Type
REMARK                         _______ _______ _______ _____ _____    ______ ____
ROOT
ATOM      1  N   UNL     1       2.305   6.969  19.093  0.00  0.00    +0.000 N 
ATOM      2  C   UNL     1       2.632   7.920  18.034  0.00  0.00    +0.000 C 
ATOM      3  C   UNL     1       1.600   7.406  20.221  0.00  0.00    +0.000 C 
ATOM      4  O   UNL     1       0.915   6.617  20.875  0.00  0.00    +0.000 OA
ENDROOT
BRANCH   3   5
ATOM      5  C   UNL     1       1.809   8.867  20.672  0.00  0.00    +0.000 C 
ATOM      6  C   UNL     1       1.153   9.113  22.027  0.00  0.00    +0.000 C 
ATOM      7  C   UNL     1      -0.355   9.295  21.889  0.00  0.00    +0.000 C 
ATOM      8  C   UNL     1      -0.728  10.321  20.810  0.00  0.00    +0.000 C 
ATOM      9  N   UNL     1      -0.149   9.980  19.502  0.00  0.00    +0.000 NA
ATOM     10  C   UNL     1       1.320   9.875  19.625  0.00  0.00    +0.000 C 
BRANCH   9  11
ATOM     11  C   UNL     1      -0.520  10.896  18.389  0.00  0.00    +0.000 C 
ATOM     12  C   UNL     1      -1.359  12.136  18.769  0.00  0.00    +0.000 C 
ATOM     13  C   UNL     1      -2.800  11.790  19.147  0.00  0.00    +0.000 C 
ATOM     14  N   UNL     1      -3.475  11.089  18.045  0.00  0.00    +0.000 NA
ATOM     15  C   UNL     1      -4.863  10.798  18.401  0.00  0.00    +0.000 C 
ATOM     16  C   UNL     1      -2.760   9.845  17.722  0.00  0.00    +0.000 C 
ATOM     17  C   UNL     1      -1.320  10.142  17.298  0.00  0.00    +0.000 C 
ENDBRANCH   9  11
ENDBRANCH   3   5
BRANCH   1  18
ATOM     18  C   UNL     1       2.109   5.562  18.714  0.00  0.00    +0.000 C 
BRANCH  18  23
ATOM     19  N   UNL     1       3.256   3.414  19.545  0.00  0.00    +0.000 N 
ATOM     20  C   UNL     1       4.568   3.048  19.684  0.00  0.00    +0.000 A 
ATOM     21  N   UNL     1       5.350   4.022  19.293  0.00  0.00    +0.000 NA
ATOM     22  N   UNL     1       4.547   5.053  18.883  0.00  0.00    +0.000 NA
ATOM     23  C   UNL     1       3.284   4.703  19.055  0.00  0.00    +0.000 A 
BRANCH  19  25
ATOM     24  C   UNL     1       1.293   3.130  21.034  0.00  0.00    +0.000 C 
ATOM     25  C   UNL     1       2.113   2.574  19.862  0.00  0.00    +0.000 C 
ATOM     26  C   UNL     1       1.223   2.369  18.636  0.00  0.00    +0.000 C 
ENDBRANCH  19  25
ENDBRANCH  18  23
ENDBRANCH   1  18
TORSDOF 5
ENDMDL
MODEL 9
REMARK VINA RESULT:      -6.7      2.041      4.195
REMARK  Name = 
REMARK  9 active torsions:
REMARK  status: ('A' for Active; 'I' for Inactive)
REMARK    1  A    between atoms: C_1  and  C_2
REMARK    2  A    between atoms: C_2  and  C_3
REMARK    3  A    between atoms: C_2  and  N_4
REMARK    4  A    between atoms: C_8  and  C_9
REMARK    5  A    between atoms: C_9  and  N_10
REMARK    6  A    between atoms: N_10  and  C_11
REMARK    7  A    between atoms: C_12  and  C_14
REMARK    8  A    between atoms: N_18  and  C_19
REMARK    9  A    between atoms: N_22  and  C_23
REMARK                            x       y       z     vdW  Elec       q    Type
REMARK                         _______ _______ _______ _____ _____    ______ ____
ROOT
ATOM      1  N   UNL     1       2.209   8.301  18.717  0.00  0.00    +0.000 N 
ATOM      2  C   UNL     1       1.815   7.695  19.986  0.00  0.00    +0.000 C 
ATOM      3  C   UNL     1       3.030   7.587  17.835  0.00  0.00    +0.000 C 
ATOM      4  O   UNL     1       3.003   7.822  16.626  0.00  0.00    +0.000 OA
ENDROOT
BRANCH   3   5
ATOM      5  C   UNL     1       4.041   6.595  18.448  0.00  0.00    +0.000 C 
ATOM      6  C   UNL     1       5.347   6.598  17.659  0.00  0.00    +0.000 C 
ATOM      7  C   UNL     1       5.221   5.787  16.374  0.00  0.00    +0.000 C 
ATOM      8  C   UNL     1       4.629   4.392  16.614  0.00  0.00    +0.000 C 
ATOM      9  N   UNL     1       3.325   4.454  17.290  0.00  0.00    +0.000 NA
ATOM     10  C   UNL     1       3.467   5.179  18.569  0.00  0.00    +0.000 C 
BRANCH   9  11
ATOM     11  C   UNL     1       2.659   3.139  17.499  0.00  0.00    +0.000 C 
ATOM     12  C   UNL     1       1.273   3.171  18.179  0.00  0.00    +0.000 C 
ATOM     13  C   UNL     1       1.344   3.525  19.665  0.00  0.00    +0.000 C 
ATOM     14  N   UNL     1       2.198   2.573  20.389  0.00  0.00    +0.000 NA
ATOM     15  C   UNL     1       2.227   2.897  21.815  0.00  0.00    +0.000 C 
ATOM     16  C   UNL     1       3.560   2.590  19.835  0.00  0.00    +0.000 C 
ATOM     17  C   UNL     1       3.548   2.202  18.355  0.00  0.00    +0.000 C 
ENDBRANCH   9  11
ENDBRANCH   3   5
BRANCH   1  18
ATOM     18  C   UNL     1       1.283   9.262  18.100  0.00  0.00    +0.000 C 
BRANCH  18  23
ATOM     19  N   UNL     1       0.814  11.306  19.592  0.00  0.00    +0.000 N 
ATOM     20  C   UNL     1       1.374  12.553  19.672  0.00  0.00    +0.000 A 
ATOM     21  N   UNL     1       2.342  12.668  18.798  0.00  0.00    +0.000 NA
ATOM     22  N   UNL     1       2.431  11.479  18.126  0.00  0.00    +0.000 NA
ATOM     23  C   UNL     1       1.497  10.661  18.582  0.00  0.00    +0.000 A 
BRANCH  19  25
ATOM     24  C   UNL     1       0.211  10.397  21.819  0.00  0.00    +0.000 C 
ATOM     25  C   UNL     1      -0.272  10.819  20.426  0.00  0.00    +0.000 C 
ATOM     26  C   UNL     1      -1.388  11.858  20.537  0.00  0.00    +0.000 C 
ENDBRANCH  19  25
ENDBRANCH  18  23
ENDBRANCH   1  18
TORSDOF 5
ENDMDL
