MODEL 1
REMARK VINA RESULT:      -7.1      0.000      0.000
REMARK  Name = 
REMARK  7 active torsions:
REMARK  status: ('A' for Active; 'I' for Inactive)
REMARK    1  A    between atoms: C_1  and  C_2
REMARK    2  A    between atoms: C_2  and  S_3
REMARK    3  A    between atoms: S_3  and  C_6
REMARK    4  A    between atoms: C_6  and  C_7
REMARK    5  A    between atoms: C_7  and  N_8
REMARK    6  A    between atoms: C_9  and  C_11
REMARK    7  A    between atoms: C_11  and  C_12
REMARK                            x       y       z     vdW  Elec       q    Type
REMARK                         _______ _______ _______ _____ _____    ______ ____
ROOT
ATOM      1  N   UNL     1       4.439   3.564  16.842  0.00  0.00    +0.000 N 
ATOM      2  C   UNL     1       4.850   4.866  16.625  0.00  0.00    +0.000 C 
ATOM      3  O   UNL     1       4.189   5.865  16.860  0.00  0.00    +0.000 OA
ATOM      4  H   UNL     1       4.992   2.837  16.419  0.00  0.00    +0.000 HD
ENDROOT
BRANCH   2   5
ATOM      5  C   UNL     1       6.258   4.967  16.095  0.00  0.00    +0.000 C 
ATOM      6  C   UNL     1       7.197   5.950  16.808  0.00  0.00    +0.000 C 
ATOM      7  C   UNL     1       7.397   4.484  17.006  0.00  0.00    +0.000 C 
BRANCH   5   8
ATOM      8  C   UNL     1       6.480   4.829  14.592  0.00  0.00    +0.000 A 
ATOM      9  C   UNL     1       7.509   5.537  13.945  0.00  0.00    +0.000 A 
ATOM     10  C   UNL     1       7.911   5.209  12.648  0.00  0.00    +0.000 A 
ATOM     11  C   UNL     1       7.265   4.186  11.957  0.00  0.00    +0.000 A 
ATOM     12  C   UNL     1       6.180   3.543  12.544  0.00  0.00    +0.000 A 
ATOM     13 CL   UNL     1       5.378   2.273  11.703  0.00  0.00    +0.000 Cl
ATOM     14  C   UNL     1       5.775   3.873  13.836  0.00  0.00    +0.000 A 
ENDBRANCH   5   8
ENDBRANCH   2   5
BRANCH   1  15
ATOM     15  C   UNL     1       3.116   3.252  17.357  0.00  0.00    +0.000 C 
BRANCH  15  16
ATOM     16  C   UNL     1       3.181   2.153  18.405  0.00  0.00    +0.000 C 
BRANCH  16  17
ATOM     17  S   UNL     1       3.692   2.830  19.968  0.00  0.00    +0.000 S 
ATOM     18  O   UNL     1       3.822   4.264  19.794  0.00  0.00    +0.000 OA
ATOM     19  O   UNL     1       4.793   2.029  20.463  0.00  0.00    +0.000 OA
BRANCH  17  21
ATOM     20  C   UNL     1       1.231   3.607  20.840  0.00  0.00    +0.000 C 
ATOM     21  C   UNL     1       2.288   2.537  21.038  0.00  0.00    +0.000 C 
ENDBRANCH  17  21
ENDBRANCH  16  17
ENDBRANCH  15  16
ENDBRANCH   1  15
TORSDOF 6
ENDMDL
MODEL 2
REMARK VINA RESULT:      -6.9      4.656      7.397
REMARK  Name = 
REMARK  7 active torsions:
REMARK  status: ('A' for Active; 'I' for Inactive)
REMARK    1  A    between atoms: C_1  and  C_2
REMARK    2  A    between atoms: C_2  and  S_3
REMARK    3  A    between atoms: S_3  and  C_6
REMARK    4  A    between atoms: C_6  and  C_7
REMARK    5  A    between atoms: C_7  and  N_8
REMARK    6  A    between atoms: C_9  and  C_11
REMARK    7  A    between atoms: C_11  and  C_12
REMARK                            x       y       z     vdW  Elec       q    Type
REMARK                         _______ _______ _______ _____ _____    ______ ____
ROOT
ATOM      1  N   UNL     1       5.081   6.174  17.792  0.00  0.00    +0.000 N 
ATOM      2  C   UNL     1       4.390   5.674  18.880  0.00  0.00    +0.000 C 
ATOM      3  O   UNL     1       4.896   5.130  19.850  0.00  0.00    +0.000 OA
ATOM      4  H   UNL     1       4.538   6.407  16.978  0.00  0.00    +0.000 HD
ENDROOT
BRANCH   2   5
ATOM      5  C   UNL     1       2.901   5.897  18.797  0.00  0.00    +0.000 C 
ATOM      6  C   UNL     1       2.131   5.051  17.774  0.00  0.00    +0.000 C 
ATOM      7  C   UNL     1       1.986   4.741  19.227  0.00  0.00    +0.000 C 
BRANCH   5   8
ATOM      8  C   UNL     1       2.365   7.308  19.010  0.00  0.00    +0.000 A 
ATOM      9  C   UNL     1       2.182   8.184  17.925  0.00  0.00    +0.000 A 
ATOM     10  C   UNL     1       1.431   9.355  18.055  0.00  0.00    +0.000 A 
ATOM     11  C   UNL     1       0.878   9.692  19.288  0.00  0.00    +0.000 A 
ATOM     12  C   UNL     1       1.132   8.890  20.395  0.00  0.00    +0.000 A 
ATOM     13 CL   UNL     1       0.448   9.292  21.923  0.00  0.00    +0.000 Cl
ATOM     14  C   UNL     1       1.885   7.724  20.267  0.00  0.00    +0.000 A 
ENDBRANCH   5   8
ENDBRANCH   2   5
BRANCH   1  15
ATOM     15  C   UNL     1       6.526   6.064  17.683  0.00  0.00    +0.000 C 
BRANCH  15  16
ATOM     16  C   UNL     1       6.924   4.860  16.845  0.00  0.00    +0.000 C 
BRANCH  16  17
ATOM     17  S   UNL     1       6.636   5.196  15.121  0.00  0.00    +0.000 S 
ATOM     18  O   UNL     1       7.915   5.537  14.530  0.00  0.00    +0.000 OA
ATOM     19  O   UNL     1       5.500   6.089  15.025  0.00  0.00    +0.000 OA
BRANCH  17  21
ATOM     20  C   UNL     1       5.917   3.703  12.959  0.00  0.00    +0.000 C 
ATOM     21  C   UNL     1       6.135   3.612  14.458  0.00  0.00    +0.000 C 
ENDBRANCH  17  21
ENDBRANCH  16  17
ENDBRANCH  15  16
ENDBRANCH   1  15
TORSDOF 6
ENDMDL
MODEL 3
REMARK VINA RESULT:      -6.9      4.468      7.240
REMARK  Name = 
REMARK  7 active torsions:
REMARK  status: ('A' for Active; 'I' for Inactive)
REMARK    1  A    between atoms: C_1  and  C_2
REMARK    2  A    between atoms: C_2  and  S_3
REMARK    3  A    between atoms: S_3  and  C_6
REMARK    4  A    between atoms: C_6  and  C_7
REMARK    5  A    between atoms: C_7  and  N_8
REMARK    6  A    between atoms: C_9  and  C_11
REMARK    7  A    between atoms: C_11  and  C_12
REMARK                            x       y       z     vdW  Elec       q    Type
REMARK                         _______ _______ _______ _____ _____    ______ ____
ROOT
ATOM      1  N   UNL     1       4.847   5.414  19.206  0.00  0.00    +0.000 N 
ATOM      2  C   UNL     1       3.873   4.436  19.134  0.00  0.00    +0.000 C 
ATOM      3  O   UNL     1       4.072   3.233  19.191  0.00  0.00    +0.000 OA
ATOM      4  H   UNL     1       4.575   6.346  18.942  0.00  0.00    +0.000 HD
ENDROOT
BRANCH   2   5
ATOM      5  C   UNL     1       2.476   4.992  19.018  0.00  0.00    +0.000 C 
ATOM      6  C   UNL     1       1.545   4.316  18.002  0.00  0.00    +0.000 C 
ATOM      7  C   UNL     1       1.314   4.088  19.459  0.00  0.00    +0.000 C 
BRANCH   5   8
ATOM      8  C   UNL     1       2.275   6.494  19.187  0.00  0.00    +0.000 A 
ATOM      9  C   UNL     1       2.300   7.357  18.076  0.00  0.00    +0.000 A 
ATOM     10  C   UNL     1       1.836   8.671  18.167  0.00  0.00    +0.000 A 
ATOM     11  C   UNL     1       1.369   9.161  19.384  0.00  0.00    +0.000 A 
ATOM     12  C   UNL     1       1.429   8.354  20.515  0.00  0.00    +0.000 A 
ATOM     13 CL   UNL     1       0.848   8.946  22.024  0.00  0.00    +0.000 Cl
ATOM     14  C   UNL     1       1.897   7.044  20.427  0.00  0.00    +0.000 A 
ENDBRANCH   5   8
ENDBRANCH   2   5
BRANCH   1  15
ATOM     15  C   UNL     1       6.258   5.085  19.327  0.00  0.00    +0.000 C 
BRANCH  15  16
ATOM     16  C   UNL     1       6.893   4.881  17.961  0.00  0.00    +0.000 C 
BRANCH  16  17
ATOM     17  S   UNL     1       7.029   6.440  17.114  0.00  0.00    +0.000 S 
ATOM     18  O   UNL     1       5.710   7.041  17.105  0.00  0.00    +0.000 OA
ATOM     19  O   UNL     1       7.764   6.217  15.886  0.00  0.00    +0.000 OA
BRANCH  17  21
ATOM     20  C   UNL     1       8.002   8.887  17.810  0.00  0.00    +0.000 C 
ATOM     21  C   UNL     1       8.066   7.420  18.192  0.00  0.00    +0.000 C 
ENDBRANCH  17  21
ENDBRANCH  16  17
ENDBRANCH  15  16
ENDBRANCH   1  15
TORSDOF 6
ENDMDL
MODEL 4
REMARK VINA RESULT:      -6.9      4.599      7.357
REMARK  Name = 
REMARK  7 active torsions:
REMARK  status: ('A' for Active; 'I' for Inactive)
REMARK    1  A    between atoms: C_1  and  C_2
REMARK    2  A    between atoms: C_2  and  S_3
REMARK    3  A    between atoms: S_3  and  C_6
REMARK    4  A    between atoms: C_6  and  C_7
REMARK    5  A    between atoms: C_7  and  N_8
REMARK    6  A    between atoms: C_9  and  C_11
REMARK    7  A    between atoms: C_11  and  C_12
REMARK                            x       y       z     vdW  Elec       q    Type
REMARK                         _______ _______ _______ _____ _____    ______ ____
ROOT
ATOM      1  N   UNL     1       3.529   4.683  17.782  0.00  0.00    +0.000 N 
ATOM      2  C   UNL     1       3.799   5.166  19.048  0.00  0.00    +0.000 C 
ATOM      3  O   UNL     1       4.912   5.295  19.535  0.00  0.00    +0.000 OA
ATOM      4  H   UNL     1       2.573   4.437  17.583  0.00  0.00    +0.000 HD
ENDROOT
BRANCH   2   5
ATOM      5  C   UNL     1       2.563   5.584  19.805  0.00  0.00    +0.000 C 
ATOM      6  C   UNL     1       1.395   4.588  19.825  0.00  0.00    +0.000 C 
ATOM      7  C   UNL     1       2.200   4.786  21.066  0.00  0.00    +0.000 C 
BRANCH   5   8
ATOM      8  C   UNL     1       2.163   7.055  19.788  0.00  0.00    +0.000 A 
ATOM      9  C   UNL     1       2.292   7.827  18.619  0.00  0.00    +0.000 A 
ATOM     10  C   UNL     1       1.671   9.073  18.499  0.00  0.00    +0.000 A 
ATOM     11  C   UNL     1       0.936   9.588  19.563  0.00  0.00    +0.000 A 
ATOM     12  C   UNL     1       0.880   8.885  20.762  0.00  0.00    +0.000 A 
ATOM     13 CL   UNL     1      -0.032   9.508  22.082  0.00  0.00    +0.000 Cl
ATOM     14  C   UNL     1       1.503   7.644  20.884  0.00  0.00    +0.000 A 
ENDBRANCH   5   8
ENDBRANCH   2   5
BRANCH   1  15
ATOM     15  C   UNL     1       4.585   4.234  16.890  0.00  0.00    +0.000 C 
BRANCH  15  16
ATOM     16  C   UNL     1       5.202   5.402  16.138  0.00  0.00    +0.000 C 
BRANCH  16  17
ATOM     17  S   UNL     1       6.966   5.415  16.373  0.00  0.00    +0.000 S 
ATOM     18  O   UNL     1       7.575   5.474  15.059  0.00  0.00    +0.000 OA
ATOM     19  O   UNL     1       7.298   4.364  17.312  0.00  0.00    +0.000 OA
BRANCH  17  21
ATOM     20  C   UNL     1       7.937   6.763  18.532  0.00  0.00    +0.000 C 
ATOM     21  C   UNL     1       7.274   6.980  17.185  0.00  0.00    +0.000 C 
ENDBRANCH  17  21
ENDBRANCH  16  17
ENDBRANCH  15  16
ENDBRANCH   1  15
TORSDOF 6
ENDMDL
MODEL 5
REMARK VINA RESULT:      -6.9      1.086      1.252
REMARK  Name = 
REMARK  7 active torsions:
REMARK  status: ('A' for Active; 'I' for Inactive)
REMARK    1  A    between atoms: C_1  and  C_2
REMARK    2  A    between atoms: C_2  and  S_3
REMARK    3  A    between atoms: S_3  and  C_6
REMARK    4  A    between atoms: C_6  and  C_7
REMARK    5  A    between atoms: C_7  and  N_8
REMARK    6  A    between atoms: C_9  and  C_11
REMARK    7  A    between atoms: C_11  and  C_12
REMARK                            x       y       z     vdW  Elec       q    Type
REMARK                         _______ _______ _______ _____ _____    ______ ____
ROOT
ATOM      1  N   UNL     1       4.952   3.220  17.305  0.00  0.00    +0.000 N 
ATOM      2  C   UNL     1       5.006   4.478  16.736  0.00  0.00    +0.000 C 
ATOM      3  O   UNL     1       4.087   5.282  16.706  0.00  0.00    +0.000 OA
ATOM      4  H   UNL     1       5.703   2.587  17.082  0.00  0.00    +0.000 HD
ENDROOT
BRANCH   2   5
ATOM      5  C   UNL     1       6.360   4.818  16.165  0.00  0.00    +0.000 C 
ATOM      6  C   UNL     1       7.151   5.925  16.875  0.00  0.00    +0.000 C 
ATOM      7  C   UNL     1       7.592   4.508  17.028  0.00  0.00    +0.000 C 
BRANCH   5   8
ATOM      8  C   UNL     1       6.549   4.749  14.654  0.00  0.00    +0.000 A 
ATOM      9  C   UNL     1       7.552   5.501  14.015  0.00  0.00    +0.000 A 
ATOM     10  C   UNL     1       7.930   5.236  12.696  0.00  0.00    +0.000 A 
ATOM     11  C   UNL     1       7.284   4.234  11.976  0.00  0.00    +0.000 A 
ATOM     12  C   UNL     1       6.224   3.547  12.558  0.00  0.00    +0.000 A 
ATOM     13 CL   UNL     1       5.422   2.302  11.681  0.00  0.00    +0.000 Cl
ATOM     14  C   UNL     1       5.843   3.814  13.872  0.00  0.00    +0.000 A 
ENDBRANCH   5   8
ENDBRANCH   2   5
BRANCH   1  15
ATOM     15  C   UNL     1       3.737   2.704  17.915  0.00  0.00    +0.000 C 
BRANCH  15  16
ATOM     16  C   UNL     1       3.729   2.953  19.415  0.00  0.00    +0.000 C 
BRANCH  16  17
ATOM     17  S   UNL     1       2.758   4.397  19.787  0.00  0.00    +0.000 S 
ATOM     18  O   UNL     1       1.656   4.428  18.846  0.00  0.00    +0.000 OA
ATOM     19  O   UNL     1       3.663   5.519  19.927  0.00  0.00    +0.000 OA
BRANCH  17  21
ATOM     20  C   UNL     1       1.791   2.566  21.557  0.00  0.00    +0.000 C 
ATOM     21  C   UNL     1       2.080   4.047  21.406  0.00  0.00    +0.000 C 
ENDBRANCH  17  21
ENDBRANCH  16  17
ENDBRANCH  15  16
ENDBRANCH   1  15
TORSDOF 6
ENDMDL
MODEL 6
REMARK VINA RESULT:      -6.8      3.551      6.174
REMARK  Name = 
REMARK  7 active torsions:
REMARK  status: ('A' for Active; 'I' for Inactive)
REMARK    1  A    between atoms: C_1  and  C_2
REMARK    2  A    between atoms: C_2  and  S_3
REMARK    3  A    between atoms: S_3  and  C_6
REMARK    4  A    between atoms: C_6  and  C_7
REMARK    5  A    between atoms: C_7  and  N_8
REMARK    6  A    between atoms: C_9  and  C_11
REMARK    7  A    between atoms: C_11  and  C_12
REMARK                            x       y       z     vdW  Elec       q    Type
REMARK                         _______ _______ _______ _____ _____    ______ ____
ROOT
ATOM      1  N   UNL     1       5.367   7.033  18.086  0.00  0.00    +0.000 N 
ATOM      2  C   UNL     1       4.270   6.883  17.259  0.00  0.00    +0.000 C 
ATOM      3  O   UNL     1       4.295   6.914  16.038  0.00  0.00    +0.000 OA
ATOM      4  H   UNL     1       5.180   7.192  19.063  0.00  0.00    +0.000 HD
ENDROOT
BRANCH   2   5
ATOM      5  C   UNL     1       2.987   6.622  18.007  0.00  0.00    +0.000 C 
ATOM      6  C   UNL     1       2.581   7.659  19.064  0.00  0.00    +0.000 C 
ATOM      7  C   UNL     1       1.823   7.598  17.780  0.00  0.00    +0.000 C 
BRANCH   5   8
ATOM      8  C   UNL     1       2.616   5.180  18.333  0.00  0.00    +0.000 A 
ATOM      9  C   UNL     1       2.696   4.173  17.354  0.00  0.00    +0.000 A 
ATOM     10  C   UNL     1       2.644   2.820  17.697  0.00  0.00    +0.000 A 
ATOM     11  C   UNL     1       2.476   2.447  19.029  0.00  0.00    +0.000 A 
ATOM     12  C   UNL     1       2.296   3.428  19.997  0.00  0.00    +0.000 A 
ATOM     13 CL   UNL     1       2.093   2.980  21.647  0.00  0.00    +0.000 Cl
ATOM     14  C   UNL     1       2.341   4.779  19.655  0.00  0.00    +0.000 A 
ENDBRANCH   5   8
ENDBRANCH   2   5
BRANCH   1  15
ATOM     15  C   UNL     1       6.698   7.286  17.560  0.00  0.00    +0.000 C 
BRANCH  15  16
ATOM     16  C   UNL     1       7.729   6.387  18.224  0.00  0.00    +0.000 C 
BRANCH  16  17
ATOM     17  S   UNL     1       7.442   4.691  17.769  0.00  0.00    +0.000 S 
ATOM     18  O   UNL     1       6.231   4.265  18.443  0.00  0.00    +0.000 OA
ATOM     19  O   UNL     1       8.688   3.970  17.929  0.00  0.00    +0.000 OA
BRANCH  17  21
ATOM     20  C   UNL     1       5.964   3.825  15.651  0.00  0.00    +0.000 C 
ATOM     21  C   UNL     1       7.089   4.775  16.017  0.00  0.00    +0.000 C 
ENDBRANCH  17  21
ENDBRANCH  16  17
ENDBRANCH  15  16
ENDBRANCH   1  15
TORSDOF 6
ENDMDL
MODEL 7
REMARK VINA RESULT:      -6.7      3.664      6.903
REMARK  Name = 
REMARK  7 active torsions:
REMARK  status: ('A' for Active; 'I' for Inactive)
REMARK    1  A    between atoms: C_1  and  C_2
REMARK    2  A    between atoms: C_2  and  S_3
REMARK    3  A    between atoms: S_3  and  C_6
REMARK    4  A    between atoms: C_6  and  C_7
REMARK    5  A    between atoms: C_7  and  N_8
REMARK    6  A    between atoms: C_9  and  C_11
REMARK    7  A    between atoms: C_11  and  C_12
REMARK                            x       y       z     vdW  Elec       q    Type
REMARK                         _______ _______ _______ _____ _____    ______ ____
ROOT
ATOM      1  N   UNL     1       5.303   5.502  18.068  0.00  0.00    +0.000 N 
ATOM      2  C   UNL     1       4.693   4.457  18.736  0.00  0.00    +0.000 C 
ATOM      3  O   UNL     1       5.272   3.596  19.380  0.00  0.00    +0.000 OA
ATOM      4  H   UNL     1       4.735   6.015  17.414  0.00  0.00    +0.000 HD
ENDROOT
BRANCH   2   5
ATOM      5  C   UNL     1       3.188   4.485  18.645  0.00  0.00    +0.000 C 
ATOM      6  C   UNL     1       2.554   3.742  17.461  0.00  0.00    +0.000 C 
ATOM      7  C   UNL     1       2.442   3.155  18.828  0.00  0.00    +0.000 C 
BRANCH   5   8
ATOM      8  C   UNL     1       2.456   5.747  19.089  0.00  0.00    +0.000 A 
ATOM      9  C   UNL     1       1.935   5.860  20.391  0.00  0.00    +0.000 A 
ATOM     10  C   UNL     1       1.527   7.094  20.905  0.00  0.00    +0.000 A 
ATOM     11  C   UNL     1       1.600   8.236  20.111  0.00  0.00    +0.000 A 
ATOM     12  C   UNL     1       2.019   8.126  18.790  0.00  0.00    +0.000 A 
ATOM     13 CL   UNL     1       2.119   9.531  17.801  0.00  0.00    +0.000 Cl
ATOM     14  C   UNL     1       2.421   6.895  18.274  0.00  0.00    +0.000 A 
ENDBRANCH   5   8
ENDBRANCH   2   5
BRANCH   1  15
ATOM     15  C   UNL     1       6.747   5.658  18.040  0.00  0.00    +0.000 C 
BRANCH  15  16
ATOM     16  C   UNL     1       7.376   4.758  16.988  0.00  0.00    +0.000 C 
BRANCH  16  17
ATOM     17  S   UNL     1       6.792   5.212  15.370  0.00  0.00    +0.000 S 
ATOM     18  O   UNL     1       7.958   5.422  14.535  0.00  0.00    +0.000 OA
ATOM     19  O   UNL     1       5.785   6.240  15.532  0.00  0.00    +0.000 OA
BRANCH  17  21
ATOM     20  C   UNL     1       5.661   3.840  13.306  0.00  0.00    +0.000 C 
ATOM     21  C   UNL     1       5.965   3.735  14.788  0.00  0.00    +0.000 C 
ENDBRANCH  17  21
ENDBRANCH  16  17
ENDBRANCH  15  16
ENDBRANCH   1  15
TORSDOF 6
ENDMDL
MODEL 8
REMARK VINA RESULT:      -6.7      3.553      6.798
REMARK  Name = 
REMARK  7 active torsions:
REMARK  status: ('A' for Active; 'I' for Inactive)
REMARK    1  A    between atoms: C_1  and  C_2
REMARK    2  A    between atoms: C_2  and  S_3
REMARK    3  A    between atoms: S_3  and  C_6
REMARK    4  A    between atoms: C_6  and  C_7
REMARK    5  A    between atoms: C_7  and  N_8
REMARK    6  A    between atoms: C_9  and  C_11
REMARK    7  A    between atoms: C_11  and  C_12
REMARK                            x       y       z     vdW  Elec       q    Type
REMARK                         _______ _______ _______ _____ _____    ______ ____
ROOT
ATOM      1  N   UNL     1       4.988   5.057  17.782  0.00  0.00    +0.000 N 
ATOM      2  C   UNL     1       4.373   6.288  17.913  0.00  0.00    +0.000 C 
ATOM      3  O   UNL     1       4.896   7.368  17.689  0.00  0.00    +0.000 OA
ATOM      4  H   UNL     1       4.516   4.268  18.192  0.00  0.00    +0.000 HD
ENDROOT
BRANCH   2   5
ATOM      5  C   UNL     1       2.927   6.192  18.332  0.00  0.00    +0.000 C 
ATOM      6  C   UNL     1       2.394   7.312  19.237  0.00  0.00    +0.000 C 
ATOM      7  C   UNL     1       1.964   7.269  17.808  0.00  0.00    +0.000 C 
BRANCH   5   8
ATOM      8  C   UNL     1       2.334   4.811  18.588  0.00  0.00    +0.000 A 
ATOM      9  C   UNL     1       2.321   3.831  17.579  0.00  0.00    +0.000 A 
ATOM     10  C   UNL     1       2.056   2.491  17.871  0.00  0.00    +0.000 A 
ATOM     11  C   UNL     1       1.762   2.110  19.178  0.00  0.00    +0.000 A 
ATOM     12  C   UNL     1       1.673   3.080  20.171  0.00  0.00    +0.000 A 
ATOM     13 CL   UNL     1       1.318   2.620  21.791  0.00  0.00    +0.000 Cl
ATOM     14  C   UNL     1       1.932   4.418  19.879  0.00  0.00    +0.000 A 
ENDBRANCH   5   8
ENDBRANCH   2   5
BRANCH   1  15
ATOM     15  C   UNL     1       6.379   4.932  17.381  0.00  0.00    +0.000 C 
BRANCH  15  16
ATOM     16  C   UNL     1       6.523   4.017  16.176  0.00  0.00    +0.000 C 
BRANCH  16  17
ATOM     17  S   UNL     1       6.479   4.973  14.676  0.00  0.00    +0.000 S 
ATOM     18  O   UNL     1       7.845   5.343  14.362  0.00  0.00    +0.000 OA
ATOM     19  O   UNL     1       5.440   5.973  14.816  0.00  0.00    +0.000 OA
BRANCH  17  21
ATOM     20  C   UNL     1       6.856   3.824  12.235  0.00  0.00    +0.000 C 
ATOM     21  C   UNL     1       5.935   3.800  13.440  0.00  0.00    +0.000 C 
ENDBRANCH  17  21
ENDBRANCH  16  17
ENDBRANCH  15  16
ENDBRANCH   1  15
TORSDOF 6
ENDMDL
MODEL 9
REMARK VINA RESULT:      -6.7      4.386      7.131
REMARK  Name = 
REMARK  7 active torsions:
REMARK  status: ('A' for Active; 'I' for Inactive)
REMARK    1  A    between atoms: C_1  and  C_2
REMARK    2  A    between atoms: C_2  and  S_3
REMARK    3  A    between atoms: S_3  and  C_6
REMARK    4  A    between atoms: C_6  and  C_7
REMARK    5  A    between atoms: C_7  and  N_8
REMARK    6  A    between atoms: C_9  and  C_11
REMARK    7  A    between atoms: C_11  and  C_12
REMARK                            x       y       z     vdW  Elec       q    Type
REMARK                         _______ _______ _______ _____ _____    ______ ____
ROOT
ATOM      1  N   UNL     1       3.907   4.468  17.905  0.00  0.00    +0.000 N 
ATOM      2  C   UNL     1       2.545   4.464  18.141  0.00  0.00    +0.000 C 
ATOM      3  O   UNL     1       1.703   3.955  17.417  0.00  0.00    +0.000 OA
ATOM      4  H   UNL     1       4.463   5.092  18.466  0.00  0.00    +0.000 HD
ENDROOT
BRANCH   2   5
ATOM      5  C   UNL     1       2.161   5.125  19.440  0.00  0.00    +0.000 C 
ATOM      6  C   UNL     1       1.153   4.379  20.325  0.00  0.00    +0.000 C 
ATOM      7  C   UNL     1       2.585   4.429  20.743  0.00  0.00    +0.000 C 
BRANCH   5   8
ATOM      8  C   UNL     1       2.062   6.646  19.480  0.00  0.00    +0.000 A 
ATOM      9  C   UNL     1       2.298   7.417  18.327  0.00  0.00    +0.000 A 
ATOM     10  C   UNL     1       1.932   8.764  18.267  0.00  0.00    +0.000 A 
ATOM     11  C   UNL     1       1.354   9.378  19.375  0.00  0.00    +0.000 A 
ATOM     12  C   UNL     1       1.204   8.658  20.556  0.00  0.00    +0.000 A 
ATOM     13 CL   UNL     1       0.485   9.404  21.931  0.00  0.00    +0.000 Cl
ATOM     14  C   UNL     1       1.574   7.315  20.619  0.00  0.00    +0.000 A 
ENDBRANCH   5   8
ENDBRANCH   2   5
BRANCH   1  15
ATOM     15  C   UNL     1       4.482   3.875  16.709  0.00  0.00    +0.000 C 
BRANCH  15  16
ATOM     16  C   UNL     1       5.988   4.073  16.668  0.00  0.00    +0.000 C 
BRANCH  16  17
ATOM     17  S   UNL     1       6.371   5.728  16.138  0.00  0.00    +0.000 S 
ATOM     18  O   UNL     1       5.123   6.354  15.749  0.00  0.00    +0.000 OA
ATOM     19  O   UNL     1       7.494   5.656  15.227  0.00  0.00    +0.000 OA
BRANCH  17  21
ATOM     20  C   UNL     1       7.636   5.538  18.543  0.00  0.00    +0.000 C 
ATOM     21  C   UNL     1       6.939   6.531  17.632  0.00  0.00    +0.000 C 
ENDBRANCH  17  21
ENDBRANCH  16  17
ENDBRANCH  15  16
ENDBRANCH   1  15
TORSDOF 6
ENDMDL
