MODEL 1
REMARK VINA RESULT:      -8.9      0.000      0.000
REMARK  Name = 
REMARK  8 active torsions:
REMARK  status: ('A' for Active; 'I' for Inactive)
REMARK    1  A    between atoms: C_1  and  C_2
REMARK    2  A    between atoms: C_2  and  N_3
REMARK    3  A    between atoms: C_2  and  C_16
REMARK    4  A    between atoms: C_4  and  C_6
REMARK    5  A    between atoms: C_6  and  C_7
REMARK    6  A    between atoms: C_10  and  C_11
REMARK    7  A    between atoms: C_11  and  O_13
REMARK    8  A    between atoms: C_21  and  N_22
REMARK                            x       y       z     vdW  Elec       q    Type
REMARK                         _______ _______ _______ _____ _____    ______ ____
ROOT
ATOM      1  C   UNL     1       2.719   6.384  19.932  0.00  0.00    +0.000 C 
ATOM      2  C   UNL     1       3.008   6.610  18.446  0.00  0.00    +0.000 C 
ENDROOT
BRANCH   2   3
ATOM      3  C   UNL     1       4.377   6.097  18.003  0.00  0.00    +0.000 A 
ATOM      4  C   UNL     1       5.257   7.055  17.419  0.00  0.00    +0.000 A 
ATOM      5  C   UNL     1       6.616   6.832  17.254  0.00  0.00    +0.000 A 
ATOM      6  C   UNL     1       7.132   5.598  17.597  0.00  0.00    +0.000 A 
ATOM      7  C   UNL     1       6.269   4.599  18.055  0.00  0.00    +0.000 A 
ATOM      8  C   UNL     1       4.881   4.795  18.281  0.00  0.00    +0.000 A 
BRANCH   8   9
ATOM      9  N   UNL     1       4.139   3.685  18.765  0.00  0.00    +0.000 N 
ATOM     10  C   UNL     1       4.655   2.991  19.954  0.00  0.00    +0.000 C 
ATOM     11  C   UNL     1       3.581   2.250  20.753  0.00  0.00    +0.000 C 
ATOM     12  C   UNL     1       2.509   3.169  21.310  0.00  0.00    +0.000 C 
ATOM     13  C   UNL     1       1.115   3.111  20.672  0.00  0.00    +0.000 C 
ATOM     14  C   UNL     1       0.877   2.575  19.249  0.00  0.00    +0.000 C 
ATOM     15  C   UNL     1       1.151   3.517  18.070  0.00  0.00    +0.000 C 
ATOM     16  C   UNL     1       2.305   3.180  17.113  0.00  0.00    +0.000 C 
ATOM     17  C   UNL     1       3.651   2.783  17.707  0.00  0.00    +0.000 C 
ENDBRANCH   8   9
ENDBRANCH   2   3
BRANCH   2  18
ATOM     18  N   UNL     1       2.632   7.979  18.040  0.00  0.00    +0.000 N 
ATOM     19  C   UNL     1       1.802   8.818  18.752  0.00  0.00    +0.000 C 
ATOM     20  O   UNL     1       1.355   8.537  19.854  0.00  0.00    +0.000 OA
ATOM     21  H   UNL     1       2.712   8.164  17.052  0.00  0.00    +0.000 HD
BRANCH  19  22
ATOM     22  C   UNL     1       1.504  10.156  18.078  0.00  0.00    +0.000 C 
BRANCH  22  23
ATOM     23  C   UNL     1       0.051  10.547  18.203  0.00  0.00    +0.000 A 
ATOM     24  C   UNL     1      -0.959   9.771  17.600  0.00  0.00    +0.000 A 
ATOM     25  C   UNL     1      -2.301  10.150  17.693  0.00  0.00    +0.000 A 
ATOM     26  C   UNL     1      -2.663  11.298  18.402  0.00  0.00    +0.000 A 
ATOM     27  C   UNL     1      -1.672  12.053  19.034  0.00  0.00    +0.000 A 
ATOM     28  C   UNL     1      -0.327  11.684  18.928  0.00  0.00    +0.000 A 
BRANCH  26  29
ATOM     29  C   UNL     1      -4.108  11.634  18.486  0.00  0.00    +0.000 C 
ATOM     30  O   UNL     1      -4.986  10.927  17.998  0.00  0.00    +0.000 OA
BRANCH  29  31
ATOM     31  O   UNL     1      -4.379  12.786  19.127  0.00  0.00    +0.000 OA
ATOM     32  H   UNL     1      -4.981  13.394  18.668  0.00  0.00    +0.000 HD
ENDBRANCH  29  31
ENDBRANCH  26  29
ENDBRANCH  22  23
ENDBRANCH  19  22
ENDBRANCH   2  18
TORSDOF 7
ENDMDL
MODEL 2
REMARK VINA RESULT:      -8.4      1.126      1.514
REMARK  Name = 
REMARK  8 active torsions:
REMARK  status: ('A' for Active; 'I' for Inactive)
REMARK    1  A    between atoms: C_1  and  C_2
REMARK    2  A    between atoms: C_2  and  N_3
REMARK    3  A    between atoms: C_2  and  C_16
REMARK    4  A    between atoms: C_4  and  C_6
REMARK    5  A    between atoms: C_6  and  C_7
REMARK    6  A    between atoms: C_10  and  C_11
REMARK    7  A    between atoms: C_11  and  O_13
REMARK    8  A    between atoms: C_21  and  N_22
REMARK                            x       y       z     vdW  Elec       q    Type
REMARK                         _______ _______ _______ _____ _____    ______ ____
ROOT
ATOM      1  C   UNL     1       1.850   5.217  17.439  0.00  0.00    +0.000 C 
ATOM      2  C   UNL     1       2.768   6.427  17.623  0.00  0.00    +0.000 C 
ENDROOT
BRANCH   2   3
ATOM      3  C   UNL     1       4.227   6.055  17.884  0.00  0.00    +0.000 A 
ATOM      4  C   UNL     1       5.212   6.831  17.204  0.00  0.00    +0.000 A 
ATOM      5  C   UNL     1       6.552   6.832  17.561  0.00  0.00    +0.000 A 
ATOM      6  C   UNL     1       6.972   5.984  18.567  0.00  0.00    +0.000 A 
ATOM      7  C   UNL     1       6.048   5.122  19.164  0.00  0.00    +0.000 A 
ATOM      8  C   UNL     1       4.660   5.118  18.863  0.00  0.00    +0.000 A 
BRANCH   8   9
ATOM      9  N   UNL     1       3.846   4.192  19.567  0.00  0.00    +0.000 N 
ATOM     10  C   UNL     1       3.284   4.626  20.856  0.00  0.00    +0.000 C 
ATOM     11  C   UNL     1       2.005   3.887  21.254  0.00  0.00    +0.000 C 
ATOM     12  C   UNL     1       0.863   4.099  20.275  0.00  0.00    +0.000 C 
ATOM     13  C   UNL     1       0.461   2.920  19.382  0.00  0.00    +0.000 C 
ATOM     14  C   UNL     1       1.415   1.753  19.069  0.00  0.00    +0.000 C 
ATOM     15  C   UNL     1       2.467   1.958  17.972  0.00  0.00    +0.000 C 
ATOM     16  C   UNL     1       3.951   1.978  18.371  0.00  0.00    +0.000 C 
ATOM     17  C   UNL     1       4.370   2.816  19.573  0.00  0.00    +0.000 C 
ENDBRANCH   8   9
ENDBRANCH   2   3
BRANCH   2  18
ATOM     18  N   UNL     1       2.151   7.424  18.520  0.00  0.00    +0.000 N 
ATOM     19  C   UNL     1       2.013   8.766  18.240  0.00  0.00    +0.000 C 
ATOM     20  O   UNL     1       2.317   9.258  17.163  0.00  0.00    +0.000 OA
ATOM     21  H   UNL     1       2.147   7.170  19.496  0.00  0.00    +0.000 HD
BRANCH  19  22
ATOM     22  C   UNL     1       1.412   9.603  19.367  0.00  0.00    +0.000 C 
BRANCH  22  23
ATOM     23  C   UNL     1       0.036  10.122  19.022  0.00  0.00    +0.000 A 
ATOM     24  C   UNL     1      -0.661   9.625  17.903  0.00  0.00    +0.000 A 
ATOM     25  C   UNL     1      -1.923  10.127  17.568  0.00  0.00    +0.000 A 
ATOM     26  C   UNL     1      -2.520  11.118  18.351  0.00  0.00    +0.000 A 
ATOM     27  C   UNL     1      -1.852  11.590  19.484  0.00  0.00    +0.000 A 
ATOM     28  C   UNL     1      -0.582  11.101  19.811  0.00  0.00    +0.000 A 
BRANCH  26  29
ATOM     29  C   UNL     1      -3.872  11.592  17.958  0.00  0.00    +0.000 C 
ATOM     30  O   UNL     1      -4.826  11.600  18.731  0.00  0.00    +0.000 OA
BRANCH  29  31
ATOM     31  O   UNL     1      -3.973  11.996  16.678  0.00  0.00    +0.000 OA
ATOM     32  H   UNL     1      -3.984  12.956  16.537  0.00  0.00    +0.000 HD
ENDBRANCH  29  31
ENDBRANCH  26  29
ENDBRANCH  22  23
ENDBRANCH  19  22
ENDBRANCH   2  18
TORSDOF 7
ENDMDL
MODEL 3
REMARK VINA RESULT:      -8.4      1.041      1.244
REMARK  Name = 
REMARK  8 active torsions:
REMARK  status: ('A' for Active; 'I' for Inactive)
REMARK    1  A    between atoms: C_1  and  C_2
REMARK    2  A    between atoms: C_2  and  N_3
REMARK    3  A    between atoms: C_2  and  C_16
REMARK    4  A    between atoms: C_4  and  C_6
REMARK    5  A    between atoms: C_6  and  C_7
REMARK    6  A    between atoms: C_10  and  C_11
REMARK    7  A    between atoms: C_11  and  O_13
REMARK    8  A    between atoms: C_21  and  N_22
REMARK                            x       y       z     vdW  Elec       q    Type
REMARK                         _______ _______ _______ _____ _____    ______ ____
ROOT
ATOM      1  C   UNL     1       2.645   6.287  19.820  0.00  0.00    +0.000 C 
ATOM      2  C   UNL     1       2.989   6.547  18.352  0.00  0.00    +0.000 C 
ENDROOT
BRANCH   2   3
ATOM      3  C   UNL     1       4.380   6.057  17.953  0.00  0.00    +0.000 A 
ATOM      4  C   UNL     1       5.255   7.025  17.377  0.00  0.00    +0.000 A 
ATOM      5  C   UNL     1       6.622   6.830  17.252  0.00  0.00    +0.000 A 
ATOM      6  C   UNL     1       7.156   5.613  17.627  0.00  0.00    +0.000 A 
ATOM      7  C   UNL     1       6.302   4.602  18.078  0.00  0.00    +0.000 A 
ATOM      8  C   UNL     1       4.904   4.771  18.265  0.00  0.00    +0.000 A 
BRANCH   8   9
ATOM      9  N   UNL     1       4.174   3.653  18.746  0.00  0.00    +0.000 N 
ATOM     10  C   UNL     1       4.695   2.964  19.936  0.00  0.00    +0.000 C 
ATOM     11  C   UNL     1       3.628   2.210  20.733  0.00  0.00    +0.000 C 
ATOM     12  C   UNL     1       2.545   3.117  21.288  0.00  0.00    +0.000 C 
ATOM     13  C   UNL     1       1.153   3.043  20.648  0.00  0.00    +0.000 C 
ATOM     14  C   UNL     1       0.924   2.506  19.224  0.00  0.00    +0.000 C 
ATOM     15  C   UNL     1       1.189   3.452  18.046  0.00  0.00    +0.000 C 
ATOM     16  C   UNL     1       2.349   3.129  17.091  0.00  0.00    +0.000 C 
ATOM     17  C   UNL     1       3.698   2.746  17.687  0.00  0.00    +0.000 C 
ENDBRANCH   8   9
ENDBRANCH   2   3
BRANCH   2  18
ATOM     18  N   UNL     1       2.615   7.920  17.960  0.00  0.00    +0.000 N 
ATOM     19  C   UNL     1       1.863   8.786  18.724  0.00  0.00    +0.000 C 
ATOM     20  O   UNL     1       1.496   8.527  19.861  0.00  0.00    +0.000 OA
ATOM     21  H   UNL     1       2.623   8.094  16.967  0.00  0.00    +0.000 HD
BRANCH  19  22
ATOM     22  C   UNL     1       1.545  10.124  18.060  0.00  0.00    +0.000 C 
BRANCH  22  23
ATOM     23  C   UNL     1       0.423  10.856  18.757  0.00  0.00    +0.000 A 
ATOM     24  C   UNL     1      -0.920  10.625  18.397  0.00  0.00    +0.000 A 
ATOM     25  C   UNL     1      -1.956  11.324  19.024  0.00  0.00    +0.000 A 
ATOM     26  C   UNL     1      -1.676  12.251  20.031  0.00  0.00    +0.000 A 
ATOM     27  C   UNL     1      -0.350  12.458  20.420  0.00  0.00    +0.000 A 
ATOM     28  C   UNL     1       0.690  11.772  19.782  0.00  0.00    +0.000 A 
BRANCH  26  29
ATOM     29  C   UNL     1      -2.822  12.942  20.676  0.00  0.00    +0.000 C 
ATOM     30  O   UNL     1      -3.327  12.556  21.727  0.00  0.00    +0.000 OA
BRANCH  29  31
ATOM     31  O   UNL     1      -3.275  14.018  20.007  0.00  0.00    +0.000 OA
ATOM     32  H   UNL     1      -2.666  14.772  19.957  0.00  0.00    +0.000 HD
ENDBRANCH  29  31
ENDBRANCH  26  29
ENDBRANCH  22  23
ENDBRANCH  19  22
ENDBRANCH   2  18
TORSDOF 7
ENDMDL
MODEL 4
REMARK VINA RESULT:      -8.2      2.228      2.363
REMARK  Name = 
REMARK  8 active torsions:
REMARK  status: ('A' for Active; 'I' for Inactive)
REMARK    1  A    between atoms: C_1  and  C_2
REMARK    2  A    between atoms: C_2  and  N_3
REMARK    3  A    between atoms: C_2  and  C_16
REMARK    4  A    between atoms: C_4  and  C_6
REMARK    5  A    between atoms: C_6  and  C_7
REMARK    6  A    between atoms: C_10  and  C_11
REMARK    7  A    between atoms: C_11  and  O_13
REMARK    8  A    between atoms: C_21  and  N_22
REMARK                            x       y       z     vdW  Elec       q    Type
REMARK                         _______ _______ _______ _____ _____    ______ ____
ROOT
ATOM      1  C   UNL     1       2.783   6.147  19.903  0.00  0.00    +0.000 C 
ATOM      2  C   UNL     1       3.184   6.641  18.512  0.00  0.00    +0.000 C 
ENDROOT
BRANCH   2   3
ATOM      3  C   UNL     1       4.518   6.079  18.023  0.00  0.00    +0.000 A 
ATOM      4  C   UNL     1       5.430   7.014  17.449  0.00  0.00    +0.000 A 
ATOM      5  C   UNL     1       6.773   6.734  17.248  0.00  0.00    +0.000 A 
ATOM      6  C   UNL     1       7.238   5.467  17.540  0.00  0.00    +0.000 A 
ATOM      7  C   UNL     1       6.339   4.494  17.986  0.00  0.00    +0.000 A 
ATOM      8  C   UNL     1       4.966   4.748  18.249  0.00  0.00    +0.000 A 
BRANCH   8   9
ATOM      9  N   UNL     1       4.183   3.658  18.714  0.00  0.00    +0.000 N 
ATOM     10  C   UNL     1       4.667   2.931  19.897  0.00  0.00    +0.000 C 
ATOM     11  C   UNL     1       3.564   2.218  20.681  0.00  0.00    +0.000 C 
ATOM     12  C   UNL     1       2.522   3.167  21.245  0.00  0.00    +0.000 C 
ATOM     13  C   UNL     1       1.131   3.166  20.600  0.00  0.00    +0.000 C 
ATOM     14  C   UNL     1       0.881   2.657  19.168  0.00  0.00    +0.000 C 
ATOM     15  C   UNL     1       1.194   3.604  18.003  0.00  0.00    +0.000 C 
ATOM     16  C   UNL     1       2.341   3.240  17.047  0.00  0.00    +0.000 C 
ATOM     17  C   UNL     1       3.670   2.788  17.643  0.00  0.00    +0.000 C 
ENDBRANCH   8   9
ENDBRANCH   2   3
BRANCH   2  18
ATOM     18  N   UNL     1       2.977   8.098  18.392  0.00  0.00    +0.000 N 
ATOM     19  C   UNL     1       1.864   8.698  17.843  0.00  0.00    +0.000 C 
ATOM     20  O   UNL     1       0.883   8.071  17.470  0.00  0.00    +0.000 OA
ATOM     21  H   UNL     1       3.821   8.648  18.401  0.00  0.00    +0.000 HD
BRANCH  19  22
ATOM     22  C   UNL     1       1.925  10.222  17.763  0.00  0.00    +0.000 C 
BRANCH  22  23
ATOM     23  C   UNL     1       1.287  10.883  18.961  0.00  0.00    +0.000 A 
ATOM     24  C   UNL     1       0.572  10.122  19.908  0.00  0.00    +0.000 A 
ATOM     25  C   UNL     1      -0.043  10.739  21.001  0.00  0.00    +0.000 A 
ATOM     26  C   UNL     1       0.057  12.121  21.182  0.00  0.00    +0.000 A 
ATOM     27  C   UNL     1       0.795  12.878  20.269  0.00  0.00    +0.000 A 
ATOM     28  C   UNL     1       1.397  12.264  19.164  0.00  0.00    +0.000 A 
BRANCH  26  29
ATOM     29  C   UNL     1      -0.597  12.713  22.377  0.00  0.00    +0.000 C 
ATOM     30  O   UNL     1      -0.700  13.924  22.549  0.00  0.00    +0.000 OA
BRANCH  29  31
ATOM     31  O   UNL     1      -1.053  11.813  23.268  0.00  0.00    +0.000 OA
ATOM     32  H   UNL     1      -1.619  11.111  22.909  0.00  0.00    +0.000 HD
ENDBRANCH  29  31
ENDBRANCH  26  29
ENDBRANCH  22  23
ENDBRANCH  19  22
ENDBRANCH   2  18
TORSDOF 7
ENDMDL
MODEL 5
REMARK VINA RESULT:      -8.1      2.408      2.927
REMARK  Name = 
REMARK  8 active torsions:
REMARK  status: ('A' for Active; 'I' for Inactive)
REMARK    1  A    between atoms: C_1  and  C_2
REMARK    2  A    between atoms: C_2  and  N_3
REMARK    3  A    between atoms: C_2  and  C_16
REMARK    4  A    between atoms: C_4  and  C_6
REMARK    5  A    between atoms: C_6  and  C_7
REMARK    6  A    between atoms: C_10  and  C_11
REMARK    7  A    between atoms: C_11  and  O_13
REMARK    8  A    between atoms: C_21  and  N_22
REMARK                            x       y       z     vdW  Elec       q    Type
REMARK                         _______ _______ _______ _____ _____    ______ ____
ROOT
ATOM      1  C   UNL     1       1.864   6.020  17.580  0.00  0.00    +0.000 C 
ATOM      2  C   UNL     1       2.952   6.773  18.349  0.00  0.00    +0.000 C 
ENDROOT
BRANCH   2   3
ATOM      3  C   UNL     1       4.343   6.161  18.198  0.00  0.00    +0.000 A 
ATOM      4  C   UNL     1       5.316   6.954  17.520  0.00  0.00    +0.000 A 
ATOM      5  C   UNL     1       6.676   6.689  17.571  0.00  0.00    +0.000 A 
ATOM      6  C   UNL     1       7.108   5.562  18.241  0.00  0.00    +0.000 A 
ATOM      7  C   UNL     1       6.165   4.700  18.809  0.00  0.00    +0.000 A 
ATOM      8  C   UNL     1       4.768   4.954  18.820  0.00  0.00    +0.000 A 
BRANCH   8   9
ATOM      9  N   UNL     1       3.939   3.989  19.451  0.00  0.00    +0.000 N 
ATOM     10  C   UNL     1       3.573   4.223  20.856  0.00  0.00    +0.000 C 
ATOM     11  C   UNL     1       2.271   3.540  21.280  0.00  0.00    +0.000 C 
ATOM     12  C   UNL     1       1.060   4.031  20.507  0.00  0.00    +0.000 C 
ATOM     13  C   UNL     1       0.434   3.079  19.481  0.00  0.00    +0.000 C 
ATOM     14  C   UNL     1       1.213   1.911  18.851  0.00  0.00    +0.000 C 
ATOM     15  C   UNL     1       2.155   2.222  17.681  0.00  0.00    +0.000 C 
ATOM     16  C   UNL     1       3.667   2.035  17.884  0.00  0.00    +0.000 C 
ATOM     17  C   UNL     1       4.305   2.594  19.150  0.00  0.00    +0.000 C 
ENDBRANCH   8   9
ENDBRANCH   2   3
BRANCH   2  18
ATOM     18  N   UNL     1       2.498   7.099  19.715  0.00  0.00    +0.000 N 
ATOM     19  C   UNL     1       1.706   8.176  20.052  0.00  0.00    +0.000 C 
ATOM     20  O   UNL     1       1.222   8.933  19.224  0.00  0.00    +0.000 OA
ATOM     21  H   UNL     1       3.069   6.718  20.453  0.00  0.00    +0.000 HD
BRANCH  19  22
ATOM     22  C   UNL     1       1.441   8.340  21.548  0.00  0.00    +0.000 C 
BRANCH  22  23
ATOM     23  C   UNL     1       0.634   9.579  21.852  0.00  0.00    +0.000 A 
ATOM     24  C   UNL     1       0.865  10.780  21.150  0.00  0.00    +0.000 A 
ATOM     25  C   UNL     1       0.137  11.934  21.453  0.00  0.00    +0.000 A 
ATOM     26  C   UNL     1      -0.845  11.910  22.446  0.00  0.00    +0.000 A 
ATOM     27  C   UNL     1      -1.106  10.715  23.121  0.00  0.00    +0.000 A 
ATOM     28  C   UNL     1      -0.367   9.563  22.831  0.00  0.00    +0.000 A 
BRANCH  26  29
ATOM     29  C   UNL     1      -1.602  13.162  22.703  0.00  0.00    +0.000 C 
ATOM     30  O   UNL     1      -1.409  13.867  23.690  0.00  0.00    +0.000 OA
BRANCH  29  31
ATOM     31  O   UNL     1      -2.531  13.455  21.774  0.00  0.00    +0.000 OA
ATOM     32  H   UNL     1      -3.023  12.700  21.414  0.00  0.00    +0.000 HD
ENDBRANCH  29  31
ENDBRANCH  26  29
ENDBRANCH  22  23
ENDBRANCH  19  22
ENDBRANCH   2  18
TORSDOF 7
ENDMDL
MODEL 6
REMARK VINA RESULT:      -8.1      2.400      3.217
REMARK  Name = 
REMARK  8 active torsions:
REMARK  status: ('A' for Active; 'I' for Inactive)
REMARK    1  A    between atoms: C_1  and  C_2
REMARK    2  A    between atoms: C_2  and  N_3
REMARK    3  A    between atoms: C_2  and  C_16
REMARK    4  A    between atoms: C_4  and  C_6
REMARK    5  A    between atoms: C_6  and  C_7
REMARK    6  A    between atoms: C_10  and  C_11
REMARK    7  A    between atoms: C_11  and  O_13
REMARK    8  A    between atoms: C_21  and  N_22
REMARK                            x       y       z     vdW  Elec       q    Type
REMARK                         _______ _______ _______ _____ _____    ______ ____
ROOT
ATOM      1  C   UNL     1       6.577   7.018  18.080  0.00  0.00    +0.000 C 
ATOM      2  C   UNL     1       5.163   6.470  17.873  0.00  0.00    +0.000 C 
ENDROOT
BRANCH   2   3
ATOM      3  C   UNL     1       5.067   5.432  16.756  0.00  0.00    +0.000 A 
ATOM      4  C   UNL     1       5.532   5.836  15.470  0.00  0.00    +0.000 A 
ATOM      5  C   UNL     1       5.800   4.940  14.446  0.00  0.00    +0.000 A 
ATOM      6  C   UNL     1       5.531   3.601  14.649  0.00  0.00    +0.000 A 
ATOM      7  C   UNL     1       4.958   3.194  15.857  0.00  0.00    +0.000 A 
ATOM      8  C   UNL     1       4.707   4.069  16.948  0.00  0.00    +0.000 A 
BRANCH   8   9
ATOM      9  N   UNL     1       4.134   3.500  18.116  0.00  0.00    +0.000 N 
ATOM     10  C   UNL     1       4.890   3.622  19.372  0.00  0.00    +0.000 C 
ATOM     11  C   UNL     1       4.021   3.554  20.628  0.00  0.00    +0.000 C 
ATOM     12  C   UNL     1       3.002   4.676  20.712  0.00  0.00    +0.000 C 
ATOM     13  C   UNL     1       1.527   4.321  20.492  0.00  0.00    +0.000 C 
ATOM     14  C   UNL     1       1.083   3.059  19.731  0.00  0.00    +0.000 C 
ATOM     15  C   UNL     1       1.088   3.103  18.198  0.00  0.00    +0.000 C 
ATOM     16  C   UNL     1       2.080   2.207  17.440  0.00  0.00    +0.000 C 
ATOM     17  C   UNL     1       3.532   2.173  17.904  0.00  0.00    +0.000 C 
ENDBRANCH   8   9
ENDBRANCH   2   3
BRANCH   2  18
ATOM     18  N   UNL     1       4.171   7.562  17.873  0.00  0.00    +0.000 N 
ATOM     19  C   UNL     1       2.804   7.392  17.837  0.00  0.00    +0.000 C 
ATOM     20  O   UNL     1       2.266   6.296  17.888  0.00  0.00    +0.000 OA
ATOM     21  H   UNL     1       4.518   8.449  17.543  0.00  0.00    +0.000 HD
BRANCH  19  22
ATOM     22  C   UNL     1       1.994   8.685  17.764  0.00  0.00    +0.000 C 
BRANCH  22  23
ATOM     23  C   UNL     1       1.402   9.064  19.100  0.00  0.00    +0.000 A 
ATOM     24  C   UNL     1       1.558   8.225  20.222  0.00  0.00    +0.000 A 
ATOM     25  C   UNL     1       0.985   8.564  21.451  0.00  0.00    +0.000 A 
ATOM     26  C   UNL     1       0.263   9.752  21.591  0.00  0.00    +0.000 A 
ATOM     27  C   UNL     1       0.135  10.608  20.495  0.00  0.00    +0.000 A 
ATOM     28  C   UNL     1       0.694  10.262  19.259  0.00  0.00    +0.000 A 
BRANCH  26  29
ATOM     29  C   UNL     1      -0.299  10.068  22.930  0.00  0.00    +0.000 C 
ATOM     30  O   UNL     1      -1.349  10.684  23.083  0.00  0.00    +0.000 OA
BRANCH  29  31
ATOM     31  O   UNL     1       0.446   9.637  23.965  0.00  0.00    +0.000 OA
ATOM     32  H   UNL     1       0.850  10.329  24.512  0.00  0.00    +0.000 HD
ENDBRANCH  29  31
ENDBRANCH  26  29
ENDBRANCH  22  23
ENDBRANCH  19  22
ENDBRANCH   2  18
TORSDOF 7
ENDMDL
MODEL 7
REMARK VINA RESULT:      -8.0      2.350      3.259
REMARK  Name = 
REMARK  8 active torsions:
REMARK  status: ('A' for Active; 'I' for Inactive)
REMARK    1  A    between atoms: C_1  and  C_2
REMARK    2  A    between atoms: C_2  and  N_3
REMARK    3  A    between atoms: C_2  and  C_16
REMARK    4  A    between atoms: C_4  and  C_6
REMARK    5  A    between atoms: C_6  and  C_7
REMARK    6  A    between atoms: C_10  and  C_11
REMARK    7  A    between atoms: C_11  and  O_13
REMARK    8  A    between atoms: C_21  and  N_22
REMARK                            x       y       z     vdW  Elec       q    Type
REMARK                         _______ _______ _______ _____ _____    ______ ____
ROOT
ATOM      1  C   UNL     1       6.566   7.121  17.956  0.00  0.00    +0.000 C 
ATOM      2  C   UNL     1       5.168   6.517  17.806  0.00  0.00    +0.000 C 
ENDROOT
BRANCH   2   3
ATOM      3  C   UNL     1       5.072   5.463  16.704  0.00  0.00    +0.000 A 
ATOM      4  C   UNL     1       5.519   5.855  15.408  0.00  0.00    +0.000 A 
ATOM      5  C   UNL     1       5.788   4.947  14.394  0.00  0.00    +0.000 A 
ATOM      6  C   UNL     1       5.536   3.608  14.619  0.00  0.00    +0.000 A 
ATOM      7  C   UNL     1       4.980   3.212  15.838  0.00  0.00    +0.000 A 
ATOM      8  C   UNL     1       4.730   4.099  16.919  0.00  0.00    +0.000 A 
BRANCH   8   9
ATOM      9  N   UNL     1       4.176   3.540  18.101  0.00  0.00    +0.000 N 
ATOM     10  C   UNL     1       4.919   3.732  19.356  0.00  0.00    +0.000 C 
ATOM     11  C   UNL     1       4.045   3.663  20.610  0.00  0.00    +0.000 C 
ATOM     12  C   UNL     1       2.978   4.741  20.656  0.00  0.00    +0.000 C 
ATOM     13  C   UNL     1       1.521   4.314  20.439  0.00  0.00    +0.000 C 
ATOM     14  C   UNL     1       1.138   3.011  19.714  0.00  0.00    +0.000 C 
ATOM     15  C   UNL     1       1.150   3.011  18.181  0.00  0.00    +0.000 C 
ATOM     16  C   UNL     1       2.186   2.137  17.454  0.00  0.00    +0.000 C 
ATOM     17  C   UNL     1       3.634   2.181  17.926  0.00  0.00    +0.000 C 
ENDBRANCH   8   9
ENDBRANCH   2   3
BRANCH   2  18
ATOM     18  N   UNL     1       4.135   7.571  17.829  0.00  0.00    +0.000 N 
ATOM     19  C   UNL     1       2.775   7.350  17.796  0.00  0.00    +0.000 C 
ATOM     20  O   UNL     1       2.279   6.233  17.831  0.00  0.00    +0.000 OA
ATOM     21  H   UNL     1       4.446   8.476  17.513  0.00  0.00    +0.000 HD
BRANCH  19  22
ATOM     22  C   UNL     1       1.916   8.612  17.749  0.00  0.00    +0.000 C 
BRANCH  22  23
ATOM     23  C   UNL     1       1.348   8.968  19.102  0.00  0.00    +0.000 A 
ATOM     24  C   UNL     1       0.454  10.047  19.248  0.00  0.00    +0.000 A 
ATOM     25  C   UNL     1      -0.048  10.392  20.506  0.00  0.00    +0.000 A 
ATOM     26  C   UNL     1       0.317   9.660  21.638  0.00  0.00    +0.000 A 
ATOM     27  C   UNL     1       1.175   8.566  21.498  0.00  0.00    +0.000 A 
ATOM     28  C   UNL     1       1.691   8.229  20.242  0.00  0.00    +0.000 A 
BRANCH  26  29
ATOM     29  C   UNL     1      -0.270  10.062  22.943  0.00  0.00    +0.000 C 
ATOM     30  O   UNL     1       0.174   9.675  24.021  0.00  0.00    +0.000 OA
BRANCH  29  31
ATOM     31  O   UNL     1      -1.341  10.872  22.848  0.00  0.00    +0.000 OA
ATOM     32  H   UNL     1      -1.273  11.588  22.197  0.00  0.00    +0.000 HD
ENDBRANCH  29  31
ENDBRANCH  26  29
ENDBRANCH  22  23
ENDBRANCH  19  22
ENDBRANCH   2  18
TORSDOF 7
ENDMDL
MODEL 8
REMARK VINA RESULT:      -8.0      3.378      9.847
REMARK  Name = 
REMARK  8 active torsions:
REMARK  status: ('A' for Active; 'I' for Inactive)
REMARK    1  A    between atoms: C_1  and  C_2
REMARK    2  A    between atoms: C_2  and  N_3
REMARK    3  A    between atoms: C_2  and  C_16
REMARK    4  A    between atoms: C_4  and  C_6
REMARK    5  A    between atoms: C_6  and  C_7
REMARK    6  A    between atoms: C_10  and  C_11
REMARK    7  A    between atoms: C_11  and  O_13
REMARK    8  A    between atoms: C_21  and  N_22
REMARK                            x       y       z     vdW  Elec       q    Type
REMARK                         _______ _______ _______ _____ _____    ______ ____
ROOT
ATOM      1  C   UNL     1       0.858   9.909  21.360  0.00  0.00    +0.000 C 
ATOM      2  C   UNL     1       1.148   9.898  19.858  0.00  0.00    +0.000 C 
ENDROOT
BRANCH   2   3
ATOM      3  C   UNL     1       0.139  10.697  19.034  0.00  0.00    +0.000 A 
ATOM      4  C   UNL     1      -0.982   9.975  18.528  0.00  0.00    +0.000 A 
ATOM      5  C   UNL     1      -2.123  10.594  18.040  0.00  0.00    +0.000 A 
ATOM      6  C   UNL     1      -2.148  11.973  17.964  0.00  0.00    +0.000 A 
ATOM      7  C   UNL     1      -1.015  12.700  18.338  0.00  0.00    +0.000 A 
ATOM      8  C   UNL     1       0.157  12.111  18.884  0.00  0.00    +0.000 A 
BRANCH   8   9
ATOM      9  N   UNL     1       1.221  12.987  19.230  0.00  0.00    +0.000 N 
ATOM     10  C   UNL     1       2.535  12.730  18.622  0.00  0.00    +0.000 C 
ATOM     11  C   UNL     1       3.431  13.968  18.537  0.00  0.00    +0.000 C 
ATOM     12  C   UNL     1       2.845  15.071  17.674  0.00  0.00    +0.000 C 
ATOM     13  C   UNL     1       2.324  16.329  18.378  0.00  0.00    +0.000 C 
ATOM     14  C   UNL     1       1.913  16.338  19.862  0.00  0.00    +0.000 C 
ATOM     15  C   UNL     1       0.520  15.807  20.226  0.00  0.00    +0.000 C 
ATOM     16  C   UNL     1       0.419  14.520  21.060  0.00  0.00    +0.000 C 
ATOM     17  C   UNL     1       1.277  13.325  20.662  0.00  0.00    +0.000 C 
ENDBRANCH   8   9
ENDBRANCH   2   3
BRANCH   2  18
ATOM     18  N   UNL     1       1.475   8.535  19.395  0.00  0.00    +0.000 N 
ATOM     19  C   UNL     1       2.082   8.229  18.197  0.00  0.00    +0.000 C 
ATOM     20  O   UNL     1       2.494   9.078  17.420  0.00  0.00    +0.000 OA
ATOM     21  H   UNL     1       0.927   7.802  19.818  0.00  0.00    +0.000 HD
BRANCH  19  22
ATOM     22  C   UNL     1       2.240   6.736  17.916  0.00  0.00    +0.000 C 
BRANCH  22  23
ATOM     23  C   UNL     1       3.673   6.278  18.049  0.00  0.00    +0.000 A 
ATOM     24  C   UNL     1       4.091   5.539  19.174  0.00  0.00    +0.000 A 
ATOM     25  C   UNL     1       5.424   5.141  19.309  0.00  0.00    +0.000 A 
ATOM     26  C   UNL     1       6.360   5.455  18.321  0.00  0.00    +0.000 A 
ATOM     27  C   UNL     1       5.946   6.155  17.185  0.00  0.00    +0.000 A 
ATOM     28  C   UNL     1       4.616   6.569  17.055  0.00  0.00    +0.000 A 
BRANCH  26  29
ATOM     29  C   UNL     1       7.755   4.981  18.511  0.00  0.00    +0.000 C 
ATOM     30  O   UNL     1       8.303   4.196  17.743  0.00  0.00    +0.000 OA
BRANCH  29  31
ATOM     31  O   UNL     1       8.368   5.471  19.606  0.00  0.00    +0.000 OA
ATOM     32  H   UNL     1       8.736   4.811  20.215  0.00  0.00    +0.000 HD
ENDBRANCH  29  31
ENDBRANCH  26  29
ENDBRANCH  22  23
ENDBRANCH  19  22
ENDBRANCH   2  18
TORSDOF 7
ENDMDL
MODEL 9
REMARK VINA RESULT:      -8.0      2.430      3.214
REMARK  Name = 
REMARK  8 active torsions:
REMARK  status: ('A' for Active; 'I' for Inactive)
REMARK    1  A    between atoms: C_1  and  C_2
REMARK    2  A    between atoms: C_2  and  N_3
REMARK    3  A    between atoms: C_2  and  C_16
REMARK    4  A    between atoms: C_4  and  C_6
REMARK    5  A    between atoms: C_6  and  C_7
REMARK    6  A    between atoms: C_10  and  C_11
REMARK    7  A    between atoms: C_11  and  O_13
REMARK    8  A    between atoms: C_21  and  N_22
REMARK                            x       y       z     vdW  Elec       q    Type
REMARK                         _______ _______ _______ _____ _____    ______ ____
ROOT
ATOM      1  C   UNL     1       2.682   6.463  19.871  0.00  0.00    +0.000 C 
ATOM      2  C   UNL     1       2.978   6.602  18.376  0.00  0.00    +0.000 C 
ENDROOT
BRANCH   2   3
ATOM      3  C   UNL     1       4.369   6.110  17.979  0.00  0.00    +0.000 A 
ATOM      4  C   UNL     1       5.247   7.077  17.405  0.00  0.00    +0.000 A 
ATOM      5  C   UNL     1       6.613   6.878  17.282  0.00  0.00    +0.000 A 
ATOM      6  C   UNL     1       7.143   5.660  17.656  0.00  0.00    +0.000 A 
ATOM      7  C   UNL     1       6.287   4.650  18.105  0.00  0.00    +0.000 A 
ATOM      8  C   UNL     1       4.889   4.823  18.290  0.00  0.00    +0.000 A 
BRANCH   8   9
ATOM      9  N   UNL     1       4.156   3.705  18.768  0.00  0.00    +0.000 N 
ATOM     10  C   UNL     1       4.672   3.014  19.960  0.00  0.00    +0.000 C 
ATOM     11  C   UNL     1       3.602   2.262  20.753  0.00  0.00    +0.000 C 
ATOM     12  C   UNL     1       2.519   3.171  21.305  0.00  0.00    +0.000 C 
ATOM     13  C   UNL     1       1.129   3.100  20.661  0.00  0.00    +0.000 C 
ATOM     14  C   UNL     1       0.903   2.563  19.236  0.00  0.00    +0.000 C 
ATOM     15  C   UNL     1       1.173   3.509  18.060  0.00  0.00    +0.000 C 
ATOM     16  C   UNL     1       2.335   3.184  17.107  0.00  0.00    +0.000 C 
ATOM     17  C   UNL     1       3.682   2.799  17.708  0.00  0.00    +0.000 C 
ENDBRANCH   8   9
ENDBRANCH   2   3
BRANCH   2  18
ATOM     18  N   UNL     1       2.560   7.928  17.879  0.00  0.00    +0.000 N 
ATOM     19  C   UNL     1       1.774   8.823  18.573  0.00  0.00    +0.000 C 
ATOM     20  O   UNL     1       1.410   8.639  19.725  0.00  0.00    +0.000 OA
ATOM     21  H   UNL     1       2.567   8.025  16.876  0.00  0.00    +0.000 HD
BRANCH  19  22
ATOM     22  C   UNL     1       1.414  10.095  17.806  0.00  0.00    +0.000 C 
BRANCH  22  23
ATOM     23  C   UNL     1       1.665  11.342  18.620  0.00  0.00    +0.000 A 
ATOM     24  C   UNL     1       1.021  11.536  19.859  0.00  0.00    +0.000 A 
ATOM     25  C   UNL     1       1.233  12.704  20.597  0.00  0.00    +0.000 A 
ATOM     26  C   UNL     1       2.102  13.691  20.125  0.00  0.00    +0.000 A 
ATOM     27  C   UNL     1       2.773  13.490  18.917  0.00  0.00    +0.000 A 
ATOM     28  C   UNL     1       2.550  12.329  18.168  0.00  0.00    +0.000 A 
BRANCH  26  29
ATOM     29  C   UNL     1       2.304  14.897  20.969  0.00  0.00    +0.000 C 
ATOM     30  O   UNL     1       2.341  16.035  20.507  0.00  0.00    +0.000 OA
BRANCH  29  31
ATOM     31  O   UNL     1       2.459  14.643  22.281  0.00  0.00    +0.000 OA
ATOM     32  H   UNL     1       1.723  14.180  22.712  0.00  0.00    +0.000 HD
ENDBRANCH  29  31
ENDBRANCH  26  29
ENDBRANCH  22  23
ENDBRANCH  19  22
ENDBRANCH   2  18
TORSDOF 7
ENDMDL
