MODEL 1
REMARK VINA RESULT:      -8.9      0.000      0.000
REMARK  Name = 
REMARK  8 active torsions:
REMARK  status: ('A' for Active; 'I' for Inactive)
REMARK    1  A    between atoms: C_1  and  C_2
REMARK    2  A    between atoms: C_8  and  N_9
REMARK    3  A    between atoms: C_10  and  C_11
REMARK    4  A    between atoms: C_16  and  C_17
REMARK    5  A    between atoms: C_17  and  C_19
REMARK    6  A    between atoms: C_20  and  C_21
REMARK    7  A    between atoms: N_23  and  C_24
REMARK    8  A    between atoms: C_25  and  O_26
REMARK                            x       y       z     vdW  Elec       q    Type
REMARK                         _______ _______ _______ _____ _____    ______ ____
ROOT
ATOM      1  N   UNL     1       1.169   9.576  19.503  0.00  0.00    +0.000 N 
ATOM      2  C   UNL     1       0.913   9.029  20.749  0.00  0.00    +0.000 A 
ATOM      3  C   UNL     1       0.115   9.784  21.794  0.00  0.00    +0.000 C 
ATOM      4  N   UNL     1       1.282   7.836  21.097  0.00  0.00    +0.000 NA
ATOM      5  C   UNL     1       1.933   7.029  20.166  0.00  0.00    +0.000 A 
ATOM      6  C   UNL     1       2.318   5.747  20.555  0.00  0.00    +0.000 A 
ATOM      7  C   UNL     1       2.942   4.885  19.649  0.00  0.00    +0.000 A 
ATOM      8  C   UNL     1       3.160   5.287  18.324  0.00  0.00    +0.000 A 
ATOM      9  C   UNL     1       2.799   6.583  17.937  0.00  0.00    +0.000 A 
ATOM     10  C   UNL     1       2.182   7.441  18.861  0.00  0.00    +0.000 A 
ATOM     11  C   UNL     1       1.765   8.806  18.490  0.00  0.00    +0.000 A 
ATOM     12  O   UNL     1       1.968   9.182  17.337  0.00  0.00    +0.000 OA
ENDROOT
BRANCH   1  20
ATOM     13  C   UNL     1      -1.575  10.102  18.409  0.00  0.00    +0.000 C 
ATOM     14  C   UNL     1      -0.528  11.164  18.605  0.00  0.00    +0.000 A 
ATOM     15  C   UNL     1      -0.852  12.491  18.268  0.00  0.00    +0.000 A 
ATOM     16  C   UNL     1       0.052  13.522  18.502  0.00  0.00    +0.000 A 
ATOM     17  F   UNL     1      -0.287  14.780  18.189  0.00  0.00    +0.000 F 
ATOM     18  C   UNL     1       1.291  13.270  19.068  0.00  0.00    +0.000 A 
ATOM     19  C   UNL     1       1.638  11.960  19.395  0.00  0.00    +0.000 A 
ATOM     20  C   UNL     1       0.749  10.895  19.150  0.00  0.00    +0.000 A 
ENDBRANCH   1  20
BRANCH   8  21
ATOM     21  C   UNL     1       3.820   4.383  17.330  0.00  0.00    +0.000 C 
ATOM     22  O   UNL     1       3.222   3.369  16.986  0.00  0.00    +0.000 OA
BRANCH  21  23
ATOM     23  C   UNL     1       5.115   4.745  16.769  0.00  0.00    +0.000 A 
ATOM     24  C   UNL     1       6.272   5.215  17.458  0.00  0.00    +0.000 A 
ATOM     25  C   UNL     1       6.469   5.449  18.911  0.00  0.00    +0.000 C 
ATOM     26  N   UNL     1       7.302   5.415  16.624  0.00  0.00    +0.000 NA
ATOM     27  N   UNL     1       6.807   5.124  15.412  0.00  0.00    +0.000 N 
ATOM     28  C   UNL     1       7.680   5.191  14.264  0.00  0.00    +0.000 C 
ATOM     29  C   UNL     1       5.486   4.748  15.434  0.00  0.00    +0.000 A 
BRANCH  29  30
ATOM     30  O   UNL     1       4.777   4.449  14.346  0.00  0.00    +0.000 OA
ATOM     31  H   UNL     1       4.969   5.073  13.626  0.00  0.00    +0.000 HD
ENDBRANCH  29  30
ENDBRANCH  21  23
ENDBRANCH   8  21
TORSDOF 4
ENDMDL
MODEL 2
REMARK VINA RESULT:      -8.6      1.268      1.739
REMARK  Name = 
REMARK  8 active torsions:
REMARK  status: ('A' for Active; 'I' for Inactive)
REMARK    1  A    between atoms: C_1  and  C_2
REMARK    2  A    between atoms: C_8  and  N_9
REMARK    3  A    between atoms: C_10  and  C_11
REMARK    4  A    between atoms: C_16  and  C_17
REMARK    5  A    between atoms: C_17  and  C_19
REMARK    6  A    between atoms: C_20  and  C_21
REMARK    7  A    between atoms: N_23  and  C_24
REMARK    8  A    between atoms: C_25  and  O_26
REMARK                            x       y       z     vdW  Elec       q    Type
REMARK                         _______ _______ _______ _____ _____    ______ ____
ROOT
ATOM      1  N   UNL     1       0.997  10.361  19.753  0.00  0.00    +0.000 N 
ATOM      2  C   UNL     1       0.580   9.832  20.963  0.00  0.00    +0.000 A 
ATOM      3  C   UNL     1      -0.230  10.653  21.946  0.00  0.00    +0.000 C 
ATOM      4  N   UNL     1       0.799   8.605  21.321  0.00  0.00    +0.000 NA
ATOM      5  C   UNL     1       1.448   7.746  20.437  0.00  0.00    +0.000 A 
ATOM      6  C   UNL     1       1.671   6.429  20.837  0.00  0.00    +0.000 A 
ATOM      7  C   UNL     1       2.285   5.517  19.975  0.00  0.00    +0.000 A 
ATOM      8  C   UNL     1       2.658   5.906  18.681  0.00  0.00    +0.000 A 
ATOM      9  C   UNL     1       2.460   7.234  18.285  0.00  0.00    +0.000 A 
ATOM     10  C   UNL     1       1.851   8.141  19.166  0.00  0.00    +0.000 A 
ATOM     11  C   UNL     1       1.602   9.544  18.783  0.00  0.00    +0.000 A 
ATOM     12  O   UNL     1       1.942   9.907  17.659  0.00  0.00    +0.000 OA
ENDROOT
BRANCH   1  20
ATOM     13  C   UNL     1      -1.539  11.150  18.357  0.00  0.00    +0.000 C 
ATOM     14  C   UNL     1      -0.434  12.110  18.702  0.00  0.00    +0.000 A 
ATOM     15  C   UNL     1      -0.597  13.465  18.364  0.00  0.00    +0.000 A 
ATOM     16  C   UNL     1       0.360  14.406  18.729  0.00  0.00    +0.000 A 
ATOM     17  F   UNL     1       0.173  15.694  18.410  0.00  0.00    +0.000 F 
ATOM     18  C   UNL     1       1.496  14.035  19.430  0.00  0.00    +0.000 A 
ATOM     19  C   UNL     1       1.683  12.694  19.761  0.00  0.00    +0.000 A 
ATOM     20  C   UNL     1       0.740  11.718  19.387  0.00  0.00    +0.000 A 
ENDBRANCH   1  20
BRANCH   8  21
ATOM     21  C   UNL     1       3.311   4.950  17.733  0.00  0.00    +0.000 C 
ATOM     22  O   UNL     1       2.599   4.150  17.136  0.00  0.00    +0.000 OA
BRANCH  21  23
ATOM     23  C   UNL     1       4.750   5.018  17.511  0.00  0.00    +0.000 A 
ATOM     24  C   UNL     1       5.452   5.767  16.521  0.00  0.00    +0.000 A 
ATOM     25  C   UNL     1       4.916   6.672  15.472  0.00  0.00    +0.000 C 
ATOM     26  N   UNL     1       6.779   5.621  16.634  0.00  0.00    +0.000 NA
ATOM     27  N   UNL     1       6.932   4.758  17.649  0.00  0.00    +0.000 N 
ATOM     28  C   UNL     1       8.265   4.407  18.076  0.00  0.00    +0.000 C 
ATOM     29  C   UNL     1       5.744   4.335  18.193  0.00  0.00    +0.000 A 
BRANCH  29  30
ATOM     30  O   UNL     1       5.650   3.451  19.185  0.00  0.00    +0.000 OA
ATOM     31  H   UNL     1       6.082   2.614  18.945  0.00  0.00    +0.000 HD
ENDBRANCH  29  30
ENDBRANCH  21  23
ENDBRANCH   8  21
TORSDOF 4
ENDMDL
MODEL 3
REMARK VINA RESULT:      -8.3      3.417      7.926
REMARK  Name = 
REMARK  8 active torsions:
REMARK  status: ('A' for Active; 'I' for Inactive)
REMARK    1  A    between atoms: C_1  and  C_2
REMARK    2  A    between atoms: C_8  and  N_9
REMARK    3  A    between atoms: C_10  and  C_11
REMARK    4  A    between atoms: C_16  and  C_17
REMARK    5  A    between atoms: C_17  and  C_19
REMARK    6  A    between atoms: C_20  and  C_21
REMARK    7  A    between atoms: N_23  and  C_24
REMARK    8  A    between atoms: C_25  and  O_26
REMARK                            x       y       z     vdW  Elec       q    Type
REMARK                         _______ _______ _______ _____ _____    ______ ____
ROOT
ATOM      1  N   UNL     1       2.595   6.466  19.061  0.00  0.00    +0.000 N 
ATOM      2  C   UNL     1       2.131   6.111  20.317  0.00  0.00    +0.000 A 
ATOM      3  C   UNL     1       2.486   4.776  20.942  0.00  0.00    +0.000 C 
ATOM      4  N   UNL     1       1.416   6.894  21.063  0.00  0.00    +0.000 NA
ATOM      5  C   UNL     1       1.125   8.180  20.614  0.00  0.00    +0.000 A 
ATOM      6  C   UNL     1       0.360   9.011  21.431  0.00  0.00    +0.000 A 
ATOM      7  C   UNL     1       0.070  10.321  21.044  0.00  0.00    +0.000 A 
ATOM      8  C   UNL     1       0.574  10.832  19.840  0.00  0.00    +0.000 A 
ATOM      9  C   UNL     1       1.321   9.993  19.004  0.00  0.00    +0.000 A 
ATOM     10  C   UNL     1       1.595   8.675  19.402  0.00  0.00    +0.000 A 
ATOM     11  C   UNL     1       2.397   7.764  18.563  0.00  0.00    +0.000 A 
ATOM     12  O   UNL     1       2.830   8.190  17.494  0.00  0.00    +0.000 OA
ENDROOT
BRANCH   1  20
ATOM     13  C   UNL     1       1.342   4.209  17.531  0.00  0.00    +0.000 C 
ATOM     14  C   UNL     1       2.818   4.491  17.556  0.00  0.00    +0.000 A 
ATOM     15  C   UNL     1       3.671   3.658  16.810  0.00  0.00    +0.000 A 
ATOM     16  C   UNL     1       5.035   3.922  16.738  0.00  0.00    +0.000 A 
ATOM     17  F   UNL     1       5.822   3.123  16.005  0.00  0.00    +0.000 F 
ATOM     18  C   UNL     1       5.588   5.006  17.399  0.00  0.00    +0.000 A 
ATOM     19  C   UNL     1       4.763   5.836  18.157  0.00  0.00    +0.000 A 
ATOM     20  C   UNL     1       3.382   5.580  18.262  0.00  0.00    +0.000 A 
ENDBRANCH   1  20
BRANCH   8  21
ATOM     21  C   UNL     1       0.286  12.233  19.402  0.00  0.00    +0.000 C 
ATOM     22  O   UNL     1      -0.871  12.524  19.117  0.00  0.00    +0.000 OA
BRANCH  21  23
ATOM     23  C   UNL     1       1.361  13.217  19.366  0.00  0.00    +0.000 A 
ATOM     24  C   UNL     1       1.675  14.212  20.338  0.00  0.00    +0.000 A 
ATOM     25  C   UNL     1       1.008  14.503  21.634  0.00  0.00    +0.000 C 
ATOM     26  N   UNL     1       2.758  14.922  19.994  0.00  0.00    +0.000 NA
ATOM     27  N   UNL     1       3.111  14.427  18.798  0.00  0.00    +0.000 N 
ATOM     28  C   UNL     1       4.290  14.945  18.146  0.00  0.00    +0.000 C 
ATOM     29  C   UNL     1       2.286  13.422  18.355  0.00  0.00    +0.000 A 
BRANCH  29  30
ATOM     30  O   UNL     1       2.423  12.808  17.181  0.00  0.00    +0.000 OA
ATOM     31  H   UNL     1       3.336  12.501  17.055  0.00  0.00    +0.000 HD
ENDBRANCH  29  30
ENDBRANCH  21  23
ENDBRANCH   8  21
TORSDOF 4
ENDMDL
MODEL 4
REMARK VINA RESULT:      -8.2      3.382      8.459
REMARK  Name = 
REMARK  8 active torsions:
REMARK  status: ('A' for Active; 'I' for Inactive)
REMARK    1  A    between atoms: C_1  and  C_2
REMARK    2  A    between atoms: C_8  and  N_9
REMARK    3  A    between atoms: C_10  and  C_11
REMARK    4  A    between atoms: C_16  and  C_17
REMARK    5  A    between atoms: C_17  and  C_19
REMARK    6  A    between atoms: C_20  and  C_21
REMARK    7  A    between atoms: N_23  and  C_24
REMARK    8  A    between atoms: C_25  and  O_26
REMARK                            x       y       z     vdW  Elec       q    Type
REMARK                         _______ _______ _______ _____ _____    ______ ____
ROOT
ATOM      1  N   UNL     1       3.018   6.408  18.700  0.00  0.00    +0.000 N 
ATOM      2  C   UNL     1       2.688   5.946  19.964  0.00  0.00    +0.000 A 
ATOM      3  C   UNL     1       3.320   4.693  20.536  0.00  0.00    +0.000 C 
ATOM      4  N   UNL     1       1.872   6.562  20.760  0.00  0.00    +0.000 NA
ATOM      5  C   UNL     1       1.319   7.776  20.360  0.00  0.00    +0.000 A 
ATOM      6  C   UNL     1       0.447   8.428  21.231  0.00  0.00    +0.000 A 
ATOM      7  C   UNL     1      -0.106   9.665  20.892  0.00  0.00    +0.000 A 
ATOM      8  C   UNL     1       0.235  10.287  19.683  0.00  0.00    +0.000 A 
ATOM      9  C   UNL     1       1.091   9.624  18.794  0.00  0.00    +0.000 A 
ATOM     10  C   UNL     1       1.630   8.376  19.144  0.00  0.00    +0.000 A 
ATOM     11  C   UNL     1       2.552   7.654  18.248  0.00  0.00    +0.000 A 
ATOM     12  O   UNL     1       2.846   8.175  17.174  0.00  0.00    +0.000 OA
ENDROOT
BRANCH   1  20
ATOM     13  C   UNL     1       2.187   3.913  17.255  0.00  0.00    +0.000 C 
ATOM     14  C   UNL     1       3.564   4.512  17.178  0.00  0.00    +0.000 A 
ATOM     15  C   UNL     1       4.525   3.876  16.371  0.00  0.00    +0.000 A 
ATOM     16  C   UNL     1       5.789   4.432  16.204  0.00  0.00    +0.000 A 
ATOM     17  F   UNL     1       6.681   3.816  15.416  0.00  0.00    +0.000 F 
ATOM     18  C   UNL     1       6.136   5.619  16.827  0.00  0.00    +0.000 A 
ATOM     19  C   UNL     1       5.203   6.257  17.644  0.00  0.00    +0.000 A 
ATOM     20  C   UNL     1       3.923   5.706  17.846  0.00  0.00    +0.000 A 
ENDBRANCH   1  20
BRANCH   8  21
ATOM     21  C   UNL     1      -0.335  11.615  19.297  0.00  0.00    +0.000 C 
ATOM     22  O   UNL     1       0.416  12.584  19.278  0.00  0.00    +0.000 OA
BRANCH  21  23
ATOM     23  C   UNL     1      -1.738  11.718  18.914  0.00  0.00    +0.000 A 
ATOM     24  C   UNL     1      -2.829  12.203  19.693  0.00  0.00    +0.000 A 
ATOM     25  C   UNL     1      -2.829  12.735  21.080  0.00  0.00    +0.000 C 
ATOM     26  N   UNL     1      -3.979  12.188  19.006  0.00  0.00    +0.000 NA
ATOM     27  N   UNL     1      -3.647  11.660  17.818  0.00  0.00    +0.000 N 
ATOM     28  C   UNL     1      -4.660  11.538  16.797  0.00  0.00    +0.000 C 
ATOM     29  C   UNL     1      -2.318  11.326  17.718  0.00  0.00    +0.000 A 
BRANCH  29  30
ATOM     30  O   UNL     1      -1.771  10.755  16.646  0.00  0.00    +0.000 OA
ATOM     31  H   UNL     1      -1.589  11.416  15.957  0.00  0.00    +0.000 HD
ENDBRANCH  29  30
ENDBRANCH  21  23
ENDBRANCH   8  21
TORSDOF 4
ENDMDL
MODEL 5
REMARK VINA RESULT:      -8.2      3.342      8.147
REMARK  Name = 
REMARK  8 active torsions:
REMARK  status: ('A' for Active; 'I' for Inactive)
REMARK    1  A    between atoms: C_1  and  C_2
REMARK    2  A    between atoms: C_8  and  N_9
REMARK    3  A    between atoms: C_10  and  C_11
REMARK    4  A    between atoms: C_16  and  C_17
REMARK    5  A    between atoms: C_17  and  C_19
REMARK    6  A    between atoms: C_20  and  C_21
REMARK    7  A    between atoms: N_23  and  C_24
REMARK    8  A    between atoms: C_25  and  O_26
REMARK                            x       y       z     vdW  Elec       q    Type
REMARK                         _______ _______ _______ _____ _____    ______ ____
ROOT
ATOM      1  N   UNL     1       4.225   5.905  17.663  0.00  0.00    +0.000 N 
ATOM      2  C   UNL     1       4.085   5.272  18.887  0.00  0.00    +0.000 A 
ATOM      3  C   UNL     1       4.909   4.051  19.243  0.00  0.00    +0.000 C 
ATOM      4  N   UNL     1       3.293   5.692  19.823  0.00  0.00    +0.000 NA
ATOM      5  C   UNL     1       2.570   6.866  19.624  0.00  0.00    +0.000 A 
ATOM      6  C   UNL     1       1.727   7.307  20.644  0.00  0.00    +0.000 A 
ATOM      7  C   UNL     1       1.007   8.497  20.509  0.00  0.00    +0.000 A 
ATOM      8  C   UNL     1       1.147   9.283  19.357  0.00  0.00    +0.000 A 
ATOM      9  C   UNL     1       1.973   8.831  18.320  0.00  0.00    +0.000 A 
ATOM     10  C   UNL     1       2.681   7.628  18.466  0.00  0.00    +0.000 A 
ATOM     11  C   UNL     1       3.579   7.126  17.408  0.00  0.00    +0.000 A 
ATOM     12  O   UNL     1       3.698   7.793  16.383  0.00  0.00    +0.000 OA
ENDROOT
BRANCH   1  20
ATOM     13  C   UNL     1       7.109   6.729  17.571  0.00  0.00    +0.000 C 
ATOM     14  C   UNL     1       6.462   5.813  16.569  0.00  0.00    +0.000 A 
ATOM     15  C   UNL     1       7.254   5.297  15.527  0.00  0.00    +0.000 A 
ATOM     16  C   UNL     1       6.725   4.386  14.619  0.00  0.00    +0.000 A 
ATOM     17  F   UNL     1       7.505   3.895  13.647  0.00  0.00    +0.000 F 
ATOM     18  C   UNL     1       5.408   3.966  14.714  0.00  0.00    +0.000 A 
ATOM     19  C   UNL     1       4.602   4.478  15.730  0.00  0.00    +0.000 A 
ATOM     20  C   UNL     1       5.107   5.416  16.651  0.00  0.00    +0.000 A 
ENDBRANCH   1  20
BRANCH   8  21
ATOM     21  C   UNL     1       0.395  10.565  19.187  0.00  0.00    +0.000 C 
ATOM     22  O   UNL     1      -0.776  10.505  18.827  0.00  0.00    +0.000 OA
BRANCH  21  23
ATOM     23  C   UNL     1       1.045  11.833  19.492  0.00  0.00    +0.000 A 
ATOM     24  C   UNL     1       0.821  12.690  20.609  0.00  0.00    +0.000 A 
ATOM     25  C   UNL     1      -0.113  12.520  21.752  0.00  0.00    +0.000 C 
ATOM     26  N   UNL     1       1.627  13.761  20.586  0.00  0.00    +0.000 NA
ATOM     27  N   UNL     1       2.327  13.623  19.451  0.00  0.00    +0.000 N 
ATOM     28  C   UNL     1       3.341  14.599  19.129  0.00  0.00    +0.000 C 
ATOM     29  C   UNL     1       1.995  12.499  18.734  0.00  0.00    +0.000 A 
BRANCH  29  30
ATOM     30  O   UNL     1       2.534  12.177  17.559  0.00  0.00    +0.000 OA
ATOM     31  H   UNL     1       3.355  11.671  17.682  0.00  0.00    +0.000 HD
ENDBRANCH  29  30
ENDBRANCH  21  23
ENDBRANCH   8  21
TORSDOF 4
ENDMDL
MODEL 6
REMARK VINA RESULT:      -8.0      3.563      8.778
REMARK  Name = 
REMARK  8 active torsions:
REMARK  status: ('A' for Active; 'I' for Inactive)
REMARK    1  A    between atoms: C_1  and  C_2
REMARK    2  A    between atoms: C_8  and  N_9
REMARK    3  A    between atoms: C_10  and  C_11
REMARK    4  A    between atoms: C_16  and  C_17
REMARK    5  A    between atoms: C_17  and  C_19
REMARK    6  A    between atoms: C_20  and  C_21
REMARK    7  A    between atoms: N_23  and  C_24
REMARK    8  A    between atoms: C_25  and  O_26
REMARK                            x       y       z     vdW  Elec       q    Type
REMARK                         _______ _______ _______ _____ _____    ______ ____
ROOT
ATOM      1  N   UNL     1       2.768   6.294  19.048  0.00  0.00    +0.000 N 
ATOM      2  C   UNL     1       2.363   5.814  20.282  0.00  0.00    +0.000 A 
ATOM      3  C   UNL     1       2.889   4.503  20.831  0.00  0.00    +0.000 C 
ATOM      4  N   UNL     1       1.560   6.456  21.072  0.00  0.00    +0.000 NA
ATOM      5  C   UNL     1       1.104   7.718  20.696  0.00  0.00    +0.000 A 
ATOM      6  C   UNL     1       0.245   8.397  21.559  0.00  0.00    +0.000 A 
ATOM      7  C   UNL     1      -0.212   9.680  21.247  0.00  0.00    +0.000 A 
ATOM      8  C   UNL     1       0.213  10.317  20.073  0.00  0.00    +0.000 A 
ATOM      9  C   UNL     1       1.055   9.628  19.190  0.00  0.00    +0.000 A 
ATOM     10  C   UNL     1       1.498   8.336  19.514  0.00  0.00    +0.000 A 
ATOM     11  C   UNL     1       2.402   7.583  18.625  0.00  0.00    +0.000 A 
ATOM     12  O   UNL     1       2.769   8.119  17.581  0.00  0.00    +0.000 OA
ENDROOT
BRANCH   1  20
ATOM     13  C   UNL     1       1.793   4.008  17.367  0.00  0.00    +0.000 C 
ATOM     14  C   UNL     1       3.225   4.462  17.422  0.00  0.00    +0.000 A 
ATOM     15  C   UNL     1       4.171   3.786  16.630  0.00  0.00    +0.000 A 
ATOM     16  C   UNL     1       5.494   4.215  16.586  0.00  0.00    +0.000 A 
ATOM     17  F   UNL     1       6.371   3.565  15.810  0.00  0.00    +0.000 F 
ATOM     18  C   UNL     1       5.914   5.312  17.319  0.00  0.00    +0.000 A 
ATOM     19  C   UNL     1       4.995   5.987  18.122  0.00  0.00    +0.000 A 
ATOM     20  C   UNL     1       3.655   5.562  18.201  0.00  0.00    +0.000 A 
ENDBRANCH   1  20
BRANCH   8  21
ATOM     21  C   UNL     1      -0.254  11.693  19.714  0.00  0.00    +0.000 C 
ATOM     22  O   UNL     1       0.593  12.555  19.506  0.00  0.00    +0.000 OA
BRANCH  21  23
ATOM     23  C   UNL     1      -1.680  11.962  19.580  0.00  0.00    +0.000 A 
ATOM     24  C   UNL     1      -2.564  11.523  18.551  0.00  0.00    +0.000 A 
ATOM     25  C   UNL     1      -2.278  10.676  17.364  0.00  0.00    +0.000 C 
ATOM     26  N   UNL     1      -3.822  11.930  18.767  0.00  0.00    +0.000 NA
ATOM     27  N   UNL     1      -3.745  12.659  19.891  0.00  0.00    +0.000 N 
ATOM     28  C   UNL     1      -4.952  13.223  20.445  0.00  0.00    +0.000 C 
ATOM     29  C   UNL     1      -2.474  12.741  20.405  0.00  0.00    +0.000 A 
BRANCH  29  30
ATOM     30  O   UNL     1      -2.153  13.441  21.493  0.00  0.00    +0.000 OA
ATOM     31  H   UNL     1      -1.479  14.111  21.286  0.00  0.00    +0.000 HD
ENDBRANCH  29  30
ENDBRANCH  21  23
ENDBRANCH   8  21
TORSDOF 4
ENDMDL
MODEL 7
REMARK VINA RESULT:      -8.0      3.349      8.484
REMARK  Name = 
REMARK  8 active torsions:
REMARK  status: ('A' for Active; 'I' for Inactive)
REMARK    1  A    between atoms: C_1  and  C_2
REMARK    2  A    between atoms: C_8  and  N_9
REMARK    3  A    between atoms: C_10  and  C_11
REMARK    4  A    between atoms: C_16  and  C_17
REMARK    5  A    between atoms: C_17  and  C_19
REMARK    6  A    between atoms: C_20  and  C_21
REMARK    7  A    between atoms: N_23  and  C_24
REMARK    8  A    between atoms: C_25  and  O_26
REMARK                            x       y       z     vdW  Elec       q    Type
REMARK                         _______ _______ _______ _____ _____    ______ ____
ROOT
ATOM      1  N   UNL     1       3.820   6.232  17.951  0.00  0.00    +0.000 N 
ATOM      2  C   UNL     1       3.562   5.696  19.202  0.00  0.00    +0.000 A 
ATOM      3  C   UNL     1       4.257   4.437  19.680  0.00  0.00    +0.000 C 
ATOM      4  N   UNL     1       2.762   6.242  20.064  0.00  0.00    +0.000 NA
ATOM      5  C   UNL     1       2.155   7.457  19.751  0.00  0.00    +0.000 A 
ATOM      6  C   UNL     1       1.302   8.033  20.692  0.00  0.00    +0.000 A 
ATOM      7  C   UNL     1       0.696   9.267  20.443  0.00  0.00    +0.000 A 
ATOM      8  C   UNL     1       0.964   9.960  19.254  0.00  0.00    +0.000 A 
ATOM      9  C   UNL     1       1.799   9.373  18.296  0.00  0.00    +0.000 A 
ATOM     10  C   UNL     1       2.392   8.128  18.556  0.00  0.00    +0.000 A 
ATOM     11  C   UNL     1       3.296   7.483  17.585  0.00  0.00    +0.000 A 
ATOM     12  O   UNL     1       3.526   8.069  16.529  0.00  0.00    +0.000 OA
ENDROOT
BRANCH   1  20
ATOM     13  C   UNL     1       6.691   7.074  17.722  0.00  0.00    +0.000 C 
ATOM     14  C   UNL     1       6.057   6.005  16.876  0.00  0.00    +0.000 A 
ATOM     15  C   UNL     1       6.854   5.345  15.924  0.00  0.00    +0.000 A 
ATOM     16  C   UNL     1       6.337   4.296  15.170  0.00  0.00    +0.000 A 
ATOM     17  F   UNL     1       7.123   3.673  14.282  0.00  0.00    +0.000 F 
ATOM     18  C   UNL     1       5.027   3.878  15.334  0.00  0.00    +0.000 A 
ATOM     19  C   UNL     1       4.215   4.529  16.262  0.00  0.00    +0.000 A 
ATOM     20  C   UNL     1       4.708   5.606  17.024  0.00  0.00    +0.000 A 
ENDBRANCH   1  20
BRANCH   8  21
ATOM     21  C   UNL     1       0.335  11.287  18.963  0.00  0.00    +0.000 C 
ATOM     22  O   UNL     1       1.072  12.256  18.818  0.00  0.00    +0.000 OA
BRANCH  21  23
ATOM     23  C   UNL     1      -1.111  11.387  18.816  0.00  0.00    +0.000 A 
ATOM     24  C   UNL     1      -2.044  12.008  19.698  0.00  0.00    +0.000 A 
ATOM     25  C   UNL     1      -1.795  12.718  20.979  0.00  0.00    +0.000 C 
ATOM     26  N   UNL     1      -3.296  11.943  19.227  0.00  0.00    +0.000 NA
ATOM     27  N   UNL     1      -3.183  11.251  18.083  0.00  0.00    +0.000 N 
ATOM     28  C   UNL     1      -4.360  11.031  17.277  0.00  0.00    +0.000 C 
ATOM     29  C   UNL     1      -1.896  10.862  17.802  0.00  0.00    +0.000 A 
BRANCH  29  30
ATOM     30  O   UNL     1      -1.551  10.135  16.740  0.00  0.00    +0.000 OA
ATOM     31  H   UNL     1      -0.584  10.069  16.666  0.00  0.00    +0.000 HD
ENDBRANCH  29  30
ENDBRANCH  21  23
ENDBRANCH   8  21
TORSDOF 4
ENDMDL
MODEL 8
REMARK VINA RESULT:      -8.0      3.394      8.315
REMARK  Name = 
REMARK  8 active torsions:
REMARK  status: ('A' for Active; 'I' for Inactive)
REMARK    1  A    between atoms: C_1  and  C_2
REMARK    2  A    between atoms: C_8  and  N_9
REMARK    3  A    between atoms: C_10  and  C_11
REMARK    4  A    between atoms: C_16  and  C_17
REMARK    5  A    between atoms: C_17  and  C_19
REMARK    6  A    between atoms: C_20  and  C_21
REMARK    7  A    between atoms: N_23  and  C_24
REMARK    8  A    between atoms: C_25  and  O_26
REMARK                            x       y       z     vdW  Elec       q    Type
REMARK                         _______ _______ _______ _____ _____    ______ ____
ROOT
ATOM      1  N   UNL     1       4.126   5.906  17.825  0.00  0.00    +0.000 N 
ATOM      2  C   UNL     1       3.991   5.244  19.035  0.00  0.00    +0.000 A 
ATOM      3  C   UNL     1       4.819   4.017  19.360  0.00  0.00    +0.000 C 
ATOM      4  N   UNL     1       3.202   5.641  19.984  0.00  0.00    +0.000 NA
ATOM      5  C   UNL     1       2.476   6.818  19.814  0.00  0.00    +0.000 A 
ATOM      6  C   UNL     1       1.636   7.233  20.847  0.00  0.00    +0.000 A 
ATOM      7  C   UNL     1       0.913   8.424  20.743  0.00  0.00    +0.000 A 
ATOM      8  C   UNL     1       1.048   9.237  19.609  0.00  0.00    +0.000 A 
ATOM      9  C   UNL     1       1.870   8.811  18.558  0.00  0.00    +0.000 A 
ATOM     10  C   UNL     1       2.582   7.607  18.674  0.00  0.00    +0.000 A 
ATOM     11  C   UNL     1       3.476   7.131  17.602  0.00  0.00    +0.000 A 
ATOM     12  O   UNL     1       3.590   7.822  16.592  0.00  0.00    +0.000 OA
ENDROOT
BRANCH   1  20
ATOM     13  C   UNL     1       7.001   6.760  17.726  0.00  0.00    +0.000 C 
ATOM     14  C   UNL     1       6.356   5.854  16.714  0.00  0.00    +0.000 A 
ATOM     15  C   UNL     1       7.145   5.363  15.658  0.00  0.00    +0.000 A 
ATOM     16  C   UNL     1       6.618   4.461  14.739  0.00  0.00    +0.000 A 
ATOM     17  F   UNL     1       7.396   3.995  13.754  0.00  0.00    +0.000 F 
ATOM     18  C   UNL     1       5.306   4.027  14.837  0.00  0.00    +0.000 A 
ATOM     19  C   UNL     1       4.502   4.514  15.867  0.00  0.00    +0.000 A 
ATOM     20  C   UNL     1       5.005   5.443  16.799  0.00  0.00    +0.000 A 
ENDBRANCH   1  20
BRANCH   8  21
ATOM     21  C   UNL     1       0.292  10.522  19.472  0.00  0.00    +0.000 C 
ATOM     22  O   UNL     1      -0.857  10.473  19.047  0.00  0.00    +0.000 OA
BRANCH  21  23
ATOM     23  C   UNL     1       0.912  11.775  19.881  0.00  0.00    +0.000 A 
ATOM     24  C   UNL     1       1.903  12.533  19.190  0.00  0.00    +0.000 A 
ATOM     25  C   UNL     1       2.552  12.260  17.882  0.00  0.00    +0.000 C 
ATOM     26  N   UNL     1       2.218  13.658  19.846  0.00  0.00    +0.000 NA
ATOM     27  N   UNL     1       1.479  13.607  20.964  0.00  0.00    +0.000 N 
ATOM     28  C   UNL     1       1.541  14.707  21.897  0.00  0.00    +0.000 C 
ATOM     29  C   UNL     1       0.700  12.479  21.055  0.00  0.00    +0.000 A 
BRANCH  29  30
ATOM     30  O   UNL     1      -0.087  12.198  22.093  0.00  0.00    +0.000 OA
ATOM     31  H   UNL     1      -0.880  12.759  22.088  0.00  0.00    +0.000 HD
ENDBRANCH  29  30
ENDBRANCH  21  23
ENDBRANCH   8  21
TORSDOF 4
ENDMDL
MODEL 9
REMARK VINA RESULT:      -7.9      3.499      8.297
REMARK  Name = 
REMARK  8 active torsions:
REMARK  status: ('A' for Active; 'I' for Inactive)
REMARK    1  A    between atoms: C_1  and  C_2
REMARK    2  A    between atoms: C_8  and  N_9
REMARK    3  A    between atoms: C_10  and  C_11
REMARK    4  A    between atoms: C_16  and  C_17
REMARK    5  A    between atoms: C_17  and  C_19
REMARK    6  A    between atoms: C_20  and  C_21
REMARK    7  A    between atoms: N_23  and  C_24
REMARK    8  A    between atoms: C_25  and  O_26
REMARK                            x       y       z     vdW  Elec       q    Type
REMARK                         _______ _______ _______ _____ _____    ______ ____
ROOT
ATOM      1  N   UNL     1       2.615   6.354  19.146  0.00  0.00    +0.000 N 
ATOM      2  C   UNL     1       2.147   5.911  20.372  0.00  0.00    +0.000 A 
ATOM      3  C   UNL     1       2.525   4.548  20.917  0.00  0.00    +0.000 C 
ATOM      4  N   UNL     1       1.407   6.630  21.158  0.00  0.00    +0.000 NA
ATOM      5  C   UNL     1       1.091   7.935  20.786  0.00  0.00    +0.000 A 
ATOM      6  C   UNL     1       0.299   8.696  21.645  0.00  0.00    +0.000 A 
ATOM      7  C   UNL     1      -0.016  10.022  21.336  0.00  0.00    +0.000 A 
ATOM      8  C   UNL     1       0.488  10.617  20.172  0.00  0.00    +0.000 A 
ATOM      9  C   UNL     1       1.262   9.849  19.294  0.00  0.00    +0.000 A 
ATOM     10  C   UNL     1       1.562   8.515  19.613  0.00  0.00    +0.000 A 
ATOM     11  C   UNL     1       2.392   7.676  18.728  0.00  0.00    +0.000 A 
ATOM     12  O   UNL     1       2.826   8.177  17.693  0.00  0.00    +0.000 OA
ENDROOT
BRANCH   1  20
ATOM     13  C   UNL     1       1.430   4.161  17.474  0.00  0.00    +0.000 C 
ATOM     14  C   UNL     1       2.899   4.479  17.529  0.00  0.00    +0.000 A 
ATOM     15  C   UNL     1       3.777   3.713  16.742  0.00  0.00    +0.000 A 
ATOM     16  C   UNL     1       5.134   4.014  16.697  0.00  0.00    +0.000 A 
ATOM     17  F   UNL     1       5.947   3.281  15.925  0.00  0.00    +0.000 F 
ATOM     18  C   UNL     1       5.656   5.071  17.426  0.00  0.00    +0.000 A 
ATOM     19  C   UNL     1       4.804   5.833  18.225  0.00  0.00    +0.000 A 
ATOM     20  C   UNL     1       3.429   5.537  18.303  0.00  0.00    +0.000 A 
ENDBRANCH   1  20
BRANCH   8  21
ATOM     21  C   UNL     1       0.173  12.037  19.819  0.00  0.00    +0.000 C 
ATOM     22  O   UNL     1      -0.885  12.268  19.242  0.00  0.00    +0.000 OA
BRANCH  21  23
ATOM     23  C   UNL     1       1.093  13.100  20.201  0.00  0.00    +0.000 A 
ATOM     24  C   UNL     1       2.221  13.589  19.480  0.00  0.00    +0.000 A 
ATOM     25  C   UNL     1       2.750  13.160  18.159  0.00  0.00    +0.000 C 
ATOM     26  N   UNL     1       2.820  14.604  20.117  0.00  0.00    +0.000 NA
ATOM     27  N   UNL     1       2.120  14.740  21.253  0.00  0.00    +0.000 N 
ATOM     28  C   UNL     1       2.474  15.793  22.174  0.00  0.00    +0.000 C 
ATOM     29  C   UNL     1       1.090  13.839  21.374  0.00  0.00    +0.000 A 
BRANCH  29  30
ATOM     30  O   UNL     1       0.284  13.763  22.433  0.00  0.00    +0.000 OA
ATOM     31  H   UNL     1      -0.644  13.886  22.170  0.00  0.00    +0.000 HD
ENDBRANCH  29  30
ENDBRANCH  21  23
ENDBRANCH   8  21
TORSDOF 4
ENDMDL
