MODEL 1
REMARK VINA RESULT:      -5.2      0.000      0.000
REMARK  Name = 
REMARK  7 active torsions:
REMARK  status: ('A' for Active; 'I' for Inactive)
REMARK    1  A    between atoms: N_4  and  O_5
REMARK    2  A    between atoms: O_5  and  C_6
REMARK    3  A    between atoms: C_6  and  C_7
REMARK    4  A    between atoms: C_7  and  CA_8
REMARK    5  A    between atoms: CA_8  and  N_9
REMARK    6  A    between atoms: CA_8  and  C_10
REMARK    7  A    between atoms: C_10  and  OXT_12
REMARK                            x       y       z     vdW  Elec       q    Type
REMARK                         _______ _______ _______ _____ _____    ______ ____
ROOT
ATOM      1  C   UNL     1       5.331   4.682  19.200  0.00  0.00    +0.000 C 
ENDROOT
BRANCH   1   2
ATOM      2  O   UNL     1       4.992   3.304  19.304  0.00  0.00    +0.000 OA
BRANCH   2   6
ATOM      3  N   UNL     1       2.053   1.535  18.647  0.00  0.00    +0.000 N 
ATOM      4  C   UNL     1       3.329   1.961  18.778  0.00  0.00    +0.000 C 
ATOM      5  N   UNL     1       4.229   0.995  18.486  0.00  0.00    +0.000 N 
ATOM      6  N   UNL     1       3.604   3.157  19.197  0.00  0.00    +0.000 NA
ATOM      7  H   UNL     1       1.861   0.816  17.965  0.00  0.00    +0.000 HD
ATOM      8  H   UNL     1       1.368   2.276  18.685  0.00  0.00    +0.000 HD
ATOM      9  H   UNL     1       4.003   0.367  17.730  0.00  0.00    +0.000 HD
ATOM     10  H   UNL     1       5.169   1.370  18.412  0.00  0.00    +0.000 HD
ENDBRANCH   2   6
ENDBRANCH   1   2
BRANCH   1  11
ATOM     11  C   UNL     1       4.890   5.176  17.825  0.00  0.00    +0.000 C 
BRANCH  11  12
ATOM     12  CA  UNL     1       5.718   4.645  16.641  0.00  0.00    +0.000 C 
BRANCH  12  13
ATOM     13  N   UNL     1       5.513   3.205  16.399  0.00  0.00    +0.000 NA
ATOM     14  H1  UNL     1       5.759   2.895  15.465  0.00  0.00    +0.000 HD
ATOM     15  H2  UNL     1       4.534   2.961  16.571  0.00  0.00    +0.000 HD
ENDBRANCH  12  13
BRANCH  12  16
ATOM     16  C   UNL     1       7.207   5.018  16.742  0.00  0.00    +0.000 C 
ATOM     17  O   UNL     1       8.086   4.242  17.105  0.00  0.00    +0.000 OA
BRANCH  16  18
ATOM     18  OXT UNL     1       7.517   6.289  16.387  0.00  0.00    +0.000 OA
ATOM     19  HXT UNL     1       8.247   6.630  16.937  0.00  0.00    +0.000 HD
ENDBRANCH  16  18
ENDBRANCH  12  16
ENDBRANCH  11  12
ENDBRANCH   1  11
TORSDOF 7
ENDMDL
MODEL 2
REMARK VINA RESULT:      -5.1      2.993      5.141
REMARK  Name = 
REMARK  7 active torsions:
REMARK  status: ('A' for Active; 'I' for Inactive)
REMARK    1  A    between atoms: N_4  and  O_5
REMARK    2  A    between atoms: O_5  and  C_6
REMARK    3  A    between atoms: C_6  and  C_7
REMARK    4  A    between atoms: C_7  and  CA_8
REMARK    5  A    between atoms: CA_8  and  N_9
REMARK    6  A    between atoms: CA_8  and  C_10
REMARK    7  A    between atoms: C_10  and  OXT_12
REMARK                            x       y       z     vdW  Elec       q    Type
REMARK                         _______ _______ _______ _____ _____    ______ ____
ROOT
ATOM      1  C   UNL     1       2.188   5.161  19.572  0.00  0.00    +0.000 C 
ENDROOT
BRANCH   1   2
ATOM      2  O   UNL     1       3.510   4.918  20.038  0.00  0.00    +0.000 OA
BRANCH   2   6
ATOM      3  N   UNL     1       6.057   4.028  17.819  0.00  0.00    +0.000 N 
ATOM      4  C   UNL     1       5.139   4.091  18.809  0.00  0.00    +0.000 C 
ATOM      5  N   UNL     1       5.038   2.930  19.495  0.00  0.00    +0.000 N 
ATOM      6  N   UNL     1       4.420   5.153  19.001  0.00  0.00    +0.000 NA
ATOM      7  H   UNL     1       6.846   3.413  17.943  0.00  0.00    +0.000 HD
ATOM      8  H   UNL     1       6.279   4.925  17.410  0.00  0.00    +0.000 HD
ATOM      9  H   UNL     1       5.889   2.413  19.655  0.00  0.00    +0.000 HD
ATOM     10  H   UNL     1       4.486   3.041  20.339  0.00  0.00    +0.000 HD
ENDBRANCH   2   6
ENDBRANCH   1   2
BRANCH   1  11
ATOM     11  C   UNL     1       1.217   4.433  20.499  0.00  0.00    +0.000 C 
BRANCH  11  12
ATOM     12  CA  UNL     1       1.407   2.908  20.580  0.00  0.00    +0.000 C 
BRANCH  12  13
ATOM     13  N   UNL     1       2.630   2.522  21.310  0.00  0.00    +0.000 NA
ATOM     14  H1  UNL     1       3.409   2.260  20.717  0.00  0.00    +0.000 HD
ATOM     15  H2  UNL     1       2.425   1.738  21.936  0.00  0.00    +0.000 HD
ENDBRANCH  12  13
BRANCH  12  16
ATOM     16  C   UNL     1       1.302   2.222  19.208  0.00  0.00    +0.000 C 
ATOM     17  O   UNL     1       0.305   2.263  18.493  0.00  0.00    +0.000 OA
BRANCH  16  18
ATOM     18  OXT UNL     1       2.409   1.552  18.802  0.00  0.00    +0.000 OA
ATOM     19  HXT UNL     1       2.172   0.854  18.163  0.00  0.00    +0.000 HD
ENDBRANCH  16  18
ENDBRANCH  12  16
ENDBRANCH  11  12
ENDBRANCH   1  11
TORSDOF 7
ENDMDL
MODEL 3
REMARK VINA RESULT:      -5.1      1.427      1.966
REMARK  Name = 
REMARK  7 active torsions:
REMARK  status: ('A' for Active; 'I' for Inactive)
REMARK    1  A    between atoms: N_4  and  O_5
REMARK    2  A    between atoms: O_5  and  C_6
REMARK    3  A    between atoms: C_6  and  C_7
REMARK    4  A    between atoms: C_7  and  CA_8
REMARK    5  A    between atoms: CA_8  and  N_9
REMARK    6  A    between atoms: CA_8  and  C_10
REMARK    7  A    between atoms: C_10  and  OXT_12
REMARK                            x       y       z     vdW  Elec       q    Type
REMARK                         _______ _______ _______ _____ _____    ______ ____
ROOT
ATOM      1  C   UNL     1       3.502   5.326  17.907  0.00  0.00    +0.000 C 
ENDROOT
BRANCH   1   2
ATOM      2  O   UNL     1       3.561   4.285  18.875  0.00  0.00    +0.000 OA
BRANCH   2   6
ATOM      3  N   UNL     1       3.866   0.832  18.441  0.00  0.00    +0.000 N 
ATOM      4  C   UNL     1       3.992   2.127  18.809  0.00  0.00    +0.000 C 
ATOM      5  N   UNL     1       4.873   2.294  19.821  0.00  0.00    +0.000 N 
ATOM      6  N   UNL     1       3.279   3.060  18.259  0.00  0.00    +0.000 NA
ATOM      7  H   UNL     1       4.665   0.227  18.557  0.00  0.00    +0.000 HD
ATOM      8  H   UNL     1       3.355   0.699  17.581  0.00  0.00    +0.000 HD
ATOM      9  H   UNL     1       5.695   1.709  19.818  0.00  0.00    +0.000 HD
ATOM     10  H   UNL     1       5.094   3.274  19.967  0.00  0.00    +0.000 HD
ENDBRANCH   2   6
ENDBRANCH   1   2
BRANCH   1  11
ATOM     11  C   UNL     1       4.884   5.969  17.820  0.00  0.00    +0.000 C 
BRANCH  11  12
ATOM     12  CA  UNL     1       6.062   5.046  18.179  0.00  0.00    +0.000 C 
BRANCH  12  13
ATOM     13  N   UNL     1       6.477   5.172  19.589  0.00  0.00    +0.000 NA
ATOM     14  H1  UNL     1       7.226   4.546  19.865  0.00  0.00    +0.000 HD
ATOM     15  H2  UNL     1       5.675   5.003  20.202  0.00  0.00    +0.000 HD
ENDBRANCH  12  13
BRANCH  12  16
ATOM     16  C   UNL     1       7.243   5.182  17.204  0.00  0.00    +0.000 C 
ATOM     17  O   UNL     1       7.423   6.151  16.473  0.00  0.00    +0.000 OA
BRANCH  16  18
ATOM     18  OXT UNL     1       8.119   4.147  17.198  0.00  0.00    +0.000 OA
ATOM     19  HXT UNL     1       7.724   3.361  17.620  0.00  0.00    +0.000 HD
ENDBRANCH  16  18
ENDBRANCH  12  16
ENDBRANCH  11  12
ENDBRANCH   1  11
TORSDOF 7
ENDMDL
MODEL 4
REMARK VINA RESULT:      -5.0      2.685      5.112
REMARK  Name = 
REMARK  7 active torsions:
REMARK  status: ('A' for Active; 'I' for Inactive)
REMARK    1  A    between atoms: N_4  and  O_5
REMARK    2  A    between atoms: O_5  and  C_6
REMARK    3  A    between atoms: C_6  and  C_7
REMARK    4  A    between atoms: C_7  and  CA_8
REMARK    5  A    between atoms: CA_8  and  N_9
REMARK    6  A    between atoms: CA_8  and  C_10
REMARK    7  A    between atoms: C_10  and  OXT_12
REMARK                            x       y       z     vdW  Elec       q    Type
REMARK                         _______ _______ _______ _____ _____    ______ ____
ROOT
ATOM      1  C   UNL     1       5.985   4.006  15.982  0.00  0.00    +0.000 C 
ENDROOT
BRANCH   1   2
ATOM      2  O   UNL     1       7.115   4.547  16.656  0.00  0.00    +0.000 OA
BRANCH   2   6
ATOM      3  N   UNL     1       7.680   7.943  17.245  0.00  0.00    +0.000 N 
ATOM      4  C   UNL     1       7.433   6.617  17.334  0.00  0.00    +0.000 C 
ATOM      5  N   UNL     1       7.419   6.179  18.612  0.00  0.00    +0.000 N 
ATOM      6  N   UNL     1       7.290   5.883  16.275  0.00  0.00    +0.000 NA
ATOM      7  H   UNL     1       7.382   8.533  18.007  0.00  0.00    +0.000 HD
ATOM      8  H   UNL     1       7.522   8.328  16.325  0.00  0.00    +0.000 HD
ATOM      9  H   UNL     1       7.022   6.793  19.307  0.00  0.00    +0.000 HD
ATOM     10  H   UNL     1       7.058   5.232  18.679  0.00  0.00    +0.000 HD
ENDBRANCH   2   6
ENDBRANCH   1   2
BRANCH   1  11
ATOM     11  C   UNL     1       4.727   4.549  16.654  0.00  0.00    +0.000 C 
BRANCH  11  12
ATOM     12  CA  UNL     1       4.337   3.856  17.972  0.00  0.00    +0.000 C 
BRANCH  12  13
ATOM     13  N   UNL     1       5.496   3.600  18.849  0.00  0.00    +0.000 NA
ATOM     14  H1  UNL     1       6.350   4.067  18.565  0.00  0.00    +0.000 HD
ATOM     15  H2  UNL     1       5.679   2.594  18.893  0.00  0.00    +0.000 HD
ENDBRANCH  12  13
BRANCH  12  16
ATOM     16  C   UNL     1       3.479   2.598  17.751  0.00  0.00    +0.000 C 
ATOM     17  O   UNL     1       2.369   2.607  17.228  0.00  0.00    +0.000 OA
BRANCH  16  18
ATOM     18  OXT UNL     1       4.032   1.432  18.167  0.00  0.00    +0.000 OA
ATOM     19  HXT UNL     1       4.271   1.483  19.112  0.00  0.00    +0.000 HD
ENDBRANCH  16  18
ENDBRANCH  12  16
ENDBRANCH  11  12
ENDBRANCH   1  11
TORSDOF 7
ENDMDL
MODEL 5
REMARK VINA RESULT:      -4.9      2.409      3.510
REMARK  Name = 
REMARK  7 active torsions:
REMARK  status: ('A' for Active; 'I' for Inactive)
REMARK    1  A    between atoms: N_4  and  O_5
REMARK    2  A    between atoms: O_5  and  C_6
REMARK    3  A    between atoms: C_6  and  C_7
REMARK    4  A    between atoms: C_7  and  CA_8
REMARK    5  A    between atoms: CA_8  and  N_9
REMARK    6  A    between atoms: CA_8  and  C_10
REMARK    7  A    between atoms: C_10  and  OXT_12
REMARK                            x       y       z     vdW  Elec       q    Type
REMARK                         _______ _______ _______ _____ _____    ______ ____
ROOT
ATOM      1  C   UNL     1       2.705   2.458  17.744  0.00  0.00    +0.000 C 
ENDROOT
BRANCH   1   2
ATOM      2  O   UNL     1       1.688   2.901  18.634  0.00  0.00    +0.000 OA
BRANCH   2   6
ATOM      3  N   UNL     1       1.579   2.600  22.113  0.00  0.00    +0.000 N 
ATOM      4  C   UNL     1       1.594   3.027  20.830  0.00  0.00    +0.000 C 
ATOM      5  N   UNL     1       1.325   4.347  20.722  0.00  0.00    +0.000 N 
ATOM      6  N   UNL     1       1.793   2.207  19.846  0.00  0.00    +0.000 NA
ATOM      7  H   UNL     1       1.835   3.257  22.834  0.00  0.00    +0.000 HD
ATOM      8  H   UNL     1       1.947   1.668  22.238  0.00  0.00    +0.000 HD
ATOM      9  H   UNL     1       1.693   4.954  21.439  0.00  0.00    +0.000 HD
ATOM     10  H   UNL     1       1.515   4.693  19.786  0.00  0.00    +0.000 HD
ENDBRANCH   2   6
ENDBRANCH   1   2
BRANCH   1  11
ATOM     11  C   UNL     1       3.687   3.608  17.536  0.00  0.00    +0.000 C 
BRANCH  11  12
ATOM     12  CA  UNL     1       4.834   3.686  18.559  0.00  0.00    +0.000 C 
BRANCH  12  13
ATOM     13  N   UNL     1       4.874   2.520  19.463  0.00  0.00    +0.000 NA
ATOM     14  H1  UNL     1       4.105   2.473  20.122  0.00  0.00    +0.000 HD
ATOM     15  H2  UNL     1       5.751   2.523  19.991  0.00  0.00    +0.000 HD
ENDBRANCH  12  13
BRANCH  12  16
ATOM     16  C   UNL     1       4.862   5.021  19.321  0.00  0.00    +0.000 C 
ATOM     17  O   UNL     1       3.857   5.645  19.653  0.00  0.00    +0.000 OA
BRANCH  16  18
ATOM     18  OXT UNL     1       6.094   5.491  19.634  0.00  0.00    +0.000 OA
ATOM     19  HXT UNL     1       6.536   4.899  20.271  0.00  0.00    +0.000 HD
ENDBRANCH  16  18
ENDBRANCH  12  16
ENDBRANCH  11  12
ENDBRANCH   1  11
TORSDOF 7
ENDMDL
MODEL 6
REMARK VINA RESULT:      -4.9      2.978      5.062
REMARK  Name = 
REMARK  7 active torsions:
REMARK  status: ('A' for Active; 'I' for Inactive)
REMARK    1  A    between atoms: N_4  and  O_5
REMARK    2  A    between atoms: O_5  and  C_6
REMARK    3  A    between atoms: C_6  and  C_7
REMARK    4  A    between atoms: C_7  and  CA_8
REMARK    5  A    between atoms: CA_8  and  N_9
REMARK    6  A    between atoms: CA_8  and  C_10
REMARK    7  A    between atoms: C_10  and  OXT_12
REMARK                            x       y       z     vdW  Elec       q    Type
REMARK                         _______ _______ _______ _____ _____    ______ ____
ROOT
ATOM      1  C   UNL     1       2.147   4.287  17.885  0.00  0.00    +0.000 C 
ENDROOT
BRANCH   1   2
ATOM      2  O   UNL     1       3.238   3.375  17.915  0.00  0.00    +0.000 OA
BRANCH   2   6
ATOM      3  N   UNL     1       6.531   4.327  17.244  0.00  0.00    +0.000 N 
ATOM      4  C   UNL     1       5.362   3.944  17.803  0.00  0.00    +0.000 C 
ATOM      5  N   UNL     1       5.496   3.618  19.109  0.00  0.00    +0.000 N 
ATOM      6  N   UNL     1       4.273   3.859  17.106  0.00  0.00    +0.000 NA
ATOM      7  H   UNL     1       7.217   4.771  17.836  0.00  0.00    +0.000 HD
ATOM      8  H   UNL     1       6.430   4.742  16.329  0.00  0.00    +0.000 HD
ATOM      9  H   UNL     1       6.139   4.168  19.658  0.00  0.00    +0.000 HD
ATOM     10  H   UNL     1       4.594   3.507  19.561  0.00  0.00    +0.000 HD
ENDBRANCH   2   6
ENDBRANCH   1   2
BRANCH   1  11
ATOM     11  C   UNL     1       1.291   4.043  19.126  0.00  0.00    +0.000 C 
BRANCH  11  12
ATOM     12  CA  UNL     1       1.966   4.387  20.466  0.00  0.00    +0.000 C 
BRANCH  12  13
ATOM     13  N   UNL     1       3.082   5.340  20.316  0.00  0.00    +0.000 NA
ATOM     14  H1  UNL     1       3.944   5.053  20.767  0.00  0.00    +0.000 HD
ATOM     15  H2  UNL     1       2.810   6.252  20.694  0.00  0.00    +0.000 HD
ENDBRANCH  12  13
BRANCH  12  16
ATOM     16  C   UNL     1       2.366   3.137  21.268  0.00  0.00    +0.000 C 
ATOM     17  O   UNL     1       1.759   2.729  22.254  0.00  0.00    +0.000 OA
BRANCH  16  18
ATOM     18  OXT UNL     1       3.457   2.473  20.812  0.00  0.00    +0.000 OA
ATOM     19  HXT UNL     1       3.226   1.555  20.576  0.00  0.00    +0.000 HD
ENDBRANCH  16  18
ENDBRANCH  12  16
ENDBRANCH  11  12
ENDBRANCH   1  11
TORSDOF 7
ENDMDL
MODEL 7
REMARK VINA RESULT:      -4.9      2.621      4.514
REMARK  Name = 
REMARK  7 active torsions:
REMARK  status: ('A' for Active; 'I' for Inactive)
REMARK    1  A    between atoms: N_4  and  O_5
REMARK    2  A    between atoms: O_5  and  C_6
REMARK    3  A    between atoms: C_6  and  C_7
REMARK    4  A    between atoms: C_7  and  CA_8
REMARK    5  A    between atoms: CA_8  and  N_9
REMARK    6  A    between atoms: CA_8  and  C_10
REMARK    7  A    between atoms: C_10  and  OXT_12
REMARK                            x       y       z     vdW  Elec       q    Type
REMARK                         _______ _______ _______ _____ _____    ______ ____
ROOT
ATOM      1  C   UNL     1       4.554   6.319  17.769  0.00  0.00    +0.000 C 
ENDROOT
BRANCH   1   2
ATOM      2  O   UNL     1       4.710   5.498  16.618  0.00  0.00    +0.000 OA
BRANCH   2   6
ATOM      3  N   UNL     1       7.534   5.232  14.578  0.00  0.00    +0.000 N 
ATOM      4  C   UNL     1       6.494   5.026  15.416  0.00  0.00    +0.000 C 
ATOM      5  N   UNL     1       6.317   3.717  15.708  0.00  0.00    +0.000 N 
ATOM      6  N   UNL     1       5.745   6.004  15.821  0.00  0.00    +0.000 NA
ATOM      7  H   UNL     1       8.306   4.585  14.613  0.00  0.00    +0.000 HD
ATOM      8  H   UNL     1       7.797   6.203  14.485  0.00  0.00    +0.000 HD
ATOM      9  H   UNL     1       7.145   3.152  15.815  0.00  0.00    +0.000 HD
ATOM     10  H   UNL     1       5.658   3.589  16.470  0.00  0.00    +0.000 HD
ENDBRANCH   2   6
ENDBRANCH   1   2
BRANCH   1  11
ATOM     11  C   UNL     1       3.995   5.455  18.896  0.00  0.00    +0.000 C 
BRANCH  11  12
ATOM     12  CA  UNL     1       4.813   4.191  19.220  0.00  0.00    +0.000 C 
BRANCH  12  13
ATOM     13  N   UNL     1       6.203   4.268  18.732  0.00  0.00    +0.000 NA
ATOM     14  H1  UNL     1       6.897   4.404  19.458  0.00  0.00    +0.000 HD
ATOM     15  H2  UNL     1       6.289   5.033  18.057  0.00  0.00    +0.000 HD
ENDBRANCH  12  13
BRANCH  12  16
ATOM     16  C   UNL     1       4.107   2.897  18.780  0.00  0.00    +0.000 C 
ATOM     17  O   UNL     1       3.399   2.216  19.516  0.00  0.00    +0.000 OA
BRANCH  16  18
ATOM     18  OXT UNL     1       4.300   2.536  17.488  0.00  0.00    +0.000 OA
ATOM     19  HXT UNL     1       4.948   3.126  17.060  0.00  0.00    +0.000 HD
ENDBRANCH  16  18
ENDBRANCH  12  16
ENDBRANCH  11  12
ENDBRANCH   1  11
TORSDOF 7
ENDMDL
MODEL 8
REMARK VINA RESULT:      -4.9      1.471      1.732
REMARK  Name = 
REMARK  7 active torsions:
REMARK  status: ('A' for Active; 'I' for Inactive)
REMARK    1  A    between atoms: N_4  and  O_5
REMARK    2  A    between atoms: O_5  and  C_6
REMARK    3  A    between atoms: C_6  and  C_7
REMARK    4  A    between atoms: C_7  and  CA_8
REMARK    5  A    between atoms: CA_8  and  N_9
REMARK    6  A    between atoms: CA_8  and  C_10
REMARK    7  A    between atoms: C_10  and  OXT_12
REMARK                            x       y       z     vdW  Elec       q    Type
REMARK                         _______ _______ _______ _____ _____    ______ ____
ROOT
ATOM      1  C   UNL     1       4.100   5.190  18.178  0.00  0.00    +0.000 C 
ENDROOT
BRANCH   1   2
ATOM      2  O   UNL     1       3.545   3.944  18.583  0.00  0.00    +0.000 OA
BRANCH   2   6
ATOM      3  N   UNL     1       5.158   1.478  20.458  0.00  0.00    +0.000 N 
ATOM      4  C   UNL     1       4.445   2.185  19.554  0.00  0.00    +0.000 C 
ATOM      5  N   UNL     1       4.041   1.428  18.509  0.00  0.00    +0.000 N 
ATOM      6  N   UNL     1       4.249   3.459  19.692  0.00  0.00    +0.000 NA
ATOM      7  H   UNL     1       4.954   0.496  20.560  0.00  0.00    +0.000 HD
ATOM      8  H   UNL     1       5.320   1.969  21.326  0.00  0.00    +0.000 HD
ATOM      9  H   UNL     1       3.767   0.478  18.706  0.00  0.00    +0.000 HD
ATOM     10  H   UNL     1       3.362   1.917  17.933  0.00  0.00    +0.000 HD
ENDBRANCH   2   6
ENDBRANCH   1   2
BRANCH   1  11
ATOM     11  C   UNL     1       4.702   5.010  16.787  0.00  0.00    +0.000 C 
BRANCH  11  12
ATOM     12  CA  UNL     1       6.158   4.513  16.762  0.00  0.00    +0.000 C 
BRANCH  12  13
ATOM     13  N   UNL     1       6.692   4.240  18.110  0.00  0.00    +0.000 NA
ATOM     14  H1  UNL     1       6.644   5.025  18.749  0.00  0.00    +0.000 HD
ATOM     15  H2  UNL     1       7.669   3.941  18.040  0.00  0.00    +0.000 HD
ENDBRANCH  12  13
BRANCH  12  16
ATOM     16  C   UNL     1       7.084   5.424  15.938  0.00  0.00    +0.000 C 
ATOM     17  O   UNL     1       7.437   5.185  14.787  0.00  0.00    +0.000 OA
BRANCH  16  18
ATOM     18  OXT UNL     1       7.498   6.555  16.561  0.00  0.00    +0.000 OA
ATOM     19  HXT UNL     1       8.416   6.455  16.877  0.00  0.00    +0.000 HD
ENDBRANCH  16  18
ENDBRANCH  12  16
ENDBRANCH  11  12
ENDBRANCH   1  11
TORSDOF 7
ENDMDL
MODEL 9
REMARK VINA RESULT:      -4.8      2.197      4.867
REMARK  Name = 
REMARK  7 active torsions:
REMARK  status: ('A' for Active; 'I' for Inactive)
REMARK    1  A    between atoms: N_4  and  O_5
REMARK    2  A    between atoms: O_5  and  C_6
REMARK    3  A    between atoms: C_6  and  C_7
REMARK    4  A    between atoms: C_7  and  CA_8
REMARK    5  A    between atoms: CA_8  and  N_9
REMARK    6  A    between atoms: CA_8  and  C_10
REMARK    7  A    between atoms: C_10  and  OXT_12
REMARK                            x       y       z     vdW  Elec       q    Type
REMARK                         _______ _______ _______ _____ _____    ______ ____
ROOT
ATOM      1  C   UNL     1       5.030   5.386  17.395  0.00  0.00    +0.000 C 
ENDROOT
BRANCH   1   2
ATOM      2  O   UNL     1       6.188   4.761  16.853  0.00  0.00    +0.000 OA
BRANCH   2   6
ATOM      3  N   UNL     1       6.373   3.547  13.582  0.00  0.00    +0.000 N 
ATOM      4  C   UNL     1       6.496   4.241  14.735  0.00  0.00    +0.000 C 
ATOM      5  N   UNL     1       7.427   5.218  14.653  0.00  0.00    +0.000 N 
ATOM      6  N   UNL     1       5.813   3.927  15.792  0.00  0.00    +0.000 NA
ATOM      7  H   UNL     1       6.566   4.027  12.717  0.00  0.00    +0.000 HD
ATOM      8  H   UNL     1       5.570   2.935  13.557  0.00  0.00    +0.000 HD
ATOM      9  H   UNL     1       7.500   5.714  13.779  0.00  0.00    +0.000 HD
ATOM     10  H   UNL     1       7.386   5.843  15.453  0.00  0.00    +0.000 HD
ENDBRANCH   2   6
ENDBRANCH   1   2
BRANCH   1  11
ATOM     11  C   UNL     1       3.885   4.376  17.357  0.00  0.00    +0.000 C 
BRANCH  11  12
ATOM     12  CA  UNL     1       3.912   3.314  18.471  0.00  0.00    +0.000 C 
BRANCH  12  13
ATOM     13  N   UNL     1       5.264   3.089  19.015  0.00  0.00    +0.000 NA
ATOM     14  H1  UNL     1       6.012   3.181  18.336  0.00  0.00    +0.000 HD
ATOM     15  H2  UNL     1       5.319   2.154  19.428  0.00  0.00    +0.000 HD
ENDBRANCH  12  13
BRANCH  12  16
ATOM     16  C   UNL     1       3.220   2.003  18.058  0.00  0.00    +0.000 C 
ATOM     17  O   UNL     1       2.138   1.950  17.481  0.00  0.00    +0.000 OA
BRANCH  16  18
ATOM     18  OXT UNL     1       3.891   0.866  18.363  0.00  0.00    +0.000 OA
ATOM     19  HXT UNL     1       4.214   0.431  17.552  0.00  0.00    +0.000 HD
ENDBRANCH  16  18
ENDBRANCH  12  16
ENDBRANCH  11  12
ENDBRANCH   1  11
TORSDOF 7
ENDMDL
