MODEL 1
REMARK VINA RESULT:      -7.2      0.000      0.000
REMARK  Name = 
REMARK  9 active torsions:
REMARK  status: ('A' for Active; 'I' for Inactive)
REMARK    1  A    between atoms: C_1  and  C_2
REMARK    2  A    between atoms: C_2  and  C_3
REMARK    3  A    between atoms: C_3  and  N_4
REMARK    4  A    between atoms: N_4  and  C_5
REMARK    5  A    between atoms: N_8  and  C_9
REMARK    6  A    between atoms: C_11  and  C_12
REMARK    7  A    between atoms: C_11  and  C_13
REMARK    8  A    between atoms: C_15  and  C_16
REMARK    9  A    between atoms: C_15  and  C_17
REMARK                            x       y       z     vdW  Elec       q    Type
REMARK                         _______ _______ _______ _____ _____    ______ ____
ROOT
ATOM      1  C   UNL     1       6.552   4.780  16.222  0.00  0.00    +0.000 A 
ATOM      2  C   UNL     1       5.470   3.783  16.260  0.00  0.00    +0.000 A 
ATOM      3  N   UNL     1       4.747   3.478  17.283  0.00  0.00    +0.000 NA
ATOM      4  N   UNL     1       4.981   4.104  18.476  0.00  0.00    +0.000 N 
ATOM      5  C   UNL     1       5.955   5.092  18.619  0.00  0.00    +0.000 A 
ATOM      6  O   UNL     1       6.221   5.635  19.688  0.00  0.00    +0.000 OA
ATOM      7  C   UNL     1       6.707   5.452  17.373  0.00  0.00    +0.000 A 
ATOM      8 CL   UNL     1       7.851   6.746  17.511  0.00  0.00    +0.000 Cl
ENDROOT
BRANCH   4   9
ATOM      9  C   UNL     1       4.184   3.654  19.639  0.00  0.00    +0.000 C 
ATOM     10  C   UNL     1       3.518   4.785  20.443  0.00  0.00    +0.000 C 
ATOM     11  C   UNL     1       2.363   5.508  19.721  0.00  0.00    +0.000 C 
ATOM     12  C   UNL     1       2.916   6.710  18.906  0.00  0.00    +0.000 C 
ATOM     13  C   UNL     1       1.459   6.195  20.787  0.00  0.00    +0.000 C 
ATOM     14  C   UNL     1       1.450   4.518  18.900  0.00  0.00    +0.000 C 
ATOM     15  C   UNL     1       1.927   3.072  18.485  0.00  0.00    +0.000 C 
ATOM     16  C   UNL     1       2.215   2.908  16.966  0.00  0.00    +0.000 C 
ATOM     17  C   UNL     1       0.737   2.097  18.730  0.00  0.00    +0.000 C 
ATOM     18  C   UNL     1       3.132   2.580  19.314  0.00  0.00    +0.000 C 
ENDBRANCH   4   9
BRANCH   1  19
ATOM     19  N   UNL     1       7.262   4.871  15.020  0.00  0.00    +0.000 N 
ATOM     20  H   UNL     1       7.893   4.068  14.948  0.00  0.00    +0.000 HD
BRANCH  19  21
ATOM     21  C   UNL     1       6.492   4.954  13.773  0.00  0.00    +0.000 C 
BRANCH  21  23
ATOM     22  C   UNL     1       5.392   3.424  12.145  0.00  0.00    +0.000 C 
ATOM     23  C   UNL     1       6.657   3.688  12.945  0.00  0.00    +0.000 C 
ENDBRANCH  21  23
ENDBRANCH  19  21
ENDBRANCH   1  19
TORSDOF 4
ENDMDL
MODEL 2
REMARK VINA RESULT:      -7.1      2.472      5.969
REMARK  Name = 
REMARK  9 active torsions:
REMARK  status: ('A' for Active; 'I' for Inactive)
REMARK    1  A    between atoms: C_1  and  C_2
REMARK    2  A    between atoms: C_2  and  C_3
REMARK    3  A    between atoms: C_3  and  N_4
REMARK    4  A    between atoms: N_4  and  C_5
REMARK    5  A    between atoms: N_8  and  C_9
REMARK    6  A    between atoms: C_11  and  C_12
REMARK    7  A    between atoms: C_11  and  C_13
REMARK    8  A    between atoms: C_15  and  C_16
REMARK    9  A    between atoms: C_15  and  C_17
REMARK                            x       y       z     vdW  Elec       q    Type
REMARK                         _______ _______ _______ _____ _____    ______ ____
ROOT
ATOM      1  C   UNL     1       1.800   4.022  18.553  0.00  0.00    +0.000 A 
ATOM      2  C   UNL     1       2.692   3.701  17.426  0.00  0.00    +0.000 A 
ATOM      3  N   UNL     1       3.571   4.482  16.900  0.00  0.00    +0.000 NA
ATOM      4  N   UNL     1       3.718   5.750  17.393  0.00  0.00    +0.000 N 
ATOM      5  C   UNL     1       2.970   6.219  18.473  0.00  0.00    +0.000 A 
ATOM      6  O   UNL     1       3.045   7.366  18.905  0.00  0.00    +0.000 OA
ATOM      7  C   UNL     1       2.020   5.234  19.085  0.00  0.00    +0.000 A 
ATOM      8 CL   UNL     1       1.157   5.768  20.489  0.00  0.00    +0.000 Cl
ENDROOT
BRANCH   4   9
ATOM      9  C   UNL     1       4.678   6.636  16.697  0.00  0.00    +0.000 C 
ATOM     10  C   UNL     1       5.810   7.186  17.583  0.00  0.00    +0.000 C 
ATOM     11  C   UNL     1       6.849   6.142  18.041  0.00  0.00    +0.000 C 
ATOM     12  C   UNL     1       6.403   5.503  19.386  0.00  0.00    +0.000 C 
ATOM     13  C   UNL     1       8.164   6.881  18.426  0.00  0.00    +0.000 C 
ATOM     14  C   UNL     1       7.206   5.108  16.905  0.00  0.00    +0.000 C 
ATOM     15  C   UNL     1       6.284   4.880  15.646  0.00  0.00    +0.000 C 
ATOM     16  C   UNL     1       5.536   3.516  15.643  0.00  0.00    +0.000 C 
ATOM     17  C   UNL     1       7.210   4.782  14.397  0.00  0.00    +0.000 C 
ATOM     18  C   UNL     1       5.287   6.035  15.418  0.00  0.00    +0.000 C 
ENDBRANCH   4   9
BRANCH   1  19
ATOM     19  N   UNL     1       0.858   3.045  18.889  0.00  0.00    +0.000 N 
ATOM     20  H   UNL     1       0.527   2.596  18.030  0.00  0.00    +0.000 HD
BRANCH  19  21
ATOM     21  C   UNL     1       1.269   1.988  19.821  0.00  0.00    +0.000 C 
BRANCH  21  23
ATOM     22  C   UNL     1       2.780   2.678  21.677  0.00  0.00    +0.000 C 
ATOM     23  C   UNL     1       1.331   2.514  21.248  0.00  0.00    +0.000 C 
ENDBRANCH  21  23
ENDBRANCH  19  21
ENDBRANCH   1  19
TORSDOF 4
ENDMDL
MODEL 3
REMARK VINA RESULT:      -6.7      3.835      6.250
REMARK  Name = 
REMARK  9 active torsions:
REMARK  status: ('A' for Active; 'I' for Inactive)
REMARK    1  A    between atoms: C_1  and  C_2
REMARK    2  A    between atoms: C_2  and  C_3
REMARK    3  A    between atoms: C_3  and  N_4
REMARK    4  A    between atoms: N_4  and  C_5
REMARK    5  A    between atoms: N_8  and  C_9
REMARK    6  A    between atoms: C_11  and  C_12
REMARK    7  A    between atoms: C_11  and  C_13
REMARK    8  A    between atoms: C_15  and  C_16
REMARK    9  A    between atoms: C_15  and  C_17
REMARK                            x       y       z     vdW  Elec       q    Type
REMARK                         _______ _______ _______ _____ _____    ______ ____
ROOT
ATOM      1  C   UNL     1       1.686   9.120  18.453  0.00  0.00    +0.000 A 
ATOM      2  C   UNL     1       2.720   8.452  17.645  0.00  0.00    +0.000 A 
ATOM      3  N   UNL     1       3.344   7.366  17.946  0.00  0.00    +0.000 NA
ATOM      4  N   UNL     1       3.064   6.743  19.131  0.00  0.00    +0.000 N 
ATOM      5  C   UNL     1       2.097   7.223  20.014  0.00  0.00    +0.000 A 
ATOM      6  O   UNL     1       1.859   6.714  21.106  0.00  0.00    +0.000 OA
ATOM      7  C   UNL     1       1.356   8.447  19.567  0.00  0.00    +0.000 A 
ATOM      8 CL   UNL     1       0.083   8.999  20.605  0.00  0.00    +0.000 Cl
ENDROOT
BRANCH   4   9
ATOM      9  C   UNL     1       3.870   5.549  19.471  0.00  0.00    +0.000 C 
ATOM     10  C   UNL     1       3.115   4.211  19.383  0.00  0.00    +0.000 C 
ATOM     11  C   UNL     1       2.746   3.761  17.955  0.00  0.00    +0.000 C 
ATOM     12  C   UNL     1       1.351   4.323  17.564  0.00  0.00    +0.000 C 
ATOM     13  C   UNL     1       2.511   2.222  17.961  0.00  0.00    +0.000 C 
ATOM     14  C   UNL     1       3.892   4.057  16.913  0.00  0.00    +0.000 C 
ATOM     15  C   UNL     1       5.047   5.095  17.196  0.00  0.00    +0.000 C 
ATOM     16  C   UNL     1       4.948   6.401  16.358  0.00  0.00    +0.000 C 
ATOM     17  C   UNL     1       6.381   4.457  16.707  0.00  0.00    +0.000 C 
ATOM     18  C   UNL     1       5.194   5.432  18.694  0.00  0.00    +0.000 C 
ENDBRANCH   4   9
BRANCH   1  19
ATOM     19  N   UNL     1       1.219  10.343  17.964  0.00  0.00    +0.000 N 
ATOM     20  H   UNL     1       0.203  10.285  17.844  0.00  0.00    +0.000 HD
BRANCH  19  21
ATOM     21  C   UNL     1       1.512  11.552  18.743  0.00  0.00    +0.000 C 
BRANCH  21  23
ATOM     22  C   UNL     1       2.655  13.765  18.725  0.00  0.00    +0.000 C 
ATOM     23  C   UNL     1       2.561  12.407  18.047  0.00  0.00    +0.000 C 
ENDBRANCH  21  23
ENDBRANCH  19  21
ENDBRANCH   1  19
TORSDOF 4
ENDMDL
MODEL 4
REMARK VINA RESULT:      -6.7      3.755      6.235
REMARK  Name = 
REMARK  9 active torsions:
REMARK  status: ('A' for Active; 'I' for Inactive)
REMARK    1  A    between atoms: C_1  and  C_2
REMARK    2  A    between atoms: C_2  and  C_3
REMARK    3  A    between atoms: C_3  and  N_4
REMARK    4  A    between atoms: N_4  and  C_5
REMARK    5  A    between atoms: N_8  and  C_9
REMARK    6  A    between atoms: C_11  and  C_12
REMARK    7  A    between atoms: C_11  and  C_13
REMARK    8  A    between atoms: C_15  and  C_16
REMARK    9  A    between atoms: C_15  and  C_17
REMARK                            x       y       z     vdW  Elec       q    Type
REMARK                         _______ _______ _______ _____ _____    ______ ____
ROOT
ATOM      1  C   UNL     1       1.573   9.033  18.551  0.00  0.00    +0.000 A 
ATOM      2  C   UNL     1       2.557   8.354  17.691  0.00  0.00    +0.000 A 
ATOM      3  N   UNL     1       3.210   7.280  17.975  0.00  0.00    +0.000 NA
ATOM      4  N   UNL     1       3.017   6.684  19.191  0.00  0.00    +0.000 N 
ATOM      5  C   UNL     1       2.107   7.178  20.126  0.00  0.00    +0.000 A 
ATOM      6  O   UNL     1       1.948   6.694  21.243  0.00  0.00    +0.000 OA
ATOM      7  C   UNL     1       1.325   8.385  19.700  0.00  0.00    +0.000 A 
ATOM      8 CL   UNL     1       0.120   8.952  20.809  0.00  0.00    +0.000 Cl
ENDROOT
BRANCH   4   9
ATOM      9  C   UNL     1       3.856   5.506  19.504  0.00  0.00    +0.000 C 
ATOM     10  C   UNL     1       3.139   4.149  19.379  0.00  0.00    +0.000 C 
ATOM     11  C   UNL     1       2.787   3.725  17.939  0.00  0.00    +0.000 C 
ATOM     12  C   UNL     1       1.378   4.258  17.557  0.00  0.00    +0.000 C 
ATOM     13  C   UNL     1       2.597   2.180  17.905  0.00  0.00    +0.000 C 
ATOM     14  C   UNL     1       3.928   4.081  16.909  0.00  0.00    +0.000 C 
ATOM     15  C   UNL     1       5.052   5.143  17.222  0.00  0.00    +0.000 C 
ATOM     16  C   UNL     1       4.918   6.466  16.417  0.00  0.00    +0.000 C 
ATOM     17  C   UNL     1       6.405   4.556  16.723  0.00  0.00    +0.000 C 
ATOM     18  C   UNL     1       5.184   5.446  18.730  0.00  0.00    +0.000 C 
ENDBRANCH   4   9
BRANCH   1  19
ATOM     19  N   UNL     1       1.062  10.240  18.066  0.00  0.00    +0.000 N 
ATOM     20  H   UNL     1       1.194  10.271  17.051  0.00  0.00    +0.000 HD
BRANCH  19  21
ATOM     21  C   UNL     1      -0.345  10.553  18.348  0.00  0.00    +0.000 C 
BRANCH  21  23
ATOM     22  C   UNL     1      -2.706   9.969  17.812  0.00  0.00    +0.000 C 
ATOM     23  C   UNL     1      -1.264   9.886  17.335  0.00  0.00    +0.000 C 
ENDBRANCH  21  23
ENDBRANCH  19  21
ENDBRANCH   1  19
TORSDOF 4
ENDMDL
MODEL 5
REMARK VINA RESULT:      -6.4      1.190      1.381
REMARK  Name = 
REMARK  9 active torsions:
REMARK  status: ('A' for Active; 'I' for Inactive)
REMARK    1  A    between atoms: C_1  and  C_2
REMARK    2  A    between atoms: C_2  and  C_3
REMARK    3  A    between atoms: C_3  and  N_4
REMARK    4  A    between atoms: N_4  and  C_5
REMARK    5  A    between atoms: N_8  and  C_9
REMARK    6  A    between atoms: C_11  and  C_12
REMARK    7  A    between atoms: C_11  and  C_13
REMARK    8  A    between atoms: C_15  and  C_16
REMARK    9  A    between atoms: C_15  and  C_17
REMARK                            x       y       z     vdW  Elec       q    Type
REMARK                         _______ _______ _______ _____ _____    ______ ____
ROOT
ATOM      1  C   UNL     1       5.995   3.819  15.235  0.00  0.00    +0.000 A 
ATOM      2  C   UNL     1       4.888   3.112  15.900  0.00  0.00    +0.000 A 
ATOM      3  N   UNL     1       4.487   3.286  17.111  0.00  0.00    +0.000 NA
ATOM      4  N   UNL     1       5.132   4.196  17.903  0.00  0.00    +0.000 N 
ATOM      5  C   UNL     1       6.191   4.973  17.434  0.00  0.00    +0.000 A 
ATOM      6  O   UNL     1       6.819   5.761  18.134  0.00  0.00    +0.000 OA
ATOM      7  C   UNL     1       6.556   4.774  15.993  0.00  0.00    +0.000 A 
ATOM      8 CL   UNL     1       7.802   5.802  15.366  0.00  0.00    +0.000 Cl
ENDROOT
BRANCH   4   9
ATOM      9  C   UNL     1       4.690   4.294  19.313  0.00  0.00    +0.000 C 
ATOM     10  C   UNL     1       4.151   5.674  19.728  0.00  0.00    +0.000 C 
ATOM     11  C   UNL     1       2.795   6.062  19.102  0.00  0.00    +0.000 C 
ATOM     12  C   UNL     1       3.024   6.800  17.754  0.00  0.00    +0.000 C 
ATOM     13  C   UNL     1       2.130   7.155  19.989  0.00  0.00    +0.000 C 
ATOM     14  C   UNL     1       1.795   4.845  19.027  0.00  0.00    +0.000 C 
ATOM     15  C   UNL     1       2.275   3.345  19.131  0.00  0.00    +0.000 C 
ATOM     16  C   UNL     1       2.190   2.555  17.795  0.00  0.00    +0.000 C 
ATOM     17  C   UNL     1       1.271   2.594  20.055  0.00  0.00    +0.000 C 
ATOM     18  C   UNL     1       3.686   3.210  19.742  0.00  0.00    +0.000 C 
ENDBRANCH   4   9
BRANCH   1  19
ATOM     19  N   UNL     1       6.308   3.392  13.941  0.00  0.00    +0.000 N 
ATOM     20  H   UNL     1       6.253   2.371  13.907  0.00  0.00    +0.000 HD
BRANCH  19  21
ATOM     21  C   UNL     1       5.510   3.925  12.830  0.00  0.00    +0.000 C 
BRANCH  21  23
ATOM     22  C   UNL     1       3.920   3.150  11.076  0.00  0.00    +0.000 C 
ATOM     23  C   UNL     1       5.222   2.844  11.799  0.00  0.00    +0.000 C 
ENDBRANCH  21  23
ENDBRANCH  19  21
ENDBRANCH   1  19
TORSDOF 4
ENDMDL
MODEL 6
REMARK VINA RESULT:      -5.9      2.664      6.127
REMARK  Name = 
REMARK  9 active torsions:
REMARK  status: ('A' for Active; 'I' for Inactive)
REMARK    1  A    between atoms: C_1  and  C_2
REMARK    2  A    between atoms: C_2  and  C_3
REMARK    3  A    between atoms: C_3  and  N_4
REMARK    4  A    between atoms: N_4  and  C_5
REMARK    5  A    between atoms: N_8  and  C_9
REMARK    6  A    between atoms: C_11  and  C_12
REMARK    7  A    between atoms: C_11  and  C_13
REMARK    8  A    between atoms: C_15  and  C_16
REMARK    9  A    between atoms: C_15  and  C_17
REMARK                            x       y       z     vdW  Elec       q    Type
REMARK                         _______ _______ _______ _____ _____    ______ ____
ROOT
ATOM      1  C   UNL     1       3.707   3.242  19.546  0.00  0.00    +0.000 A 
ATOM      2  C   UNL     1       4.383   4.521  19.825  0.00  0.00    +0.000 A 
ATOM      3  N   UNL     1       4.653   5.445  18.969  0.00  0.00    +0.000 NA
ATOM      4  N   UNL     1       4.311   5.261  17.658  0.00  0.00    +0.000 N 
ATOM      5  C   UNL     1       3.646   4.118  17.216  0.00  0.00    +0.000 A 
ATOM      6  O   UNL     1       3.371   3.903  16.039  0.00  0.00    +0.000 OA
ATOM      7  C   UNL     1       3.295   3.117  18.275  0.00  0.00    +0.000 A 
ATOM      8 CL   UNL     1       2.380   1.739  17.760  0.00  0.00    +0.000 Cl
ENDROOT
BRANCH   4   9
ATOM      9  C   UNL     1       4.723   6.313  16.701  0.00  0.00    +0.000 C 
ATOM     10  C   UNL     1       5.743   7.326  17.252  0.00  0.00    +0.000 C 
ATOM     11  C   UNL     1       7.157   6.762  17.496  0.00  0.00    +0.000 C 
ATOM     12  C   UNL     1       7.264   6.200  18.941  0.00  0.00    +0.000 C 
ATOM     13  C   UNL     1       8.172   7.943  17.506  0.00  0.00    +0.000 C 
ATOM     14  C   UNL     1       7.612   5.761  16.365  0.00  0.00    +0.000 C 
ATOM     15  C   UNL     1       6.589   5.069  15.384  0.00  0.00    +0.000 C 
ATOM     16  C   UNL     1       6.395   3.547  15.638  0.00  0.00    +0.000 C 
ATOM     17  C   UNL     1       7.203   5.117  13.953  0.00  0.00    +0.000 C 
ATOM     18  C   UNL     1       5.221   5.782  15.346  0.00  0.00    +0.000 C 
ENDBRANCH   4   9
BRANCH   1  19
ATOM     19  N   UNL     1       3.608   2.352  20.620  0.00  0.00    +0.000 N 
ATOM     20  H   UNL     1       4.528   2.263  21.061  0.00  0.00    +0.000 HD
BRANCH  19  21
ATOM     21  C   UNL     1       2.630   2.653  21.674  0.00  0.00    +0.000 C 
BRANCH  21  23
ATOM     22  C   UNL     1       0.874   4.118  20.689  0.00  0.00    +0.000 C 
ATOM     23  C   UNL     1       1.218   2.698  21.109  0.00  0.00    +0.000 C 
ENDBRANCH  21  23
ENDBRANCH  19  21
ENDBRANCH   1  19
TORSDOF 4
ENDMDL
MODEL 7
REMARK VINA RESULT:      -5.9      3.445      6.850
REMARK  Name = 
REMARK  9 active torsions:
REMARK  status: ('A' for Active; 'I' for Inactive)
REMARK    1  A    between atoms: C_1  and  C_2
REMARK    2  A    between atoms: C_2  and  C_3
REMARK    3  A    between atoms: C_3  and  N_4
REMARK    4  A    between atoms: N_4  and  C_5
REMARK    5  A    between atoms: N_8  and  C_9
REMARK    6  A    between atoms: C_11  and  C_12
REMARK    7  A    between atoms: C_11  and  C_13
REMARK    8  A    between atoms: C_15  and  C_16
REMARK    9  A    between atoms: C_15  and  C_17
REMARK                            x       y       z     vdW  Elec       q    Type
REMARK                         _______ _______ _______ _____ _____    ______ ____
ROOT
ATOM      1  C   UNL     1       1.563   8.110  20.737  0.00  0.00    +0.000 A 
ATOM      2  C   UNL     1       1.835   6.666  20.834  0.00  0.00    +0.000 A 
ATOM      3  N   UNL     1       2.207   5.892  19.874  0.00  0.00    +0.000 NA
ATOM      4  N   UNL     1       2.365   6.413  18.619  0.00  0.00    +0.000 N 
ATOM      5  C   UNL     1       2.171   7.767  18.346  0.00  0.00    +0.000 A 
ATOM      6  O   UNL     1       2.257   8.253  17.222  0.00  0.00    +0.000 OA
ATOM      7  C   UNL     1       1.813   8.624  19.522  0.00  0.00    +0.000 A 
ATOM      8 CL   UNL     1       1.666  10.324  19.219  0.00  0.00    +0.000 Cl
ENDROOT
BRANCH   4   9
ATOM      9  C   UNL     1       2.708   5.465  17.535  0.00  0.00    +0.000 C 
ATOM     10  C   UNL     1       4.202   5.409  17.173  0.00  0.00    +0.000 C 
ATOM     11  C   UNL     1       5.111   4.771  18.243  0.00  0.00    +0.000 C 
ATOM     12  C   UNL     1       5.616   5.861  19.230  0.00  0.00    +0.000 C 
ATOM     13  C   UNL     1       6.423   4.285  17.561  0.00  0.00    +0.000 C 
ATOM     14  C   UNL     1       4.447   3.517  18.930  0.00  0.00    +0.000 C 
ATOM     15  C   UNL     1       2.894   3.243  18.874  0.00  0.00    +0.000 C 
ATOM     16  C   UNL     1       2.161   3.458  20.228  0.00  0.00    +0.000 C 
ATOM     17  C   UNL     1       2.695   1.723  18.598  0.00  0.00    +0.000 C 
ATOM     18  C   UNL     1       2.188   4.033  17.753  0.00  0.00    +0.000 C 
ENDBRANCH   4   9
BRANCH   1  19
ATOM     19  N   UNL     1       1.077   8.723  21.896  0.00  0.00    +0.000 N 
ATOM     20  H   UNL     1       1.681   9.517  22.127  0.00  0.00    +0.000 HD
BRANCH  19  21
ATOM     21  C   UNL     1      -0.312   9.198  21.890  0.00  0.00    +0.000 C 
BRANCH  21  23
ATOM     22  C   UNL     1      -1.310  11.240  22.910  0.00  0.00    +0.000 C 
ATOM     23  C   UNL     1      -0.652   9.899  23.197  0.00  0.00    +0.000 C 
ENDBRANCH  21  23
ENDBRANCH  19  21
ENDBRANCH   1  19
TORSDOF 4
ENDMDL
MODEL 8
REMARK VINA RESULT:      -5.8      1.969      2.739
REMARK  Name = 
REMARK  9 active torsions:
REMARK  status: ('A' for Active; 'I' for Inactive)
REMARK    1  A    between atoms: C_1  and  C_2
REMARK    2  A    between atoms: C_2  and  C_3
REMARK    3  A    between atoms: C_3  and  N_4
REMARK    4  A    between atoms: N_4  and  C_5
REMARK    5  A    between atoms: N_8  and  C_9
REMARK    6  A    between atoms: C_11  and  C_12
REMARK    7  A    between atoms: C_11  and  C_13
REMARK    8  A    between atoms: C_15  and  C_16
REMARK    9  A    between atoms: C_15  and  C_17
REMARK                            x       y       z     vdW  Elec       q    Type
REMARK                         _______ _______ _______ _____ _____    ______ ____
ROOT
ATOM      1  C   UNL     1       6.446   3.776  13.792  0.00  0.00    +0.000 A 
ATOM      2  C   UNL     1       5.485   3.161  14.723  0.00  0.00    +0.000 A 
ATOM      3  N   UNL     1       5.259   3.524  15.939  0.00  0.00    +0.000 NA
ATOM      4  N   UNL     1       5.968   4.567  16.467  0.00  0.00    +0.000 N 
ATOM      5  C   UNL     1       6.907   5.281  15.722  0.00  0.00    +0.000 A 
ATOM      6  O   UNL     1       7.593   6.189  16.183  0.00  0.00    +0.000 OA
ATOM      7  C   UNL     1       7.065   4.856  14.293  0.00  0.00    +0.000 A 
ATOM      8 CL   UNL     1       8.153   5.796  13.327  0.00  0.00    +0.000 Cl
ENDROOT
BRANCH   4   9
ATOM      9  C   UNL     1       5.735   4.886  17.894  0.00  0.00    +0.000 C 
ATOM     10  C   UNL     1       5.266   6.326  18.167  0.00  0.00    +0.000 C 
ATOM     11  C   UNL     1       3.836   6.650  17.689  0.00  0.00    +0.000 C 
ATOM     12  C   UNL     1       3.871   7.172  16.225  0.00  0.00    +0.000 C 
ATOM     13  C   UNL     1       3.310   7.880  18.485  0.00  0.00    +0.000 C 
ATOM     14  C   UNL     1       2.831   5.462  17.942  0.00  0.00    +0.000 C 
ATOM     15  C   UNL     1       3.315   3.983  18.203  0.00  0.00    +0.000 C 
ATOM     16  C   UNL     1       3.035   3.005  17.027  0.00  0.00    +0.000 C 
ATOM     17  C   UNL     1       2.452   3.404  19.363  0.00  0.00    +0.000 C 
ATOM     18  C   UNL     1       4.799   3.905  18.620  0.00  0.00    +0.000 C 
ENDBRANCH   4   9
BRANCH   1  19
ATOM     19  N   UNL     1       6.586   3.149  12.550  0.00  0.00    +0.000 N 
ATOM     20  H   UNL     1       7.271   2.393  12.637  0.00  0.00    +0.000 HD
BRANCH  19  21
ATOM     21  C   UNL     1       5.380   2.597  11.920  0.00  0.00    +0.000 C 
BRANCH  21  23
ATOM     22  C   UNL     1       3.367   3.152  10.563  0.00  0.00    +0.000 C 
ATOM     23  C   UNL     1       4.428   3.706  11.501  0.00  0.00    +0.000 C 
ENDBRANCH  21  23
ENDBRANCH  19  21
ENDBRANCH   1  19
TORSDOF 4
ENDMDL
MODEL 9
REMARK VINA RESULT:      -5.8      2.381      5.827
REMARK  Name = 
REMARK  9 active torsions:
REMARK  status: ('A' for Active; 'I' for Inactive)
REMARK    1  A    between atoms: C_1  and  C_2
REMARK    2  A    between atoms: C_2  and  C_3
REMARK    3  A    between atoms: C_3  and  N_4
REMARK    4  A    between atoms: N_4  and  C_5
REMARK    5  A    between atoms: N_8  and  C_9
REMARK    6  A    between atoms: C_11  and  C_12
REMARK    7  A    between atoms: C_11  and  C_13
REMARK    8  A    between atoms: C_15  and  C_16
REMARK    9  A    between atoms: C_15  and  C_17
REMARK                            x       y       z     vdW  Elec       q    Type
REMARK                         _______ _______ _______ _____ _____    ______ ____
ROOT
ATOM      1  C   UNL     1       3.466   3.812  19.945  0.00  0.00    +0.000 A 
ATOM      2  C   UNL     1       4.556   3.635  18.971  0.00  0.00    +0.000 A 
ATOM      3  N   UNL     1       4.943   4.494  18.092  0.00  0.00    +0.000 NA
ATOM      4  N   UNL     1       4.297   5.697  18.005  0.00  0.00    +0.000 N 
ATOM      5  C   UNL     1       3.253   6.045  18.862  0.00  0.00    +0.000 A 
ATOM      6  O   UNL     1       2.624   7.095  18.776  0.00  0.00    +0.000 OA
ATOM      7  C   UNL     1       2.905   5.031  19.911  0.00  0.00    +0.000 A 
ATOM      8 CL   UNL     1       1.679   5.488  21.046  0.00  0.00    +0.000 Cl
ENDROOT
BRANCH   4   9
ATOM      9  C   UNL     1       4.721   6.611  16.921  0.00  0.00    +0.000 C 
ATOM     10  C   UNL     1       5.876   7.559  17.288  0.00  0.00    +0.000 C 
ATOM     11  C   UNL     1       7.247   6.878  17.476  0.00  0.00    +0.000 C 
ATOM     12  C   UNL     1       7.426   6.441  18.956  0.00  0.00    +0.000 C 
ATOM     13  C   UNL     1       8.366   7.945  17.290  0.00  0.00    +0.000 C 
ATOM     14  C   UNL     1       7.505   5.739  16.416  0.00  0.00    +0.000 C 
ATOM     15  C   UNL     1       6.340   5.069  15.591  0.00  0.00    +0.000 C 
ATOM     16  C   UNL     1       6.025   3.604  16.007  0.00  0.00    +0.000 C 
ATOM     17  C   UNL     1       6.828   4.925  14.119  0.00  0.00    +0.000 C 
ATOM     18  C   UNL     1       5.047   5.912  15.589  0.00  0.00    +0.000 C 
ENDBRANCH   4   9
BRANCH   1  19
ATOM     19  N   UNL     1       3.165   2.701  20.740  0.00  0.00    +0.000 N 
ATOM     20  H   UNL     1       3.370   2.929  21.717  0.00  0.00    +0.000 HD
BRANCH  19  21
ATOM     21  C   UNL     1       1.801   2.162  20.677  0.00  0.00    +0.000 C 
BRANCH  21  23
ATOM     22  C   UNL     1       0.370   2.703  18.712  0.00  0.00    +0.000 C 
ATOM     23  C   UNL     1       1.437   1.766  19.254  0.00  0.00    +0.000 C 
ENDBRANCH  21  23
ENDBRANCH  19  21
ENDBRANCH   1  19
TORSDOF 4
ENDMDL
